REMARK  3 active torsions:
REMARK  status: ('A' for Active; 'I' for Inactive)
REMARK    1  A    between atoms: C2_1  and  C1_26 
REMARK    2  A    between atoms: C3_3  and  C10_4 
REMARK    3  A    between atoms: C3_3  and  C4_15 
ROOT
ATOM      1  C2  <0> d          52.452 -27.059  38.948  0.00  0.00    -0.095 C 
ATOM      2  H2  <0> d          52.725 -26.188  39.567  0.00  0.00     0.077 H 
ATOM      3  C3  <0> d          51.332 -27.035  38.215  0.00  0.00    -0.020 C 
ENDROOT
BRANCH   3   4
ATOM      4  C10 <0> d          50.963 -28.207  37.386  0.00  0.00    -0.025 A 
ATOM      5  C11 <0> d          50.168 -29.220  37.921  0.00  0.00    -0.072 A 
ATOM      6  C12 <0> d          49.823 -30.306  37.143  0.00  0.00    -0.082 A 
ATOM      7  H11 <0> d          49.816 -29.153  38.964  0.00  0.00     0.084 H 
ATOM      8  H12 <0> d          49.187 -31.104  37.562  0.00  0.00     0.083 H 
ATOM      9  C13 <0> d          50.273 -30.396  35.838  0.00  0.00    -0.083 A 
ATOM     10  H13 <0> d          49.998 -31.268  35.221  0.00  0.00     0.083 H 
ATOM     11  C14 <0> d          51.066 -29.397  35.303  0.00  0.00    -0.082 A 
ATOM     12  C15 <0> d          51.413 -28.303  36.071  0.00  0.00    -0.072 A 
ATOM     13  H14 <0> d          51.422 -29.474  34.262  0.00  0.00     0.083 H 
ATOM     14  H15 <0> d          52.045 -27.507  35.644  0.00  0.00     0.084 H 
ENDBRANCH   3   4
BRANCH   3  15
ATOM     15  C4  <0> d          50.459 -25.836  38.236  0.00  0.00    -0.025 A 
ATOM     16  C9  <0> d          49.143 -25.936  38.684  0.00  0.00    -0.072 A 
ATOM     17  H9  <0> d          48.746 -26.909  39.020  0.00  0.00     0.084 H 
ATOM     18  C8  <0> d          48.337 -24.816  38.707  0.00  0.00    -0.082 A 
ATOM     19  C7  <0> d          48.830 -23.598  38.276  0.00  0.00    -0.083 A 
ATOM     20  H8  <0> d          47.298 -24.892  39.070  0.00  0.00     0.083 H 
ATOM     21  C6  <0> d          50.135 -23.492  37.830  0.00  0.00    -0.082 A 
ATOM     22  H7  <0> d          48.180 -22.707  38.288  0.00  0.00     0.083 H 
ATOM     23  H6  <0> d          50.523 -22.517  37.491  0.00  0.00     0.083 H 
ATOM     24  C5  <0> d          50.952 -24.604  37.808  0.00  0.00    -0.072 A 
ATOM     25  H5  <0> d          51.993 -24.518  37.453  0.00  0.00     0.084 H 
ENDBRANCH   3  15
BRANCH   1  26
ATOM     26  C1  <0> d          53.340 -28.277  38.927  0.00  0.00    -0.059 C 
ATOM     27  H13 <0> d          52.724 -29.167  39.195  0.00  0.00     0.032 H 
ATOM     28  H12 <0> d          53.607 -28.501  37.868  0.00  0.00     0.032 H 
ATOM     29  H11 <0> d          54.273 -28.297  39.537  0.00  0.00     0.032 H 
ENDBRANCH   1  26
TORSDOF 3
