REMARK  1 active torsions:
REMARK  status: ('A' for Active; 'I' for Inactive)
REMARK    1  A    between atoms: C_2  and  C_3 
ROOT
ATOM      1  C     1            -2.936   3.562   4.087  0.00  0.00    -0.115 C 
ATOM      2  C     1            -2.936   3.562   5.422  0.00  0.00    -0.018 C 
ATOM      3  H     1            -1.993   3.562   3.543  0.00  0.00     0.067 H 
ATOM      4  H     1            -3.879   3.562   5.966  0.00  0.00     0.092 H 
ATOM      5  H     1            -3.879   3.562   3.543  0.00  0.00     0.067 H 
ENDROOT
BRANCH   2   6
ATOM      6  C     1            -1.680   3.562   6.147  0.00  0.00     0.197 C 
ATOM      7  O     1            -0.624   3.562   5.537  0.00  0.00    -0.645 OA
ATOM      8  O     1            -1.680   3.562   7.367  0.00  0.00    -0.645 OA
ENDBRANCH   2   6
TORSDOF 1
