REMARK  2 active torsions:
REMARK  status: ('A' for Active; 'I' for Inactive)
REMARK    1  A    between atoms: C_1  and  S_2 
REMARK    2  A    between atoms: S_2  and  O_5 
ROOT
ATOM      1  C     1            -5.952   2.209   4.938  0.00  0.00     0.011 C 
ATOM      2  C     1            -5.607   2.274   3.650  0.00  0.00    -0.109 C 
ATOM      3  H     1            -5.839   3.084   5.577  0.00  0.00     0.103 H 
ATOM      4  H     1            -5.212   3.201   3.238  0.00  0.00     0.067 H 
ATOM      5  H     1            -5.719   1.399   3.011  0.00  0.00     0.067 H 
ENDROOT
BRANCH   1   6
ATOM      6  S     1            -6.576   0.741   5.590  0.00  0.00     0.118 S 
ATOM      7  O     1            -6.872   0.924   6.990  0.00  0.00    -0.598 OA
ATOM      8  O     1            -5.598  -0.318   5.337  0.00  0.00    -0.598 OA
BRANCH   6   9
ATOM      9  O     1            -7.851   0.578   4.727  0.00  0.00    -0.292 OA
ATOM     10  H     1            -8.208  -0.304   4.847  0.00  0.00     0.232 HD
ENDBRANCH   6   9
ENDBRANCH   1   6
TORSDOF 2
