REMARK  2 active torsions:
REMARK  status: ('A' for Active; 'I' for Inactive)
REMARK    1  A    between atoms: C_2  and  C_3 
REMARK    2  A    between atoms: C_3  and  O_7 
ROOT
ATOM      1  C     1             7.179   4.210  -2.437  0.00  0.00    -0.123 C 
ATOM      2  C     1             7.179   4.210  -1.102  0.00  0.00    -0.090 C 
ATOM      3  H     1             8.122   4.210  -2.981  0.00  0.00     0.066 H 
ATOM      4  H     1             6.236   4.210  -0.558  0.00  0.00     0.078 H 
ATOM      5  H     1             6.236   4.210  -2.981  0.00  0.00     0.066 H 
ENDROOT
BRANCH   2   6
ATOM      6  C     1             8.435   4.210  -0.377  0.00  0.00     0.031 C 
ATOM      7  H     1             9.006   3.321  -0.640  0.00  0.00     0.080 H 
ATOM      8  H     1             9.006   5.099  -0.640  0.00  0.00     0.080 H 
BRANCH   6   9
ATOM      9  O     1             8.179   4.210   0.998  0.00  0.00    -0.397 OA
ATOM     10  H     1             8.999   4.210   1.472  0.00  0.00     0.209 HD
ENDBRANCH   6   9
ENDBRANCH   2   6
TORSDOF 2
