REMARK  2 active torsions:
REMARK  status: ('A' for Active; 'I' for Inactive)
REMARK    1  A    between atoms: C_2  and  C_3 
REMARK    2  A    between atoms: C_2  and  N_5 
ROOT
ATOM      1  C     1            -6.720   4.486  -4.018  0.00  0.00    -0.106 C 
ATOM      2  C     1            -6.720   4.486  -2.683  0.00  0.00    -0.031 C 
ATOM      3  H     1            -5.777   4.486  -4.562  0.00  0.00     0.068 H 
ATOM      4  H     1            -7.663   4.486  -4.562  0.00  0.00     0.068 H 
ENDROOT
BRANCH   2   5
ATOM      5  C     1            -5.464   4.486  -1.958  0.00  0.00    -0.043 C 
ATOM      6  H     1            -5.663   4.486  -0.887  0.00  0.00     0.034 H 
ATOM      7  H     1            -4.893   3.597  -2.221  0.00  0.00     0.034 H 
ATOM      8  H     1            -4.893   5.375  -2.221  0.00  0.00     0.034 H 
ENDBRANCH   2   5
BRANCH   2   9
ATOM      9  N     1            -7.967   4.486  -1.963  0.00  0.00    -0.307 NA
ATOM     10  H     1            -7.783   4.486  -0.972  0.00  0.00     0.123 HD
ATOM     11  H     1            -8.496   5.309  -2.207  0.00  0.00     0.123 HD
ENDBRANCH   2   9
TORSDOF 2
