REMARK  2 active torsions:
REMARK  status: ('A' for Active; 'I' for Inactive)
REMARK    1  A    between atoms: C_2  and  C_3 
REMARK    2  A    between atoms: C_3  and  S_4 
ROOT
ATOM      1  C     1            -2.308  -7.608  -1.344  0.00  0.00     0.060 C 
ATOM      2  H     1            -2.085  -7.746  -2.401  0.00  0.00     0.066 H 
ATOM      3  H     1            -3.048  -6.817  -1.230  0.00  0.00     0.066 H 
ENDROOT
BRANCH   1   4
ATOM      4  C     1            -1.096  -7.242  -0.638  0.00  0.00    -0.096 C 
ATOM      5  C     1            -0.435  -6.132  -0.975  0.00  0.00    -0.124 C 
ATOM      6  H     1             0.474  -5.857  -0.445  0.00  0.00     0.066 H 
ATOM      7  H     1            -0.807  -5.502  -1.782  0.00  0.00     0.066 H 
ATOM      8  H     1            -0.724  -7.873   0.168  0.00  0.00     0.077 H 
ENDBRANCH   1   4
BRANCH   1   9
ATOM      9  S     1            -2.932  -9.076  -0.692  0.00  0.00     0.105 S 
ATOM     10  O     1            -4.126  -9.229  -1.500  0.00  0.00    -0.595 OA
ATOM     11  O     1            -3.228  -8.893   0.707  0.00  0.00    -0.595 OA
ATOM     12  O     1            -1.954 -10.136  -0.945  0.00  0.00    -0.595 OA
ENDBRANCH   1   9
TORSDOF 2
