REMARK  2 active torsions:
REMARK  status: ('A' for Active; 'I' for Inactive)
REMARK    1  A    between atoms: C_2  and  C_3 
REMARK    2  A    between atoms: C_3  and  N_7 
ROOT
ATOM      1  C     1            -0.900  -6.321   0.235  0.00  0.00     0.124 C 
ATOM      2  H     1            -0.329  -7.210  -0.027  0.00  0.00     0.085 H 
ATOM      3  H     1            -0.329  -5.432  -0.027  0.00  0.00     0.085 H 
ENDROOT
BRANCH   1   4
ATOM      4  C     1            -2.156  -6.321  -0.489  0.00  0.00    -0.086 C 
ATOM      5  C     1            -2.156  -6.321  -1.824  0.00  0.00    -0.123 C 
ATOM      6  H     1            -1.213  -6.321  -2.368  0.00  0.00     0.066 H 
ATOM      7  H     1            -3.099  -6.321  -2.368  0.00  0.00     0.066 H 
ATOM      8  H     1            -3.099  -6.321   0.054  0.00  0.00     0.078 H 
ENDBRANCH   1   4
BRANCH   1   9
ATOM      9  N     1            -1.163  -6.321   1.651  0.00  0.00     0.081 N 
ATOM     10  H     1            -0.290  -6.321   2.155  0.00  0.00     0.313 HD
ATOM     11  H     1            -1.692  -5.498   1.894  0.00  0.00     0.313 HD
ENDBRANCH   1   9
TORSDOF 2
