REMARK  2 active torsions:
REMARK  status: ('A' for Active; 'I' for Inactive)
REMARK    1  A    between atoms: C_2  and  C_3 
REMARK    2  A    between atoms: C_3  and  O_7 
ROOT
ATOM      1  C     1             5.351  -4.503   0.892  0.00  0.00    -0.115 C 
ATOM      2  C     1             5.351  -4.503   2.227  0.00  0.00    -0.021 C 
ATOM      3  H     1             6.294  -4.503   0.348  0.00  0.00     0.067 H 
ATOM      4  H     1             4.408  -4.503   2.771  0.00  0.00     0.092 H 
ATOM      5  H     1             4.408  -4.503   0.348  0.00  0.00     0.067 H 
ENDROOT
BRANCH   2   6
ATOM      6  C     1             6.607  -4.503   2.952  0.00  0.00     0.164 C 
ATOM      7  O     1             7.663  -4.503   2.342  0.00  0.00    -0.647 OA
BRANCH   6   8
ATOM      8  O     1             6.607  -4.503   4.352  0.00  0.00    -0.773 OA
ATOM      9  H     1             7.503  -4.503   4.668  0.00  0.00     0.167 HD
ENDBRANCH   6   8
ENDBRANCH   2   6
TORSDOF 2
