REMARK  1 active torsions:
REMARK  status: ('A' for Active; 'I' for Inactive)
REMARK    1  A    between atoms: C_2  and  C_4 
ROOT
ATOM      1  C     1             1.055  -0.039  -1.946  0.00  0.00    -0.125 C 
ATOM      2  C     1             1.055  -0.039  -0.611  0.00  0.00    -0.115 C 
ATOM      3  H     1             1.998  -0.039  -2.490  0.00  0.00     0.066 H 
ATOM      4  H     1             0.112  -0.039  -0.067  0.00  0.00     0.074 H 
ATOM      5  H     1             0.112  -0.039  -2.490  0.00  0.00     0.066 H 
ENDROOT
BRANCH   2   6
ATOM      6  C     1             2.311  -0.039   0.113  0.00  0.00    -0.060 C 
ATOM      7  H     1             2.112  -0.039   1.184  0.00  0.00     0.032 H 
ATOM      8  H     1             2.882  -0.928  -0.149  0.00  0.00     0.032 H 
ATOM      9  H     1             2.882   0.849  -0.149  0.00  0.00     0.032 H 
ENDBRANCH   2   6
TORSDOF 1
