REMARK  1 active torsions:
REMARK  status: ('A' for Active; 'I' for Inactive)
REMARK    1  A    between atoms: C_2  and  O_4 
ROOT
ATOM      1  C     1             4.447   7.273   2.916  0.00  0.00    -0.101 C 
ATOM      2  C     1             4.447   7.273   4.251  0.00  0.00     0.000 C 
ATOM      3  H     1             5.390   7.273   2.372  0.00  0.00     0.069 H 
ATOM      4  H     1             3.504   7.273   4.795  0.00  0.00     0.120 H 
ATOM      5  H     1             3.390   7.273   2.306  0.00  0.00     0.069 H 
ENDROOT
BRANCH   2   6
ATOM      6  O     1             5.660   7.273   4.951  0.00  0.00    -0.373 OA
ATOM      7  H     1             5.487   7.273   5.882  0.00  0.00     0.216 HD
ENDBRANCH   2   6
TORSDOF 1
