REMARK  3 active torsions:
REMARK  status: ('A' for Active; 'I' for Inactive)
REMARK    1  A    between atoms: C_1  and  C_2 
REMARK    2  A    between atoms: C_2  and  C_3 
REMARK    3  A    between atoms: C_2  and  S_4 
ROOT
ATOM      1  C     1             4.429  -0.770   1.557  0.00  0.00     0.055 C 
ATOM      2  H     1             4.652  -0.908   0.500  0.00  0.00     0.067 H 
ENDROOT
BRANCH   1   3
ATOM      3  C     1             3.444   0.282   1.709  0.00  0.00    -0.058 C 
ATOM      4  H     1             3.839   1.210   1.297  0.00  0.00     0.029 H 
ATOM      5  H     1             2.534   0.008   1.179  0.00  0.00     0.029 H 
ATOM      6  H     1             3.221   0.421   2.766  0.00  0.00     0.029 H 
ENDBRANCH   1   3
BRANCH   1   7
ATOM      7  C     1             5.641  -0.404   2.263  0.00  0.00    -0.058 C 
ATOM      8  H     1             6.036   0.523   1.851  0.00  0.00     0.029 H 
ATOM      9  H     1             5.418  -0.266   3.320  0.00  0.00     0.029 H 
ATOM     10  H     1             6.381  -1.195   2.149  0.00  0.00     0.029 H 
ENDBRANCH   1   7
BRANCH   1  11
ATOM     11  S     1             3.805  -2.238   2.209  0.00  0.00     0.105 S 
ATOM     12  O     1             2.611  -2.391   1.401  0.00  0.00    -0.595 OA
ATOM     13  O     1             3.509  -2.055   3.609  0.00  0.00    -0.595 OA
ATOM     14  O     1             4.783  -3.298   1.956  0.00  0.00    -0.595 OA
ENDBRANCH   1  11
TORSDOF 3
