REMARK  2 active torsions:
REMARK  status: ('A' for Active; 'I' for Inactive)
REMARK    1  A    between atoms: C_1  and  C_3 
REMARK    2  A    between atoms: C_3  and  C_6 
ROOT
ATOM      1  C     1             5.234  -2.141  -0.634  0.00  0.00    -0.072 C 
ATOM      2  H     1             5.747  -1.252  -0.271  0.00  0.00     0.032 H 
ATOM      3  H     1             5.747  -3.030  -0.271  0.00  0.00     0.032 H 
ENDROOT
BRANCH   1   4
ATOM      4  C     1             3.867  -2.141  -0.151  0.00  0.00    -0.077 C 
ATOM      5  H     1             3.867  -2.141   0.795  0.00  0.00     0.027 H 
ATOM      6  H     1             3.354  -3.030  -0.514  0.00  0.00     0.027 H 
ATOM      7  H     1             3.354  -1.252  -0.514  0.00  0.00     0.027 H 
ENDBRANCH   1   4
BRANCH   1   8
ATOM      8  C     1             5.234  -2.141  -2.084  0.00  0.00    -0.077 C 
ATOM      9  H     1             6.261  -2.141  -2.447  0.00  0.00     0.027 H 
ATOM     10  H     1             4.721  -3.030  -2.447  0.00  0.00     0.027 H 
ATOM     11  H     1             4.721  -1.252  -2.447  0.00  0.00     0.027 H 
ENDBRANCH   1   8
TORSDOF 2
