REMARK  3 active torsions:
REMARK  status: ('A' for Active; 'I' for Inactive)
REMARK    1  A    between atoms: C_1  and  C_4 
REMARK    2  A    between atoms: C_4  and  N_7 
REMARK    3  A    between atoms: C_4  and  C_8 
ROOT
ATOM      1  C     1             2.057  -4.203  -1.904  0.00  0.00     0.124 C 
ATOM      2  H     1             2.057  -4.203  -2.993  0.00  0.00     0.086 H 
ENDROOT
BRANCH   1   3
ATOM      3  C     1             2.741  -3.019  -1.421  0.00  0.00    -0.048 C 
ATOM      4  H     1             2.741  -3.019  -0.474  0.00  0.00     0.030 H 
ATOM      5  H     1             3.768  -3.019  -1.784  0.00  0.00     0.030 H 
ATOM      6  H     1             2.228  -2.130  -1.784  0.00  0.00     0.030 H 
ENDBRANCH   1   3
BRANCH   1   7
ATOM      7  N     1             2.736  -5.379  -1.424  0.00  0.00     0.082 N 
ATOM      8  H     1             2.261  -6.202  -1.760  0.00  0.00     0.313 HD
ATOM      9  H     1             3.687  -5.379  -1.760  0.00  0.00     0.313 HD
ENDBRANCH   1   7
BRANCH   1  10
ATOM     10  C     1             0.690  -4.203  -1.421  0.00  0.00    -0.048 C 
ATOM     11  H     1             0.177  -5.092  -1.784  0.00  0.00     0.030 H 
ATOM     12  H     1             0.690  -4.203  -0.332  0.00  0.00     0.030 H 
ATOM     13  H     1             0.177  -3.314  -1.784  0.00  0.00     0.030 H 
ENDBRANCH   1  10
TORSDOF 3
