REMARK  2 active torsions:
REMARK  status: ('A' for Active; 'I' for Inactive)
REMARK    1  A    between atoms: C_1  and  C_4 
REMARK    2  A    between atoms: C_4  and  C_7 
ROOT
ATOM      1  C     1            -2.529   5.047  -5.203  0.00  0.00    -0.020 C 
ATOM      2  H     1            -2.529   5.047  -6.292  0.00  0.00     0.042 H 
ATOM      3  H     1            -3.555   5.047  -4.840  0.00  0.00     0.042 H 
ENDROOT
BRANCH   1   4
ATOM      4  C     1            -1.845   6.231  -4.720  0.00  0.00    -0.071 C 
ATOM      5  H     1            -1.845   6.231  -3.773  0.00  0.00     0.028 H 
ATOM      6  H     1            -0.818   6.231  -5.083  0.00  0.00     0.028 H 
ATOM      7  H     1            -2.358   7.120  -5.083  0.00  0.00     0.028 H 
ENDBRANCH   1   4
BRANCH   1   8
ATOM      8  C     1            -1.845   3.863  -4.720  0.00  0.00     0.087 C 
ATOM      9  H     1            -2.217   2.874  -4.983  0.00  0.00     0.143 H 
ATOM     10  O     1            -0.853   3.975  -4.019  0.00  0.00    -0.307 OA
ENDBRANCH   1   8
TORSDOF 2
