REMARK  2 active torsions:
REMARK  status: ('A' for Active; 'I' for Inactive)
REMARK    1  A    between atoms: C_1  and  C_2 
REMARK    2  A    between atoms: C_2  and  S_3 
ROOT
ATOM      1  C     1            -0.646  -5.985  -6.345  0.00  0.00     0.042 C 
ATOM      2  H     1            -0.423  -6.123  -7.402  0.00  0.00     0.059 H 
ATOM      3  H     1            -1.386  -5.194  -6.231  0.00  0.00     0.059 H 
ENDROOT
BRANCH   1   4
ATOM      4  C     1             0.565  -5.619  -5.639  0.00  0.00    -0.061 C 
ATOM      5  H     1             0.960  -4.691  -6.051  0.00  0.00     0.028 H 
ATOM      6  H     1             0.342  -5.481  -4.582  0.00  0.00     0.028 H 
ATOM      7  H     1             1.305  -6.410  -5.753  0.00  0.00     0.028 H 
ENDBRANCH   1   4
BRANCH   1   8
ATOM      8  S     1            -1.270  -7.453  -5.693  0.00  0.00     0.101 S 
ATOM      9  O     1            -2.464  -7.606  -6.501  0.00  0.00    -0.595 OA
ATOM     10  O     1            -1.566  -7.270  -4.293  0.00  0.00    -0.595 OA
ATOM     11  O     1            -0.292  -8.513  -5.946  0.00  0.00    -0.595 OA
ENDBRANCH   1   8
TORSDOF 2
