REMARK  3 active torsions:
REMARK  status: ('A' for Active; 'I' for Inactive)
REMARK    1  A    between atoms: C_1  and  S_2 
REMARK    2  A    between atoms: C_1  and  C_9 
REMARK    3  A    between atoms: S_2  and  O_5 
ROOT
ATOM      1  C     1            -1.139  -0.724   7.648  0.00  0.00     0.035 C 
ATOM      2  H     1            -0.916  -0.862   6.591  0.00  0.00     0.058 H 
ATOM      3  H     1            -1.879   0.066   7.762  0.00  0.00     0.058 H 
ENDROOT
BRANCH   1   4
ATOM      4  S     1            -1.763  -2.192   8.300  0.00  0.00     0.093 S 
ATOM      5  O     1            -2.059  -2.009   9.700  0.00  0.00    -0.601 OA
ATOM      6  O     1            -0.785  -3.252   8.047  0.00  0.00    -0.601 OA
BRANCH   4   7
ATOM      7  O     1            -3.038  -2.355   7.437  0.00  0.00    -0.296 OA
ATOM      8  H     1            -3.395  -3.238   7.557  0.00  0.00     0.232 HD
ENDBRANCH   4   7
ENDBRANCH   1   4
BRANCH   1   9
ATOM      9  C     1             0.072  -0.358   8.354  0.00  0.00    -0.062 C 
ATOM     10  H     1             0.467   0.569   7.942  0.00  0.00     0.028 H 
ATOM     11  H     1            -0.150  -0.220   9.411  0.00  0.00     0.028 H 
ATOM     12  H     1             0.812  -1.149   8.240  0.00  0.00     0.028 H 
ENDBRANCH   1   9
TORSDOF 3
