REMARK  1 active torsions:
REMARK  status: ('A' for Active; 'I' for Inactive)
REMARK    1  A    between atoms: C_1  and  C_4 
ROOT
ATOM      1  C     1             3.442   6.599   3.045  0.00  0.00    -0.081 C 
ATOM      2  H     1             3.442   6.599   3.992  0.00  0.00     0.027 H 
ATOM      3  H     1             4.469   6.599   2.682  0.00  0.00     0.027 H 
ATOM      4  H     1             2.929   7.488   2.682  0.00  0.00     0.027 H 
ENDROOT
BRANCH   1   5
ATOM      5  C     1             2.758   5.415   2.562  0.00  0.00    -0.081 C 
ATOM      6  H     1             2.758   5.415   1.473  0.00  0.00     0.027 H 
ATOM      7  H     1             3.272   4.526   2.925  0.00  0.00     0.027 H 
ATOM      8  H     1             1.732   5.415   2.925  0.00  0.00     0.027 H 
ENDBRANCH   1   5
TORSDOF 1
