REMARK  1 active torsions:
REMARK  status: ('A' for Active; 'I' for Inactive)
REMARK    1  A    between atoms: C_1  and  C_2 
ROOT
ATOM      1  C     1             3.449   2.508  -3.888  0.00  0.00    -0.028 C 
ATOM      2  H     1             4.476   2.508  -4.251  0.00  0.00     0.036 H 
ATOM      3  H     1             2.936   1.619  -4.251  0.00  0.00     0.036 H 
ATOM      4  H     1             2.936   3.397  -4.251  0.00  0.00     0.036 H 
ENDROOT
BRANCH   1   5
ATOM      5  C     1             3.449   2.508  -2.438  0.00  0.00     0.084 C 
ATOM      6  O     1             2.392   2.508  -1.828  0.00  0.00    -0.307 OA
ATOM      7  H     1             4.392   2.508  -1.893  0.00  0.00     0.142 H 
ENDBRANCH   1   5
TORSDOF 1
