REMARK  3 active torsions:
REMARK  status: ('A' for Active; 'I' for Inactive)
REMARK    1  A    between atoms: C_1  and  C_3 
REMARK    2  A    between atoms: C_3  and  C_6 
REMARK    3  A    between atoms: C_6  and  N_11 
ROOT
ATOM      1  C     1             4.180  -2.445   1.407  0.00  0.00    -0.044 C 
ATOM      2  H     1             4.693  -1.556   1.770  0.00  0.00     0.035 H 
ATOM      3  H     1             4.693  -3.334   1.770  0.00  0.00     0.035 H 
ENDROOT
BRANCH   1   4
ATOM      4  C     1             2.813  -2.445   1.890  0.00  0.00    -0.075 C 
ATOM      5  H     1             2.813  -2.445   2.837  0.00  0.00     0.027 H 
ATOM      6  H     1             2.300  -3.334   1.527  0.00  0.00     0.027 H 
ATOM      7  H     1             2.300  -1.556   1.527  0.00  0.00     0.027 H 
ENDBRANCH   1   4
BRANCH   1   8
ATOM      8  C     1             4.180  -2.445  -0.042  0.00  0.00     0.109 C 
ATOM      9  H     1             5.207  -2.445  -0.405  0.00  0.00     0.079 H 
ATOM     10  H     1             3.667  -3.334  -0.405  0.00  0.00     0.079 H 
BRANCH   8  11
ATOM     11  N     1             3.501  -1.269  -0.522  0.00  0.00     0.078 N 
ATOM     12  H     1             3.501  -1.269  -1.530  0.00  0.00     0.312 HD
ATOM     13  H     1             2.551  -1.269  -0.186  0.00  0.00     0.312 HD
ENDBRANCH   8  11
ENDBRANCH   1   8
TORSDOF 3
