REMARK  3 active torsions:
REMARK  status: ('A' for Active; 'I' for Inactive)
REMARK    1  A    between atoms: C_1  and  C_2 
REMARK    2  A    between atoms: C_2  and  C_3 
REMARK    3  A    between atoms: C_3  and  S_4 
ROOT
ATOM      1  C     1            -8.029  -0.661  -7.450  0.00  0.00    -0.054 C 
ATOM      2  H     1            -8.252  -0.523  -6.393  0.00  0.00     0.033 H 
ATOM      3  H     1            -7.289  -1.452  -7.564  0.00  0.00     0.033 H 
ENDROOT
BRANCH   1   4
ATOM      4  C     1            -7.504   0.573  -7.998  0.00  0.00    -0.076 C 
ATOM      5  H     1            -6.593   0.848  -7.468  0.00  0.00     0.027 H 
ATOM      6  H     1            -7.280   0.435  -9.055  0.00  0.00     0.027 H 
ATOM      7  H     1            -8.243   1.364  -7.884  0.00  0.00     0.027 H 
ENDBRANCH   1   4
BRANCH   1   8
ATOM      8  C     1            -9.241  -1.027  -8.156  0.00  0.00     0.045 C 
ATOM      9  H     1            -9.018  -1.165  -9.213  0.00  0.00     0.060 H 
ATOM     10  H     1            -9.981  -0.236  -8.042  0.00  0.00     0.060 H 
BRANCH   8  11
ATOM     11  S     1            -9.865  -2.495  -7.504  0.00  0.00     0.101 S 
ATOM     12  O     1           -11.059  -2.648  -8.312  0.00  0.00    -0.595 OA
ATOM     13  O     1           -10.161  -2.312  -6.104  0.00  0.00    -0.595 OA
ATOM     14  O     1            -8.887  -3.555  -7.757  0.00  0.00    -0.595 OA
ENDBRANCH   8  11
ENDBRANCH   1   8
TORSDOF 3
