REMARK  3 active torsions:
REMARK  status: ('A' for Active; 'I' for Inactive)
REMARK    1  A    between atoms: C_1  and  C_4 
REMARK    2  A    between atoms: C_4  and  O_7 
REMARK    3  A    between atoms: C_4  and  C_8 
ROOT
ATOM      1  C     1             3.595   2.431   1.396  0.00  0.00     0.028 C 
ATOM      2  H     1             3.595   2.431   0.307  0.00  0.00     0.081 H 
ENDROOT
BRANCH   1   3
ATOM      3  C     1             4.279   3.615   1.879  0.00  0.00    -0.053 C 
ATOM      4  H     1             4.279   3.615   2.826  0.00  0.00     0.030 H 
ATOM      5  H     1             5.306   3.615   1.516  0.00  0.00     0.030 H 
ATOM      6  H     1             3.766   4.504   1.516  0.00  0.00     0.030 H 
ENDBRANCH   1   3
BRANCH   1   7
ATOM      7  O     1             4.255   1.288   1.862  0.00  0.00    -0.396 OA
ATOM      8  H     1             3.809   0.515   1.547  0.00  0.00     0.209 HD
ENDBRANCH   1   7
BRANCH   1   9
ATOM      9  C     1             2.228   2.431   1.879  0.00  0.00    -0.053 C 
ATOM     10  H     1             1.715   1.542   1.516  0.00  0.00     0.030 H 
ATOM     11  H     1             2.228   2.431   2.968  0.00  0.00     0.030 H 
ATOM     12  H     1             1.715   3.320   1.516  0.00  0.00     0.030 H 
ENDBRANCH   1   9
TORSDOF 3
