REMARK  1 active torsions:
REMARK  status: ('A' for Active; 'I' for Inactive)
REMARK    1  A    between atoms: C_1  and  C_2 
ROOT
ATOM      1  C     1             1.988  -3.328  -1.952  0.00  0.00     0.003 C 
ATOM      2  H     1             3.015  -3.328  -2.315  0.00  0.00     0.042 H 
ATOM      3  H     1             1.475  -4.217  -2.315  0.00  0.00     0.042 H 
ATOM      4  H     1             1.475  -2.439  -2.315  0.00  0.00     0.042 H 
ENDROOT
BRANCH   1   5
ATOM      5  C     1             1.988  -3.328  -0.502  0.00  0.00     0.168 C 
ATOM      6  O     1             3.045  -3.328   0.107  0.00  0.00    -0.648 OA
ATOM      7  O     1             0.931  -3.328   0.107  0.00  0.00    -0.648 OA
ENDBRANCH   1   5
TORSDOF 1
