REMARK  3 active torsions:
REMARK  status: ('A' for Active; 'I' for Inactive)
REMARK    1  A    between atoms: C_1  and  C_4 
REMARK    2  A    between atoms: C_4  and  C_7 
REMARK    3  A    between atoms: C_7  and  O_9 
ROOT
ATOM      1  C     1            -3.837  -7.315  -6.359  0.00  0.00     0.009 C 
ATOM      2  H     1            -3.837  -7.315  -7.448  0.00  0.00     0.048 H 
ATOM      3  H     1            -4.863  -7.315  -5.996  0.00  0.00     0.048 H 
ENDROOT
BRANCH   1   4
ATOM      4  C     1            -3.153  -6.131  -5.876  0.00  0.00    -0.067 C 
ATOM      5  H     1            -3.153  -6.131  -4.929  0.00  0.00     0.028 H 
ATOM      6  H     1            -2.126  -6.131  -6.239  0.00  0.00     0.028 H 
ATOM      7  H     1            -3.666  -5.242  -6.239  0.00  0.00     0.028 H 
ENDBRANCH   1   4
BRANCH   1   8
ATOM      8  C     1            -3.153  -8.499  -5.876  0.00  0.00     0.139 C 
ATOM      9  O     1            -2.161  -8.387  -5.175  0.00  0.00    -0.650 OA
BRANCH   8  10
ATOM     10  O     1            -3.631  -9.770  -6.214  0.00  0.00    -0.776 OA
ATOM     11  H     1            -3.075 -10.433  -5.821  0.00  0.00     0.167 HD
ENDBRANCH   8  10
ENDBRANCH   1   8
TORSDOF 3
