REMARK  2 active torsions:
REMARK  status: ('A' for Active; 'I' for Inactive)
REMARK    1  A    between atoms: C_1  and  C_2 
REMARK    2  A    between atoms: C_2  and  C_3 
ROOT
ATOM      1  C     1             5.570  -7.877  -1.771  0.00  0.00     0.012 C 
ATOM      2  H     1             5.570  -7.877  -2.860  0.00  0.00     0.048 H 
ATOM      3  H     1             4.544  -7.877  -1.408  0.00  0.00     0.048 H 
ENDROOT
BRANCH   1   4
ATOM      4  C     1             6.254  -6.693  -1.288  0.00  0.00    -0.067 C 
ATOM      5  H     1             6.254  -6.693  -0.341  0.00  0.00     0.028 H 
ATOM      6  H     1             7.281  -6.693  -1.651  0.00  0.00     0.028 H 
ATOM      7  H     1             5.741  -5.804  -1.651  0.00  0.00     0.028 H 
ENDBRANCH   1   4
BRANCH   1   8
ATOM      8  C     1             6.254  -9.061  -1.288  0.00  0.00     0.172 C 
ATOM      9  O     1             7.246  -8.949  -0.587  0.00  0.00    -0.648 OA
ATOM     10  O     1             5.837 -10.169  -1.583  0.00  0.00    -0.648 OA
ENDBRANCH   1   8
TORSDOF 2
