REMARK  2 active torsions:
REMARK  status: ('A' for Active; 'I' for Inactive)
REMARK    1  A    between atoms: C_1  and  C_2 
REMARK    2  A    between atoms: C_2  and  O_6 
ROOT
ATOM      1  C     1            -0.761   0.165   4.535  0.00  0.00     0.000 C 
ATOM      2  H     1             0.265   0.165   4.172  0.00  0.00     0.042 H 
ATOM      3  H     1            -1.274  -0.723   4.172  0.00  0.00     0.042 H 
ATOM      4  H     1            -1.274   1.054   4.172  0.00  0.00     0.042 H 
ENDROOT
BRANCH   1   5
ATOM      5  C     1            -0.761   0.165   5.985  0.00  0.00     0.135 C 
ATOM      6  O     1             0.295   0.165   6.595  0.00  0.00    -0.650 OA
BRANCH   5   7
ATOM      7  O     1            -1.973   0.165   6.685  0.00  0.00    -0.777 OA
ATOM      8  H     1            -1.800   0.165   7.619  0.00  0.00     0.167 HD
ENDBRANCH   5   7
ENDBRANCH   1   5
TORSDOF 2
