REMARK  4 active torsions:
REMARK  status: ('A' for Active; 'I' for Inactive)
REMARK    1  A    between atoms: C_1  and  S_2 
REMARK    2  A    between atoms: C_1  and  C_8 
REMARK    3  A    between atoms: C_1  and  C_9 
REMARK    4  A    between atoms: S_2  and  O_5 
ROOT
ATOM      1  C     1             2.485   3.180  -0.054  0.00  0.00     0.048 C 
ATOM      2  H     1             2.708   3.042  -1.111  0.00  0.00     0.065 H 
ENDROOT
BRANCH   1   3
ATOM      3  S     1             1.861   1.712   0.597  0.00  0.00     0.098 S 
ATOM      4  O     1             1.565   1.895   1.997  0.00  0.00    -0.601 OA
ATOM      5  O     1             2.839   0.652   0.344  0.00  0.00    -0.601 OA
BRANCH   3   6
ATOM      6  O     1             0.586   1.549  -0.265  0.00  0.00    -0.295 OA
ATOM      7  H     1             0.229   0.666  -0.145  0.00  0.00     0.232 HD
ENDBRANCH   3   6
ENDBRANCH   1   3
BRANCH   1   8
ATOM      8  C     1             1.500   4.233   0.097  0.00  0.00    -0.059 C 
ATOM      9  H     1             1.895   5.161  -0.314  0.00  0.00     0.029 H 
ATOM     10  H     1             0.590   3.959  -0.432  0.00  0.00     0.029 H 
ATOM     11  H     1             1.277   4.372   1.154  0.00  0.00     0.029 H 
ENDBRANCH   1   8
BRANCH   1  12
ATOM     12  C     1             3.697   3.546   0.651  0.00  0.00    -0.059 C 
ATOM     13  H     1             4.092   4.474   0.239  0.00  0.00     0.029 H 
ATOM     14  H     1             3.474   3.684   1.708  0.00  0.00     0.029 H 
ATOM     15  H     1             4.437   2.755   0.537  0.00  0.00     0.029 H 
ENDBRANCH   1  12
TORSDOF 4
