REMARK  2 active torsions:
REMARK  status: ('A' for Active; 'I' for Inactive)
REMARK    1  A    between atoms: C_1  and  C_2 
REMARK    2  A    between atoms: C_1  and  O_3 
ROOT
ATOM      1  C     1             2.120   2.332  -2.845  0.00  0.00     0.013 C 
ATOM      2  H     1             1.607   1.443  -3.208  0.00  0.00     0.073 H 
ATOM      3  H     1             1.607   3.221  -3.208  0.00  0.00     0.073 H 
ENDROOT
BRANCH   1   4
ATOM      4  C     1             2.120   2.332  -1.395  0.00  0.00    -0.057 C 
ATOM      5  H     1             1.093   2.332  -1.032  0.00  0.00     0.030 H 
ATOM      6  H     1             2.633   1.443  -1.032  0.00  0.00     0.030 H 
ATOM      7  H     1             2.633   3.221  -1.032  0.00  0.00     0.030 H 
ENDBRANCH   1   4
BRANCH   1   8
ATOM      8  O     1             3.440   2.332  -3.312  0.00  0.00    -0.401 OA
ATOM      9  H     1             3.440   2.332  -4.259  0.00  0.00     0.209 HD
ENDBRANCH   1   8
TORSDOF 2
