REMARK  4 active torsions:
REMARK  status: ('A' for Active; 'I' for Inactive)
REMARK    1  A    between atoms: C_1  and  S_2 
REMARK    2  A    between atoms: C_1  and  C_9 
REMARK    3  A    between atoms: S_2  and  O_5 
REMARK    4  A    between atoms: C_9  and  C_10 
ROOT
ATOM      1  C     1            -5.158   3.435  -3.655  0.00  0.00     0.038 C 
ATOM      2  H     1            -4.935   3.297  -4.712  0.00  0.00     0.059 H 
ATOM      3  H     1            -5.898   4.226  -3.541  0.00  0.00     0.059 H 
ENDROOT
BRANCH   1   4
ATOM      4  S     1            -5.782   1.967  -3.003  0.00  0.00     0.094 S 
ATOM      5  O     1            -6.078   2.150  -1.603  0.00  0.00    -0.601 OA
ATOM      6  O     1            -4.804   0.907  -3.256  0.00  0.00    -0.601 OA
BRANCH   4   7
ATOM      7  O     1            -7.057   1.804  -3.866  0.00  0.00    -0.296 OA
ATOM      8  H     1            -7.414   0.921  -3.746  0.00  0.00     0.232 HD
ENDBRANCH   4   7
ENDBRANCH   1   4
BRANCH   1   9
ATOM      9  C     1            -3.946   3.801  -2.949  0.00  0.00    -0.055 C 
ATOM     10  H     1            -4.169   3.939  -1.892  0.00  0.00     0.033 H 
ATOM     11  H     1            -3.206   3.010  -3.063  0.00  0.00     0.033 H 
BRANCH   9  12
ATOM     12  C     1            -3.421   5.036  -3.497  0.00  0.00    -0.076 C 
ATOM     13  H     1            -2.510   5.311  -2.967  0.00  0.00     0.027 H 
ATOM     14  H     1            -3.197   4.898  -4.554  0.00  0.00     0.027 H 
ATOM     15  H     1            -4.160   5.827  -3.383  0.00  0.00     0.027 H 
ENDBRANCH   9  12
ENDBRANCH   1   9
TORSDOF 4
