REMARK  2 active torsions:
REMARK  status: ('A' for Active; 'I' for Inactive)
REMARK    1  A    between atoms: C_1  and  C_2 
REMARK    2  A    between atoms: C_1  and  C_4 
ROOT
ATOM      1  C     1            -6.346   5.265  -7.119  0.00  0.00     0.119 C 
ATOM      2  O     1            -5.289   5.265  -7.729  0.00  0.00    -0.299 OA
ENDROOT
BRANCH   1   3
ATOM      3  C     1            -6.346   5.265  -5.669  0.00  0.00    -0.021 C 
ATOM      4  H     1            -7.373   5.265  -5.306  0.00  0.00     0.037 H 
ATOM      5  H     1            -5.833   4.376  -5.306  0.00  0.00     0.037 H 
ATOM      6  H     1            -5.833   6.154  -5.306  0.00  0.00     0.037 H 
ENDBRANCH   1   3
BRANCH   1   7
ATOM      7  C     1            -7.602   5.265  -7.844  0.00  0.00    -0.021 C 
ATOM      8  H     1            -8.429   5.265  -7.136  0.00  0.00     0.037 H 
ATOM      9  H     1            -7.659   6.154  -8.470  0.00  0.00     0.037 H 
ATOM     10  H     1            -7.659   4.376  -8.470  0.00  0.00     0.037 H 
ENDBRANCH   1   7
TORSDOF 2
