REMARK  1 active torsions:
REMARK  status: ('A' for Active; 'I' for Inactive)
REMARK    1  A    between atoms: C_1  and  N_2 
ROOT
ATOM      1  C     1            -3.927  -6.375   4.925  0.00  0.00     0.091 C 
ATOM      2  H     1            -4.954  -6.375   4.562  0.00  0.00     0.071 H 
ATOM      3  H     1            -3.414  -5.486   4.562  0.00  0.00     0.071 H 
ATOM      4  H     1            -3.414  -7.264   4.562  0.00  0.00     0.071 H 
ENDROOT
BRANCH   1   5
ATOM      5  N     1            -3.927  -6.375   6.365  0.00  0.00     0.073 N 
ATOM      6  H     1            -4.877  -6.375   6.701  0.00  0.00     0.312 HD
ATOM      7  H     1            -3.452  -7.198   6.701  0.00  0.00     0.312 HD
ENDBRANCH   1   5
TORSDOF 1
