REMARK  1 active torsions:
REMARK  status: ('A' for Active; 'I' for Inactive)
REMARK    1  A    between atoms: O_1  and  C_2 
ROOT
ATOM      1  C     1             1.132  -6.959   0.290  0.00  0.00     0.001 C 
ATOM      2  H     1             2.159  -6.959   0.653  0.00  0.00     0.065 H 
ATOM      3  H     1             0.619  -6.070   0.653  0.00  0.00     0.065 H 
ATOM      4  H     1             0.619  -7.848   0.653  0.00  0.00     0.065 H 
ENDROOT
BRANCH   1   5
ATOM      5  O     1             1.132  -6.959  -1.109  0.00  0.00    -0.406 OA
ATOM      6  H     1             0.239  -6.959  -1.425  0.00  0.00     0.208 HD
ENDBRANCH   1   5
TORSDOF 1
