REMARK  1 active torsions:
REMARK  status: ('A' for Active; 'I' for Inactive)
REMARK    1  A    between atoms: C_1  and  S_2 
ROOT
ATOM      1  C     1             3.437  -7.599   6.840  0.00  0.00     0.031 C 
ATOM      2  H     1             3.660  -7.737   5.783  0.00  0.00     0.052 H 
ATOM      3  H     1             2.697  -6.808   6.954  0.00  0.00     0.052 H 
ATOM      4  H     1             4.347  -7.324   7.371  0.00  0.00     0.052 H 
ENDROOT
BRANCH   1   5
ATOM      5  S     1             2.813  -9.067   7.492  0.00  0.00     0.097 S 
ATOM      6  O     1             1.619  -9.220   6.684  0.00  0.00    -0.595 OA
ATOM      7  O     1             2.517  -8.884   8.892  0.00  0.00    -0.595 OA
ATOM      8  O     1             3.791 -10.127   7.239  0.00  0.00    -0.595 OA
ENDBRANCH   1   5
TORSDOF 1
