REMARK  0 active torsions:
REMARK  status: ('A' for Active; 'I' for Inactive)
ROOT
ATOM      1  C     1             4.991  -0.391  -3.355  0.00  0.00    -0.089 C 
ATOM      2  H     1             4.991  -0.391  -2.408  0.00  0.00     0.022 H 
ATOM      3  H     1             6.018  -0.391  -3.718  0.00  0.00     0.022 H 
ATOM      4  H     1             4.478  -1.280  -3.718  0.00  0.00     0.022 H 
ATOM      5  H     1             4.478   0.497  -3.718  0.00  0.00     0.022 H 
ENDROOT
TORSDOF 0
