REMARK  2 active torsions:
REMARK  status: ('A' for Active; 'I' for Inactive)
REMARK    1  A    between atoms: C_1  and  N_6 
REMARK    2  A    between atoms: C_2  and  C_3 
ROOT
ATOM      1  C     1             6.299  -2.886  -5.662  0.00  0.00    -0.051 C 
ATOM      2  C     1             6.299  -2.886  -4.327  0.00  0.00    -0.097 C 
ATOM      3  H     1             7.242  -2.886  -6.206  0.00  0.00     0.101 H 
ATOM      4  H     1             5.356  -2.886  -3.783  0.00  0.00     0.077 H 
ENDROOT
BRANCH   2   5
ATOM      5  C     1             7.555  -2.886  -3.602  0.00  0.00    -0.059 C 
ATOM      6  H     1             7.356  -2.886  -2.531  0.00  0.00     0.032 H 
ATOM      7  H     1             8.126  -3.775  -3.865  0.00  0.00     0.032 H 
ATOM      8  H     1             8.126  -1.997  -3.865  0.00  0.00     0.032 H 
ENDBRANCH   2   5
BRANCH   1   9
ATOM      9  N     1             5.052  -2.886  -6.382  0.00  0.00    -0.312 NA
ATOM     10  H     1             5.236  -2.886  -7.373  0.00  0.00     0.123 HD
ATOM     11  H     1             4.523  -3.709  -6.138  0.00  0.00     0.123 HD
ENDBRANCH   1   9
TORSDOF 2
