REMARK  1 active torsions:
REMARK  status: ('A' for Active; 'I' for Inactive)
REMARK    1  A    between atoms: C3_3  and  C7_8 
ROOT
ATOM      1  C7  <0> d          -0.068   5.349   0.029  0.00  0.00     0.038 C 
ATOM      2  C8  <0> d          -0.087   5.845  -1.356  0.00  0.00     0.063 C 
ATOM      3  N1  <0> d          -0.103   6.229  -2.426  0.00  0.00    -0.197 NA
ATOM      4  H5  <0> d          -0.957   5.699   0.553  0.00  0.00     0.062 H 
ATOM      5  H6  <0> d           0.822   5.721   0.536  0.00  0.00     0.062 H 
ENDROOT
BRANCH   1   6
ATOM      6  C3  <0> d          -0.050   3.842   0.022  0.00  0.00    -0.042 A 
ATOM      7  C2  <0> d           1.156   3.166   0.008  0.00  0.00    -0.076 A 
ATOM      8  C1  <0> d           1.174   1.783   0.000  0.00  0.00    -0.080 A 
ATOM      9  H2  <0> d           2.084   3.718   0.001  0.00  0.00     0.084 H 
ATOM     10  C6  <0> d          -0.013   1.076   0.008  0.00  0.00    -0.046 A 
ATOM     11  H1  <0> d           2.117   1.256  -0.011  0.00  0.00     0.083 H 
ATOM     12  C5  <0> d          -1.221   1.752   0.017  0.00  0.00     0.117 A 
ATOM     13  H4  <0> d           0.002  -0.004   0.002  0.00  0.00     0.088 H 
ATOM     14  C4  <0> d          -1.238   3.136   0.030  0.00  0.00    -0.039 A 
ATOM     15  F1  <0> d          -2.382   1.062   0.019  0.00  0.00    -0.206 F 
ATOM     16  H3  <0> d          -2.180   3.665   0.042  0.00  0.00     0.089 H 
ENDBRANCH   1   6
TORSDOF 1
