REMARK  4 active torsions:
REMARK  status: ('A' for Active; 'I' for Inactive)
REMARK    1  A    between atoms: C1_1  and  C2_2 
REMARK    2  A    between atoms: C4_5  and  C7_10 
REMARK    3  A    between atoms: C4_5  and  C8_11 
REMARK    4  A    between atoms: C5_7  and  C6_9 
ROOT
ATOM      1  C2  <0> d          -0.327  -2.022  -1.199  0.00  0.00     0.045 C 
ATOM      2  H1  <0> d          -1.397  -2.153  -1.035  0.00  0.00     0.083 H 
ATOM      3  C3  <0> d           0.459  -2.701  -0.068  0.00  0.00    -0.016 C 
ATOM      4  C4  <0> d           0.029  -2.065   1.258  0.00  0.00     0.051 C 
ATOM      5  N1  <0> d           0.021  -0.610   1.127  0.00  0.00    -0.261 NA
ATOM      6  C5  <0> d           0.002  -0.004   0.002  0.00  0.00     0.132 C 
ATOM      7  O1  <0> d          -0.006  -0.629  -1.188  0.00  0.00    -0.333 OA
ATOM      8  H5  <0> d           1.528  -2.550  -0.220  0.00  0.00     0.040 H 
ATOM      9  H6  <0> d           0.236  -3.768  -0.054  0.00  0.00     0.040 H 
ENDROOT
BRANCH   4  10
ATOM     10  C7  <0> d           1.011  -2.471   2.359  0.00  0.00    -0.051 C 
ATOM     11  H10 <0> d           0.703  -2.022   3.303  0.00  0.00     0.030 H 
ATOM     12  H11 <0> d           1.018  -3.557   2.457  0.00  0.00     0.030 H 
ATOM     13  H12 <0> d           2.011  -2.123   2.100  0.00  0.00     0.030 H 
ENDBRANCH   4  10
BRANCH   4  14
ATOM     14  C8  <0> d          -1.375  -2.551   1.623  0.00  0.00    -0.051 C 
ATOM     15  H13 <0> d          -2.075  -2.260   0.839  0.00  0.00     0.030 H 
ATOM     16  H14 <0> d          -1.369  -3.637   1.720  0.00  0.00     0.030 H 
ATOM     17  H15 <0> d          -1.680  -2.103   2.568  0.00  0.00     0.030 H 
ENDBRANCH   4  14
BRANCH   1  18
ATOM     18  C1  <0> d           0.068  -2.635  -2.545  0.00  0.00    -0.052 C 
ATOM     19  H2  <0> d          -0.158  -3.701  -2.538  0.00  0.00     0.030 H 
ATOM     20  H3  <0> d          -0.493  -2.150  -3.344  0.00  0.00     0.030 H 
ATOM     21  H4  <0> d           1.135  -2.490  -2.710  0.00  0.00     0.030 H 
ENDBRANCH   1  18
BRANCH   6  22
ATOM     22  C6  <0> d          -0.018   1.503   0.010  0.00  0.00    -0.016 C 
ATOM     23  H7  <0> d           1.004   1.880   0.003  0.00  0.00     0.038 H 
ATOM     24  H8  <0> d          -0.545   1.864  -0.873  0.00  0.00     0.038 H 
ATOM     25  H9  <0> d          -0.529   1.854   0.907  0.00  0.00     0.038 H 
ENDBRANCH   6  22
TORSDOF 4
