REMARK  5 active torsions:
REMARK  status: ('A' for Active; 'I' for Inactive)
REMARK    1  A    between atoms: C1_1  and  C2_2 
REMARK    2  A    between atoms: C2_2  and  C3_3 
REMARK    3  A    between atoms: C3_3  and  C7_10 
REMARK    4  A    between atoms: C5_5  and  C6_7 
REMARK       I    between atoms: C6_7  and  N1_9 
REMARK    5  A    between atoms: C7_10  and  C8_11 
ROOT
ATOM      1  C3  <0> d           1.005  -0.714  -1.338  0.00  0.00    -0.028 A 
ATOM      2  C4  <0> d           1.932  -1.848  -1.778  0.00  0.00    -0.045 A 
ATOM      3  C5  <0> d           0.414  -2.044  -1.808  0.00  0.00     0.031 A 
ATOM      4  H1  <0> d          -0.071  -2.062  -2.784  0.00  0.00     0.055 H 
ATOM      5  H7  <0> d           2.444  -1.737  -2.734  0.00  0.00     0.035 H 
ATOM      6  H8  <0> d           2.493  -2.370  -1.003  0.00  0.00     0.035 H 
ENDROOT
BRANCH   1   7
ATOM      7  C2  <0> d           0.935  -0.399   0.158  0.00  0.00    -0.061 C 
ATOM      8  H5  <0> d           1.133  -1.306   0.730  0.00  0.00     0.033 H 
ATOM      9  H6  <0> d          -0.059  -0.024   0.404  0.00  0.00     0.033 H 
BRANCH   7  10
ATOM     10  C1  <0> d           1.981   0.661   0.506  0.00  0.00    -0.076 C 
ATOM     11  H2  <0> d           2.970   0.304   0.218  0.00  0.00     0.027 H 
ATOM     12  H3  <0> d           1.757   1.583  -0.032  0.00  0.00     0.027 H 
ATOM     13  H4  <0> d           1.962   0.853   1.579  0.00  0.00     0.027 H 
ENDBRANCH   7  10
ENDBRANCH   1   7
BRANCH   1  14
ATOM     14  C7  <0> d           0.868   0.490  -2.272  0.00  0.00    -0.061 C 
ATOM     15  H11 <0> d           1.607   1.245  -2.003  0.00  0.00     0.033 H 
ATOM     16  H12 <0> d           1.033   0.171  -3.301  0.00  0.00     0.033 H 
BRANCH  14  17
ATOM     17  C8  <0> d          -0.537   1.081  -2.140  0.00  0.00    -0.076 C 
ATOM     18  H13 <0> d          -0.704   1.395  -1.110  0.00  0.00     0.027 H 
ATOM     19  H14 <0> d          -0.633   1.941  -2.802  0.00  0.00     0.027 H 
ATOM     20  H15 <0> d          -1.275   0.327  -2.414  0.00  0.00     0.027 H 
ENDBRANCH  14  17
ENDBRANCH   1  14
BRANCH   3  21
ATOM     21  C6  <0> d          -0.192  -2.945  -0.763  0.00  0.00     0.220 C 
ATOM     22  O1  <0> d          -0.580  -2.479   0.287  0.00  0.00    -0.273 OA
ATOM     23  N1  <0> d          -0.303  -4.268  -0.996  0.00  0.00    -0.370 N 
ATOM     24  H9  <0> d           0.007  -4.640  -1.836  0.00  0.00     0.159 HD
ATOM     25  H10 <0> d          -0.694  -4.848  -0.323  0.00  0.00     0.159 HD
ENDBRANCH   3  21
TORSDOF 5
