REMARK  9 active torsions:
REMARK  status: ('A' for Active; 'I' for Inactive)
REMARK    1  A    between atoms: C1_1  and  C2_2 
REMARK    2  A    between atoms: C2_2  and  C3_3 
REMARK    3  A    between atoms: C4_4  and  C5_5 
REMARK    4  A    between atoms: C5_5  and  C6_6 
REMARK    5  A    between atoms: C6_6  and  C7_7 
REMARK    6  A    between atoms: C7_7  and  C8_8 
REMARK    7  A    between atoms: C8_8  and  C9_9 
REMARK    8  A    between atoms: C9_9  and  C10_10 
REMARK    9  A    between atoms: C10_10  and  O1_11 
ROOT
ATOM      1  C6  <0> d          -1.366   3.006   1.206  0.00  0.00    -0.062 C 
ATOM      2  H10 <0> d          -1.257   2.445   2.134  0.00  0.00     0.033 H 
ATOM      3  H11 <0> d          -0.550   3.723   1.117  0.00  0.00     0.033 H 
ENDROOT
BRANCH   1   4
ATOM      4  C5  <0> d          -1.331   2.042   0.019  0.00  0.00    -0.050 C 
ATOM      5  H8  <0> d          -1.440   2.603  -0.908  0.00  0.00     0.038 H 
ATOM      6  H9  <0> d          -2.147   1.325   0.109  0.00  0.00     0.038 H 
BRANCH   4   7
ATOM      7  C4  <0> d          -0.016   1.306   0.009  0.00  0.00    -0.107 C 
ATOM      8  C3  <0> d           0.002  -0.004   0.002  0.00  0.00    -0.107 C 
ATOM      9  H6  <0> d          -0.926  -0.557   0.008  0.00  0.00     0.076 H 
ATOM     10  H7  <0> d           0.912   1.859   0.003  0.00  0.00     0.076 H 
BRANCH   8  11
ATOM     11  C2  <0> d           1.317  -0.740  -0.015  0.00  0.00    -0.053 C 
ATOM     12  H4  <0> d           1.413  -1.291  -0.950  0.00  0.00     0.038 H 
ATOM     13  H5  <0> d           2.135  -0.024   0.071  0.00  0.00     0.038 H 
BRANCH  11  14
ATOM     14  C1  <0> d           1.370  -1.717   1.161  0.00  0.00    -0.073 C 
ATOM     15  H1  <0> d           2.321  -2.249   1.149  0.00  0.00     0.027 H 
ATOM     16  H2  <0> d           1.274  -1.166   2.097  0.00  0.00     0.027 H 
ATOM     17  H3  <0> d           0.552  -2.433   1.076  0.00  0.00     0.027 H 
ENDBRANCH  11  14
ENDBRANCH   8  11
ENDBRANCH   4   7
ENDBRANCH   1   4
BRANCH   1  18
ATOM     18  C7  <0> d          -2.702   3.753   1.217  0.00  0.00    -0.065 C 
ATOM     19  H12 <0> d          -2.811   4.314   0.289  0.00  0.00     0.033 H 
ATOM     20  H13 <0> d          -3.518   3.036   1.306  0.00  0.00     0.033 H 
BRANCH  18  21
ATOM     21  C8  <0> d          -2.737   4.718   2.404  0.00  0.00    -0.063 C 
ATOM     22  H14 <0> d          -2.628   4.156   3.332  0.00  0.00     0.033 H 
ATOM     23  H15 <0> d          -1.921   5.434   2.314  0.00  0.00     0.033 H 
BRANCH  21  24
ATOM     24  C9  <0> d          -4.072   5.465   2.414  0.00  0.00    -0.045 C 
ATOM     25  H16 <0> d          -4.182   6.026   1.486  0.00  0.00     0.036 H 
ATOM     26  H17 <0> d          -4.889   4.748   2.504  0.00  0.00     0.036 H 
BRANCH  24  27
ATOM     27  C10 <0> d          -4.108   6.429   3.601  0.00  0.00     0.017 C 
ATOM     28  H18 <0> d          -3.999   5.868   4.529  0.00  0.00     0.073 H 
ATOM     29  H19 <0> d          -3.292   7.146   3.512  0.00  0.00     0.073 H 
BRANCH  27  30
ATOM     30  O1  <0> d          -5.355   7.127   3.611  0.00  0.00    -0.401 OA
ATOM     31  H20 <0> d          -5.448   7.757   4.339  0.00  0.00     0.209 HD
ENDBRANCH  27  30
ENDBRANCH  24  27
ENDBRANCH  21  24
ENDBRANCH  18  21
ENDBRANCH   1  18
TORSDOF 9
