REMARK  1 active torsions:
REMARK  status: ('A' for Active; 'I' for Inactive)
REMARK    1  A    between atoms: C1_1  and  N1_2 
ROOT
ATOM      1  N1  <0> d          -1.133   1.842   0.017  0.00  0.00    -0.359 N 
ATOM      2  C2  <0> d          -0.013   1.076   0.008  0.00  0.00     0.001 A 
ATOM      3  C3  <0> d           1.091   1.875   0.002  0.00  0.00     0.072 A 
ATOM      4  C4  <0> d           0.602   3.266   0.014  0.00  0.00     0.013 A 
ATOM      5  C5  <0> d          -0.800   3.180   0.027  0.00  0.00     0.045 A 
ATOM      6  C6  <0> d          -1.555   4.349   0.040  0.00  0.00    -0.056 A 
ATOM      7  C7  <0> d          -0.924   5.574   0.041  0.00  0.00    -0.081 A 
ATOM      8  C8  <0> d           0.460   5.657   0.028  0.00  0.00    -0.082 A 
ATOM      9  C9  <0> d           1.225   4.511   0.015  0.00  0.00    -0.069 A 
ATOM     10  C10 <0> d           2.458   1.448  -0.014  0.00  0.00     0.102 C 
ATOM     11  N2  <0> d           3.542   1.110  -0.026  0.00  0.00    -0.191 NA
ATOM     12  H4  <0> d           0.002  -0.004   0.002  0.00  0.00     0.114 H 
ATOM     13  H5  <0> d          -2.633   4.296   0.051  0.00  0.00     0.087 H 
ATOM     14  H6  <0> d          -1.514   6.479   0.052  0.00  0.00     0.083 H 
ATOM     15  H7  <0> d           0.941   6.624   0.029  0.00  0.00     0.083 H 
ATOM     16  H8  <0> d           2.303   4.578   0.004  0.00  0.00     0.085 H 
ENDROOT
BRANCH   1  17
ATOM     17  C1  <0> d          -2.502   1.320   0.020  0.00  0.00    -0.014 C 
ATOM     18  H1  <0> d          -2.838   1.186   1.048  0.00  0.00     0.057 H 
ATOM     19  H2  <0> d          -3.161   2.025  -0.488  0.00  0.00     0.057 H 
ATOM     20  H3  <0> d          -2.527   0.362  -0.499  0.00  0.00     0.057 H 
ENDBRANCH   1  17
TORSDOF 1
