REMARK  4 active torsions:
REMARK  status: ('A' for Active; 'I' for Inactive)
REMARK    1  A    between atoms: C4_4  and  C7_7 
REMARK    2  A    between atoms: C7_7  and  C8_9 
REMARK    3  A    between atoms: C8_9  and  C9_10 
REMARK    4  A    between atoms: C9_10  and  O2_11 
ROOT
ATOM      1  C1  <0> d          -0.056   4.237   0.025  0.00  0.00    -0.083 A 
ATOM      2  C2  <0> d           1.154   3.565   0.010  0.00  0.00    -0.082 A 
ATOM      3  C3  <0> d           1.181   2.187   0.003  0.00  0.00    -0.070 A 
ATOM      4  C4  <0> d          -0.018   1.467   0.010  0.00  0.00     0.010 A 
ATOM      5  C5  <0> d          -1.236   2.154   0.020  0.00  0.00    -0.070 A 
ATOM      6  C6  <0> d          -1.247   3.533   0.032  0.00  0.00    -0.082 A 
ATOM      7  H1  <0> d          -0.070   5.317   0.031  0.00  0.00     0.083 H 
ATOM      8  H2  <0> d           2.080   4.122   0.004  0.00  0.00     0.083 H 
ATOM      9  H3  <0> d           2.126   1.664  -0.009  0.00  0.00     0.085 H 
ATOM     10  H4  <0> d          -2.167   1.605   0.021  0.00  0.00     0.085 H 
ATOM     11  H5  <0> d          -2.187   4.064   0.043  0.00  0.00     0.083 H 
ENDROOT
BRANCH   4  12
ATOM     12  C7  <0> d           0.002  -0.004   0.002  0.00  0.00     0.161 C 
ATOM     13  O1  <0> d           1.060  -0.596  -0.011  0.00  0.00    -0.292 OA
BRANCH  12  14
ATOM     14  C8  <0> d          -1.293  -0.775   0.010  0.00  0.00     0.014 C 
ATOM     15  H6  <0> d          -1.812  -0.545   0.833  0.00  0.00     0.048 H 
ATOM     16  H7  <0> d          -1.876  -0.515  -0.873  0.00  0.00     0.048 H 
BRANCH  14  17
ATOM     17  C9  <0> d          -0.993  -2.276  -0.001  0.00  0.00     0.023 C 
ATOM     18  H8  <0> d          -0.426  -2.526  -0.897  0.00  0.00     0.074 H 
ATOM     19  H9  <0> d          -0.409  -2.536   0.882  0.00  0.00     0.074 H 
BRANCH  17  20
ATOM     20  O2  <0> d          -2.220  -3.007   0.007  0.00  0.00    -0.400 OA
ATOM     21  H10 <0> d          -2.106  -3.967   0.001  0.00  0.00     0.209 HD
ENDBRANCH  17  20
ENDBRANCH  14  17
ENDBRANCH  12  14
ENDBRANCH   4  12
TORSDOF 4
