REMARK  1 active torsions:
REMARK  status: ('A' for Active; 'I' for Inactive)
REMARK    1  A    between atoms: C1_1  and  C2_2 
ROOT
ATOM      1  C2  <0> d           0.915  -2.109  -0.018  0.00  0.00    -0.034 A 
ATOM      2  C3  <0> d          -0.423  -2.211  -0.006  0.00  0.00    -0.016 A 
ATOM      3  N1  <0> d          -0.986  -0.965   0.006  0.00  0.00    -0.365 N 
ATOM      4  H1  <0> d          -1.939  -0.784   0.017  0.00  0.00     0.165 HD
ATOM      5  C4  <0> d           0.002  -0.004   0.002  0.00  0.00     0.043 A 
ATOM      6  C5  <0> d           1.236  -0.679  -0.013  0.00  0.00     0.001 A 
ATOM      7  C6  <0> d           2.428   0.047  -0.021  0.00  0.00    -0.033 A 
ATOM      8  C7  <0> d           2.387   1.425  -0.013  0.00  0.00     0.117 A 
ATOM      9  C8  <0> d           1.167   2.090   0.002  0.00  0.00    -0.043 A 
ATOM     10  C9  <0> d          -0.017   1.386   0.010  0.00  0.00    -0.053 A 
ATOM     11  F1  <0> d           3.539   2.131  -0.021  0.00  0.00    -0.206 F 
ATOM     12  H5  <0> d          -0.974  -3.140  -0.006  0.00  0.00     0.112 H 
ATOM     13  H6  <0> d           3.378  -0.468  -0.033  0.00  0.00     0.089 H 
ATOM     14  H7  <0> d           1.147   3.170   0.008  0.00  0.00     0.088 H 
ATOM     15  H8  <0> d          -0.959   1.914   0.017  0.00  0.00     0.087 H 
ENDROOT
BRANCH   1  16
ATOM     16  C1  <0> d           1.901  -3.248  -0.033  0.00  0.00    -0.049 C 
ATOM     17  H2  <0> d           2.148  -3.529   0.991  0.00  0.00     0.033 H 
ATOM     18  H3  <0> d           1.462  -4.103  -0.547  0.00  0.00     0.033 H 
ATOM     19  H4  <0> d           2.808  -2.938  -0.553  0.00  0.00     0.033 H 
ENDBRANCH   1  16
TORSDOF 1
