REMARK  4 active torsions:
REMARK  status: ('A' for Active; 'I' for Inactive)
REMARK    1  A    between atoms: C1_1  and  C2_2 
REMARK    2  A    between atoms: C5_5  and  C9_10 
REMARK    3  A    between atoms: C6_6  and  C8_8 
REMARK    4  A    between atoms: C8_8  and  O1_9 
ROOT
ATOM      1  C2  <0> d          -1.238   3.133   0.030  0.00  0.00    -0.061 A 
ATOM      2  C3  <0> d          -1.219   1.750   0.017  0.00  0.00    -0.077 A 
ATOM      3  C4  <0> d          -0.013   1.076   0.008  0.00  0.00    -0.076 A 
ATOM      4  C5  <0> d           1.175   1.783   0.000  0.00  0.00    -0.054 A 
ATOM      5  C6  <0> d           1.157   3.165   0.008  0.00  0.00    -0.028 A 
ATOM      6  C7  <0> d          -0.050   3.840   0.022  0.00  0.00    -0.069 A 
ATOM      7  H4  <0> d          -2.147   1.198   0.019  0.00  0.00     0.084 H 
ATOM      8  H5  <0> d           0.002  -0.004   0.002  0.00  0.00     0.084 H 
ATOM      9  H6  <0> d          -0.065   4.920   0.028  0.00  0.00     0.085 H 
ENDROOT
BRANCH   5  10
ATOM     10  C8  <0> d           2.451   3.937  -0.001  0.00  0.00     0.041 C 
ATOM     11  H7  <0> d           3.035   3.676   0.882  0.00  0.00     0.081 H 
ATOM     12  H8  <0> d           3.018   3.686  -0.898  0.00  0.00     0.081 H 
BRANCH  10  13
ATOM     13  O1  <0> d           2.171   5.338   0.009  0.00  0.00    -0.396 OA
ATOM     14  H9  <0> d           2.960   5.897   0.004  0.00  0.00     0.209 HD
ENDBRANCH  10  13
ENDBRANCH   5  10
BRANCH   4  15
ATOM     15  C9  <0> d           2.490   1.048  -0.016  0.00  0.00    -0.051 C 
ATOM     16  H10 <0> d           2.798   0.876  -1.048  0.00  0.00     0.033 H 
ATOM     17  H11 <0> d           3.247   1.644   0.494  0.00  0.00     0.033 H 
ATOM     18  H12 <0> d           2.378   0.091   0.494  0.00  0.00     0.033 H 
ENDBRANCH   4  15
BRANCH   1  19
ATOM     19  C1  <0> d          -2.553   3.869   0.045  0.00  0.00    -0.051 C 
ATOM     20  H1  <0> d          -2.879   4.051  -0.979  0.00  0.00     0.033 H 
ATOM     21  H2  <0> d          -3.300   3.267   0.563  0.00  0.00     0.033 H 
ATOM     22  H3  <0> d          -2.431   4.820   0.563  0.00  0.00     0.033 H 
ENDBRANCH   1  19
TORSDOF 4
