REMARK  2 active torsions:
REMARK  status: ('A' for Active; 'I' for Inactive)
REMARK    1  A    between atoms: C1_1  and  C2_2 
REMARK    2  A    between atoms: C2_2  and  C9_11 
REMARK       I    between atoms: C9_11  and  N1_13 
ROOT
ATOM      1  C2  <0> d          -0.877   3.189   0.801  0.00  0.00     0.044 C 
ATOM      2  C3  <0> d          -0.890   3.197  -0.747  0.00  0.00    -0.043 C 
ATOM      3  C4  <0> d          -0.926   1.682  -1.125  0.00  0.00    -0.036 C 
ATOM      4  H1  <0> d          -0.657   1.434  -2.151  0.00  0.00     0.046 H 
ATOM      5  C5  <0> d          -0.013   1.086   0.008  0.00  0.00    -0.051 C 
ATOM      6  C6  <0> d          -0.904   1.670   1.164  0.00  0.00    -0.022 C 
ATOM      7  H2  <0> d          -0.615   1.411   2.183  0.00  0.00     0.048 H 
ATOM      8  C7  <0> d          -2.285   1.200   0.692  0.00  0.00    -0.101 C 
ATOM      9  C8  <0> d          -2.298   1.207  -0.631  0.00  0.00    -0.102 C 
ATOM     10  H6  <0> d           0.013   3.668  -1.136  0.00  0.00     0.035 H 
ATOM     11  H7  <0> d          -1.779   3.706  -1.120  0.00  0.00     0.035 H 
ATOM     12  H8  <0> d           0.002  -0.004   0.002  0.00  0.00     0.035 H 
ATOM     13  H9  <0> d           0.992   1.509   0.001  0.00  0.00     0.035 H 
ATOM     14  H10 <0> d          -3.107   0.912   1.330  0.00  0.00     0.077 H 
ATOM     15  H11 <0> d          -3.132   0.926  -1.257  0.00  0.00     0.076 H 
ENDROOT
BRANCH   1  16
ATOM     16  C1  <0> d           0.398   3.847   1.331  0.00  0.00    -0.060 C 
ATOM     17  H3  <0> d           0.434   4.886   1.005  0.00  0.00     0.029 H 
ATOM     18  H4  <0> d           0.401   3.808   2.421  0.00  0.00     0.029 H 
ATOM     19  H5  <0> d           1.269   3.315   0.947  0.00  0.00     0.029 H 
ENDBRANCH   1  16
BRANCH   1  20
ATOM     20  C9  <0> d          -2.097   3.887   1.345  0.00  0.00     0.224 C 
ATOM     21  O1  <0> d          -2.889   3.277   2.031  0.00  0.00    -0.273 OA
ATOM     22  N1  <0> d          -2.308   5.189   1.068  0.00  0.00    -0.369 N 
ATOM     23  H12 <0> d          -1.674   5.677   0.519  0.00  0.00     0.159 HD
ATOM     24  H13 <0> d          -3.093   5.638   1.419  0.00  0.00     0.159 HD
ENDBRANCH   1  20
TORSDOF 2
