REMARK  0 active torsions:
REMARK  status: ('A' for Active; 'I' for Inactive)
ROOT
ATOM      1  C1  <0> d           3.204   3.085  -0.013  0.00  0.00    -0.066 A 
ATOM      2  C2  <0> d           4.021   1.942  -0.027  0.00  0.00    -0.057 A 
ATOM      3  C3  <0> d           3.452   0.705  -0.028  0.00  0.00     0.082 A 
ATOM      4  C4  <0> d           2.047   0.595  -0.014  0.00  0.00     0.179 A 
ATOM      5  N1  <0> d           1.215  -0.434  -0.012  0.00  0.00    -0.129 NA
ATOM      6  N2  <0> d           0.002  -0.004   0.002  0.00  0.00    -0.143 NA
ATOM      7  C5  <0> d          -0.016   1.304   0.009  0.00  0.00     0.093 A 
ATOM      8  N3  <0> d           1.276   1.731  -0.001  0.00  0.00    -0.297 N 
ATOM      9  C6  <0> d           1.861   2.963  -0.000  0.00  0.00    -0.012 A 
ATOM     10 Cl1  <0> d           4.445  -0.719  -0.044  0.00  0.00    -0.080 Cl
ATOM     11  H1  <0> d           3.655   4.067  -0.013  0.00  0.00     0.085 H 
ATOM     12  H2  <0> d           5.096   2.043  -0.037  0.00  0.00     0.086 H 
ATOM     13  H3  <0> d          -0.895   1.931   0.017  0.00  0.00     0.147 H 
ATOM     14  H4  <0> d           1.243   3.849   0.011  0.00  0.00     0.112 H 
ENDROOT
TORSDOF 0
