REMARK  4 active torsions:
REMARK  status: ('A' for Active; 'I' for Inactive)
REMARK    1  A    between atoms: C1_1  and  C2_2 
REMARK    2  A    between atoms: C1_1  and  O2_4 
REMARK    3  A    between atoms: O2_4  and  C3_5 
REMARK    4  A    between atoms: C3_5  and  C4_6 
ROOT
ATOM      1  O2  <0> d           2.600   3.518  -0.004  0.00  0.00    -0.372 OA
ENDROOT
BRANCH   1   2
ATOM      2  C1  <0> d           1.235   3.094   0.007  0.00  0.00     0.099 C 
ATOM      3  H1  <0> d           0.727   3.482  -0.876  0.00  0.00     0.091 H 
ATOM      4  H2  <0> d           0.744   3.473   0.904  0.00  0.00     0.091 H 
BRANCH   2   5
ATOM      5  C2  <0> d           1.177   1.588  -0.001  0.00  0.00     0.197 C 
ATOM      6  O1  <0> d           2.199   0.944  -0.014  0.00  0.00    -0.646 OA
ATOM      7  O3  <0> d          -0.011   0.963   0.007  0.00  0.00    -0.646 OA
ENDBRANCH   2   5
ENDBRANCH   1   2
BRANCH   1   8
ATOM      8  C3  <0> d           2.768   4.937   0.002  0.00  0.00     0.110 C 
ATOM      9  H3  <0> d           2.292   5.363  -0.881  0.00  0.00     0.088 H 
ATOM     10  H4  <0> d           2.309   5.354   0.899  0.00  0.00     0.088 H 
BRANCH   8  11
ATOM     11  C4  <0> d           4.260   5.274  -0.010  0.00  0.00     0.408 C 
ATOM     12  F1  <0> d           4.849   4.740  -1.161  0.00  0.00    -0.169 F 
ATOM     13  F2  <0> d           4.425   6.663  -0.004  0.00  0.00    -0.169 F 
ATOM     14  F3  <0> d           4.871   4.727   1.123  0.00  0.00    -0.169 F 
ENDBRANCH   8  11
ENDBRANCH   1   8
TORSDOF 4
