REMARK  2 active torsions:
REMARK  status: ('A' for Active; 'I' for Inactive)
REMARK    1  A    between atoms: C3_4  and  C4_7 
REMARK    2  A    between atoms: C4_7  and  O1_8 
ROOT
ATOM      1  C1  <0> d           0.293   5.077   0.027  0.00  0.00    -0.005 A 
ATOM      2  C2  <0> d           1.637   5.164   0.015  0.00  0.00     0.019 A 
ATOM      3  N1  <0> d           2.133   3.918   0.008  0.00  0.00    -0.244 NA
ATOM      4  C3  <0> d           1.147   3.062   0.008  0.00  0.00     0.127 A 
ATOM      5  N2  <0> d          -0.018   3.744   0.022  0.00  0.00    -0.351 N 
ATOM      6  H1  <0> d          -0.937   3.349   0.028  0.00  0.00     0.166 HD
ATOM      7  H2  <0> d          -0.405   5.901   0.038  0.00  0.00     0.113 H 
ATOM      8  H3  <0> d           2.214   6.077   0.015  0.00  0.00     0.117 H 
ENDROOT
BRANCH   4   9
ATOM      9  C4  <0> d           1.286   1.562  -0.002  0.00  0.00     0.071 C 
ATOM     10  H4  <0> d           1.840   1.243   0.881  0.00  0.00     0.086 H 
ATOM     11  H5  <0> d           1.823   1.252  -0.899  0.00  0.00     0.086 H 
BRANCH   9  12
ATOM     12  O1  <0> d          -0.011   0.963   0.007  0.00  0.00    -0.393 OA
ATOM     13  H6  <0> d           0.002  -0.004   0.002  0.00  0.00     0.209 HD
ENDBRANCH   9  12
ENDBRANCH   4   9
TORSDOF 2
