REMARK  3 active torsions:
REMARK  status: ('A' for Active; 'I' for Inactive)
REMARK    1  A    between atoms: C1_1  and  C2_2 
REMARK    2  A    between atoms: C1_1  and  N1_4 
REMARK    3  A    between atoms: C2_2  and  O1_3 
REMARK       I    between atoms: N1_4  and  C3_5 
REMARK       I    between atoms: C3_5  and  N2_7 
ROOT
ATOM      1  C1  <0> d           1.145   3.085   0.008  0.00  0.00     0.016 C 
ATOM      2  H1  <0> d           2.130   3.542  -0.089  0.00  0.00     0.067 H 
ATOM      3  H2  <0> d           0.516   3.397  -0.827  0.00  0.00     0.067 H 
ENDROOT
BRANCH   1   4
ATOM      4  C2  <0> d           1.286   1.562  -0.002  0.00  0.00     0.031 C 
ATOM      5  H3  <0> d           1.840   1.243   0.881  0.00  0.00     0.076 H 
ATOM      6  H4  <0> d           1.823   1.252  -0.899  0.00  0.00     0.076 H 
BRANCH   4   7
ATOM      7  O1  <0> d          -0.011   0.963   0.007  0.00  0.00    -0.399 OA
ATOM      8  H5  <0> d           0.002  -0.004   0.002  0.00  0.00     0.209 HD
ENDBRANCH   4   7
ENDBRANCH   1   4
BRANCH   1   9
ATOM      9  N1  <0> d           0.530   3.511   1.268  0.00  0.00    -0.341 N 
ATOM     10  C3  <0> d           0.306   4.819   1.500  0.00  0.00     0.313 C 
ATOM     11  O2  <0> d           0.614   5.647   0.664  0.00  0.00    -0.248 OA
ATOM     12  N2  <0> d          -0.259   5.211   2.659  0.00  0.00    -0.352 N 
ATOM     13  H7  <0> d          -0.504   4.551   3.326  0.00  0.00     0.160 HD
ATOM     14  H8  <0> d          -0.420   6.152   2.827  0.00  0.00     0.160 HD
ATOM     15  H6  <0> d           0.285   2.851   1.935  0.00  0.00     0.164 HD
ENDBRANCH   1   9
TORSDOF 3
