REMARK  2 active torsions:
REMARK  status: ('A' for Active; 'I' for Inactive)
REMARK    1  A    between atoms: C1_1  and  C2_2 
REMARK    2  A    between atoms: C7_7  and  O1_8 
ROOT
ATOM      1  C2  <0> d           1.177   1.781   0.000  0.00  0.00    -0.029 A 
ATOM      2  C3  <0> d          -0.013   1.076   0.008  0.00  0.00    -0.073 A 
ATOM      3  C4  <0> d          -1.218   1.747   0.017  0.00  0.00    -0.062 A 
ATOM      4  C5  <0> d          -1.238   3.143   0.030  0.00  0.00     0.047 A 
ATOM      5  C6  <0> d          -0.037   3.854   0.023  0.00  0.00    -0.030 A 
ATOM      6  C7  <0> d           1.167   3.169   0.007  0.00  0.00     0.073 A 
ATOM      7  C8  <0> d          -2.487   3.844   0.046  0.00  0.00     0.099 C 
ATOM      8  N1  <0> d          -3.478   4.399   0.058  0.00  0.00    -0.191 NA
ATOM      9  H4  <0> d           0.002  -0.004   0.002  0.00  0.00     0.084 H 
ATOM     10  H5  <0> d          -2.145   1.193   0.019  0.00  0.00     0.085 H 
ATOM     11  H6  <0> d          -0.046   4.934   0.028  0.00  0.00     0.090 H 
ENDROOT
BRANCH   6  12
ATOM     12  O1  <0> d           2.339   3.857  -0.000  0.00  0.00    -0.360 OA
ATOM     13  H7  <0> d           2.331   4.957   0.006  0.00  0.00     0.217 HD
ENDBRANCH   6  12
BRANCH   1  14
ATOM     14  C1  <0> d           2.489   1.040  -0.016  0.00  0.00    -0.049 C 
ATOM     15  H1  <0> d           2.298  -0.043  -0.020  0.00  0.00     0.033 H 
ATOM     16  H2  <0> d           3.072   1.307   0.878  0.00  0.00     0.033 H 
ATOM     17  H3  <0> d           3.054   1.316  -0.918  0.00  0.00     0.033 H 
ENDBRANCH   1  14
TORSDOF 2
