REMARK  1 active torsions:
REMARK  status: ('A' for Active; 'I' for Inactive)
REMARK    1  A    between atoms: C4_6  and  N3_7 
ROOT
ATOM      1  C1  <0> d           3.136   2.404   1.137  0.00  0.00    -0.035 A 
ATOM      2  C2  <0> d           3.666   2.661  -0.118  0.00  0.00     0.024 A 
ATOM      3  N1  <0> d           2.978   2.354  -1.200  0.00  0.00    -0.185 NA
ATOM      4  N2  <0> d           1.814   1.817  -1.147  0.00  0.00    -0.253 N 
ATOM      5  C3  <0> d           1.222   1.532  -0.001  0.00  0.00     0.221 A 
ATOM      6  C4  <0> d           1.870   1.826   1.204  0.00  0.00     0.083 A 
ATOM      7  O1  <0> d          -0.011   0.963   0.007  0.00  0.00    -0.168 OA
ATOM      8  H1  <0> d           3.686   2.648   2.034  0.00  0.00     0.089 H 
ATOM      9  H2  <0> d           4.643   3.113  -0.209  0.00  0.00     0.117 H 
ATOM     10  H5  <0> d           1.276   1.577  -2.076  0.00  0.00     0.191 HD
ENDROOT
BRANCH   6  11
ATOM     11  N3  <0> d           1.272   1.544   2.432  0.00  0.00    -0.396 N 
ATOM     12  H3  <0> d           0.272   1.087   2.464  0.00  0.00     0.156 HD
ATOM     13  H4  <0> d           1.800   1.778   3.368  0.00  0.00     0.156 HD
ENDBRANCH   6  11
TORSDOF 1
