REMARK  4 active torsions:
REMARK  status: ('A' for Active; 'I' for Inactive)
REMARK    1  A    between atoms: C3_3  and  C4_4 
REMARK    2  A    between atoms: C4_4  and  C5_5 
REMARK    3  A    between atoms: C5_5  and  C6_6 
REMARK    4  A    between atoms: C6_6  and  O1_7 
ROOT
ATOM      1  C4  <0> d          -0.408  -0.709  -1.292  0.00  0.00    -0.060 C 
ATOM      2  H6  <0> d          -1.398  -0.366  -1.595  0.00  0.00     0.033 H 
ATOM      3  H7  <0> d           0.312  -0.477  -2.077  0.00  0.00     0.033 H 
ENDROOT
BRANCH   1   4
ATOM      4  C3  <0> d           0.002  -0.004   0.002  0.00  0.00    -0.054 A 
ATOM      5  C1  <0> d          -0.019   1.526   0.010  0.00  0.00    -0.061 A 
ATOM      6  C2  <0> d           1.317   0.779  -0.006  0.00  0.00    -0.061 A 
ATOM      7  H1  <0> d          -0.307   2.020   0.938  0.00  0.00     0.033 H 
ATOM      8  H2  <0> d          -0.325   2.030  -0.906  0.00  0.00     0.033 H 
ATOM      9  H3  <0> d           1.889   0.792  -0.934  0.00  0.00     0.033 H 
ATOM     10  H4  <0> d           1.906   0.782   0.910  0.00  0.00     0.033 H 
ATOM     11  H5  <0> d          -0.273  -0.516   0.924  0.00  0.00     0.040 H 
ENDBRANCH   1   4
BRANCH   1  12
ATOM     12  C5  <0> d          -0.442  -2.221  -1.061  0.00  0.00    -0.045 C 
ATOM     13  H8  <0> d           0.547  -2.564  -0.758  0.00  0.00     0.036 H 
ATOM     14  H9  <0> d          -1.163  -2.453  -0.277  0.00  0.00     0.036 H 
BRANCH  12  15
ATOM     15  C6  <0> d          -0.853  -2.926  -2.355  0.00  0.00     0.017 C 
ATOM     16  H10 <0> d          -1.842  -2.583  -2.658  0.00  0.00     0.073 H 
ATOM     17  H11 <0> d          -0.132  -2.695  -3.139  0.00  0.00     0.073 H 
BRANCH  15  18
ATOM     18  O1  <0> d          -0.884  -4.338  -2.139  0.00  0.00    -0.401 OA
ATOM     19  H12 <0> d          -1.137  -4.850  -2.920  0.00  0.00     0.209 HD
ENDBRANCH  15  18
ENDBRANCH  12  15
ENDBRANCH   1  12
TORSDOF 4
