REMARK  3 active torsions:
REMARK  status: ('A' for Active; 'I' for Inactive)
REMARK    1  A    between atoms: C1_1  and  C2_2 
REMARK    2  A    between atoms: C2_2  and  C9_13 
REMARK    3  A    between atoms: C7_9  and  O1_12 
ROOT
ATOM      1  C2  <0> d           0.002  -0.004   0.002  0.00  0.00    -0.038 C 
ATOM      2  C3  <0> d          -1.402  -0.614   0.348  0.00  0.00    -0.045 C 
ATOM      3  H1  <0> d          -2.210  -0.388  -0.349  0.00  0.00     0.041 H 
ATOM      4  C4  <0> d          -1.593  -0.091   1.804  0.00  0.00    -0.060 C 
ATOM      5  C5  <0> d          -0.168  -0.075   2.403  0.00  0.00    -0.058 C 
ATOM      6  C6  <0> d           0.750  -0.590   1.252  0.00  0.00    -0.022 C 
ATOM      7  H2  <0> d           1.808  -0.343   1.339  0.00  0.00     0.045 H 
ATOM      8  C7  <0> d           0.396  -2.102   1.117  0.00  0.00     0.040 C 
ATOM      9  H3  <0> d           0.402  -2.583   2.095  0.00  0.00     0.083 H 
ATOM     10  C8  <0> d          -1.033  -2.121   0.498  0.00  0.00    -0.037 C 
ATOM     11  H7  <0> d          -2.013   0.915   1.795  0.00  0.00     0.033 H 
ATOM     12  H8  <0> d          -2.235  -0.767   2.369  0.00  0.00     0.033 H 
ATOM     13  H9  <0> d           0.113   0.939   2.689  0.00  0.00     0.033 H 
ATOM     14  H10 <0> d          -0.109  -0.743   3.263  0.00  0.00     0.033 H 
ATOM     15  H11 <0> d          -1.725  -2.616   1.180  0.00  0.00     0.037 H 
ATOM     16  H12 <0> d          -1.040  -2.613  -0.475  0.00  0.00     0.037 H 
ENDROOT
BRANCH   1  17
ATOM     17  C1  <0> d          -0.019   1.526   0.010  0.00  0.00    -0.069 C 
ATOM     18  H4  <0> d           1.004   1.903   0.003  0.00  0.00     0.028 H 
ATOM     19  H5  <0> d          -0.546   1.887  -0.873  0.00  0.00     0.028 H 
ATOM     20  H6  <0> d          -0.529   1.877   0.907  0.00  0.00     0.028 H 
ENDBRANCH   1  17
BRANCH   1  21
ATOM     21  C9  <0> d           0.561  -0.555  -1.311  0.00  0.00    -0.069 C 
ATOM     22  H14 <0> d           1.586  -0.208  -1.444  0.00  0.00     0.028 H 
ATOM     23  H15 <0> d           0.548  -1.645  -1.283  0.00  0.00     0.028 H 
ATOM     24  H16 <0> d          -0.051  -0.206  -2.142  0.00  0.00     0.028 H 
ENDBRANCH   1  21
BRANCH   8  25
ATOM     25  O1  <0> d           1.315  -2.752   0.237  0.00  0.00    -0.395 OA
ATOM     26  H13 <0> d           1.143  -3.696   0.116  0.00  0.00     0.210 HD
ENDBRANCH   8  25
TORSDOF 3
