REMARK  1 active torsions:
REMARK  status: ('A' for Active; 'I' for Inactive)
REMARK    1  A    between atoms: C1_1  and  C2_2 
ROOT
ATOM      1  C2  <0> d           0.002  -0.004   0.002  0.00  0.00     0.057 C 
ATOM      2  H1  <0> d          -1.018  -0.409   0.072  0.00  0.00     0.086 H 
ATOM      3  C3  <0> d           0.726  -0.502  -1.257  0.00  0.00     0.017 C 
ATOM      4  N1  <0> d           0.767  -1.973  -1.194  0.00  0.00    -0.385 N 
ATOM      5  C4  <0> d           1.057  -2.568   0.044  0.00  0.00     0.061 A 
ATOM      6  C5  <0> d           1.382  -3.913   0.109  0.00  0.00    -0.055 A 
ATOM      7  C6  <0> d           1.660  -4.497   1.332  0.00  0.00    -0.081 A 
ATOM      8  C7  <0> d           1.614  -3.739   2.487  0.00  0.00    -0.080 A 
ATOM      9  C8  <0> d           1.291  -2.396   2.427  0.00  0.00    -0.049 A 
ATOM     10  C9  <0> d           1.012  -1.802   1.206  0.00  0.00     0.095 A 
ATOM     11  O1  <0> d           0.699  -0.480   1.156  0.00  0.00    -0.342 OA
ATOM     12  H5  <0> d           0.177  -0.171  -2.151  0.00  0.00     0.067 H 
ATOM     13  H6  <0> d           1.746  -0.091  -1.280  0.00  0.00     0.067 H 
ATOM     14  H7  <0> d           0.573  -2.568  -2.099  0.00  0.00     0.159 HD
ATOM     15  H8  <0> d           1.419  -4.506  -0.793  0.00  0.00     0.087 H 
ATOM     16  H9  <0> d           1.913  -5.545   1.384  0.00  0.00     0.083 H 
ATOM     17  H10 <0> d           1.831  -4.197   3.440  0.00  0.00     0.083 H 
ATOM     18  H11 <0> d           1.257  -1.808   3.333  0.00  0.00     0.087 H 
ENDROOT
BRANCH   1  19
ATOM     19  C1  <0> d          -0.019   1.526   0.010  0.00  0.00    -0.050 C 
ATOM     20  H2  <0> d          -0.555   1.890  -0.878  0.00  0.00     0.031 H 
ATOM     21  H3  <0> d           1.013   1.907  -0.002  0.00  0.00     0.031 H 
ATOM     22  H4  <0> d          -0.529   1.881   0.918  0.00  0.00     0.031 H 
ENDBRANCH   1  19
TORSDOF 1
