REMARK  6 active torsions:
REMARK  status: ('A' for Active; 'I' for Inactive)
REMARK    1  A    between atoms: C1_1  and  C2_2 
REMARK    2  A    between atoms: C2_2  and  C3_3 
REMARK    3  A    between atoms: C3_3  and  C4_4 
REMARK    4  A    between atoms: C5_5  and  C8_10 
REMARK    5  A    between atoms: N2_8  and  C7_9 
REMARK    6  A    between atoms: C8_10  and  C9_11 
ROOT
ATOM      1  C4  <0> d           1.066   1.671   3.076  0.00  0.00     0.037 A 
ATOM      2  C5  <0> d           0.000   1.080   2.488  0.00  0.00    -0.015 A 
ATOM      3  C6  <0> d          -0.309  -0.073   3.217  0.00  0.00     0.030 A 
ATOM      4  N1  <0> d           0.546  -0.176   4.201  0.00  0.00    -0.185 NA
ATOM      5  N2  <0> d           1.422   0.916   4.136  0.00  0.00    -0.278 N 
ATOM      6  H8  <0> d          -1.114  -0.761   3.002  0.00  0.00     0.118 H 
ENDROOT
BRANCH   1   7
ATOM      7  C3  <0> d           1.736   2.944   2.627  0.00  0.00    -0.025 C 
ATOM      8  H6  <0> d           1.002   3.591   2.146  0.00  0.00     0.042 H 
ATOM      9  H7  <0> d           2.160   3.456   3.491  0.00  0.00     0.042 H 
BRANCH   7  10
ATOM     10  C2  <0> d           2.850   2.611   1.633  0.00  0.00    -0.063 C 
ATOM     11  H4  <0> d           3.584   1.964   2.114  0.00  0.00     0.033 H 
ATOM     12  H5  <0> d           2.426   2.100   0.769  0.00  0.00     0.033 H 
BRANCH  10  13
ATOM     13  C1  <0> d           3.530   3.904   1.177  0.00  0.00    -0.076 C 
ATOM     14  H1  <0> d           2.796   4.551   0.697  0.00  0.00     0.027 H 
ATOM     15  H2  <0> d           3.954   4.415   2.041  0.00  0.00     0.027 H 
ATOM     16  H3  <0> d           4.324   3.667   0.469  0.00  0.00     0.027 H 
ENDBRANCH  10  13
ENDBRANCH   7  10
ENDBRANCH   1   7
BRANCH   5  17
ATOM     17  C7  <0> d           2.529   1.189   5.056  0.00  0.00     0.003 C 
ATOM     18  H9  <0> d           2.171   1.800   5.884  0.00  0.00     0.059 H 
ATOM     19  H10 <0> d           2.921   0.248   5.442  0.00  0.00     0.059 H 
ATOM     20  H11 <0> d           3.319   1.722   4.526  0.00  0.00     0.059 H 
ENDBRANCH   5  17
BRANCH   2  21
ATOM     21  C8  <0> d          -0.729   1.579   1.267  0.00  0.00    -0.041 C 
ATOM     22  H12 <0> d          -0.744   2.669   1.273  0.00  0.00     0.039 H 
ATOM     23  H13 <0> d          -1.751   1.202   1.275  0.00  0.00     0.039 H 
BRANCH  21  24
ATOM     24  C9  <0> d          -0.013   1.086   0.008  0.00  0.00    -0.072 C 
ATOM     25  H14 <0> d           0.002  -0.004   0.002  0.00  0.00     0.028 H 
ATOM     26  H15 <0> d           1.010   1.463   0.000  0.00  0.00     0.028 H 
ATOM     27  H16 <0> d          -0.540   1.447  -0.875  0.00  0.00     0.028 H 
ENDBRANCH  21  24
ENDBRANCH   2  21
TORSDOF 6
