REMARK  0 active torsions:
REMARK  status: ('A' for Active; 'I' for Inactive)
ROOT
ATOM      1  C1  <0> d          -0.016   1.300   0.009  0.00  0.00     0.067 A 
ATOM      2  N1  <0> d           1.247   1.784  -0.000  0.00  0.00    -0.345 N 
ATOM      3  H1  <0> d           1.506   2.719   0.003  0.00  0.00     0.167 HD
ATOM      4  C2  <0> d           2.099   0.700  -0.014  0.00  0.00     0.122 A 
ATOM      5  C3  <0> d           1.275  -0.443  -0.013  0.00  0.00     0.181 A 
ATOM      6  N2  <0> d           0.002  -0.004   0.002  0.00  0.00    -0.222 NA
ATOM      7  N3  <0> d           1.851  -1.646  -0.025  0.00  0.00    -0.220 NA
ATOM      8  C4  <0> d           3.161  -1.757  -0.038  0.00  0.00     0.090 A 
ATOM      9  N4  <0> d           3.961  -0.707  -0.040  0.00  0.00    -0.227 NA
ATOM     10  C5  <0> d           3.476   0.527  -0.028  0.00  0.00     0.158 A 
ATOM     11 Cl1  <0> d           4.541   1.898  -0.031  0.00  0.00    -0.060 Cl
ATOM     12  H2  <0> d          -0.909   1.905   0.025  0.00  0.00     0.143 H 
ATOM     13  H3  <0> d           3.599  -2.744  -0.048  0.00  0.00     0.146 H 
ENDROOT
TORSDOF 0
