REMARK  4 active torsions:
REMARK  status: ('A' for Active; 'I' for Inactive)
REMARK    1  A    between atoms: C1_1  and  C2_2 
REMARK    2  A    between atoms: C1_1  and  O2_10 
REMARK    3  A    between atoms: C2_2  and  C3_4 
REMARK    4  A    between atoms: C2_2  and  C4_6 
ROOT
ATOM      1  C2  <0> d          -0.729   1.579   1.267  0.00  0.00     0.144 C 
ATOM      2  H1  <0> d          -0.822   2.665   1.230  0.00  0.00     0.073 H 
ENDROOT
BRANCH   1   3
ATOM      3  C1  <0> d          -0.013   1.086   0.008  0.00  0.00     0.037 C 
ATOM      4  H2  <0> d           0.002  -0.004   0.002  0.00  0.00     0.075 H 
ATOM      5  H3  <0> d           1.010   1.463   0.000  0.00  0.00     0.075 H 
BRANCH   3   6
ATOM      6  O2  <0> d          -0.704   1.559  -1.150  0.00  0.00    -0.400 OA
ATOM      7  H4  <0> d          -0.304   1.284  -1.986  0.00  0.00     0.209 HD
ENDBRANCH   3   6
ENDBRANCH   1   3
BRANCH   1   8
ATOM      8  C3  <0> d           0.067   1.185   2.485  0.00  0.00     0.188 C 
ATOM      9  O1  <0> d           1.100   0.572   2.358  0.00  0.00    -0.647 OA
ATOM     10  O3  <0> d          -0.373   1.514   3.709  0.00  0.00    -0.647 OA
ENDBRANCH   1   8
BRANCH   1  11
ATOM     11  C4  <0> d          -2.121   0.950   1.341  0.00  0.00     0.403 C 
ATOM     12  F1  <0> d          -2.002  -0.443   1.389  0.00  0.00    -0.170 F 
ATOM     13  F2  <0> d          -2.776   1.401   2.492  0.00  0.00    -0.170 F 
ATOM     14  F3  <0> d          -2.860   1.316   0.211  0.00  0.00    -0.170 F 
ENDBRANCH   1  11
TORSDOF 4
