REMARK  4 active torsions:
REMARK  status: ('A' for Active; 'I' for Inactive)
REMARK    1  A    between atoms: C1_1  and  C2_2 
REMARK    2  A    between atoms: C4_4  and  O1_9 
REMARK    3  A    between atoms: C5_6  and  N3_8 
REMARK    4  A    between atoms: O1_9  and  C6_10 
ROOT
ATOM      1  C2  <0> d           1.148  -0.668  -0.013  0.00  0.00     0.054 A 
ATOM      2  C3  <0> d           2.337   0.036  -0.020  0.00  0.00    -0.007 A 
ATOM      3  C4  <0> d           2.286   1.429  -0.012  0.00  0.00     0.184 A 
ATOM      4  N1  <0> d           1.102   2.031   0.002  0.00  0.00    -0.039 NA
ATOM      5  C5  <0> d          -0.016   1.321   0.009  0.00  0.00     0.722 A 
ATOM      6  N2  <0> d           0.002  -0.004   0.002  0.00  0.00    -0.068 NA
ATOM      7  H4  <0> d           3.285  -0.481  -0.032  0.00  0.00     0.093 H 
ENDROOT
BRANCH   3   8
ATOM      8  O1  <0> d           3.428   2.159  -0.019  0.00  0.00    -0.339 OA
BRANCH   8   9
ATOM      9  C6  <0> d           3.288   3.581  -0.010  0.00  0.00     0.012 C 
ATOM     10  H7  <0> d           4.276   4.043  -0.016  0.00  0.00     0.067 H 
ATOM     11  H8  <0> d           2.734   3.897  -0.893  0.00  0.00     0.067 H 
ATOM     12  H9  <0> d           2.750   3.888   0.887  0.00  0.00     0.067 H 
ENDBRANCH   8   9
ENDBRANCH   3   8
BRANCH   1  13
ATOM     13  C1  <0> d           1.155  -2.175  -0.020  0.00  0.00    -0.035 C 
ATOM     14  H1  <0> d           1.146  -2.533  -1.050  0.00  0.00     0.035 H 
ATOM     15  H2  <0> d           2.051  -2.537   0.483  0.00  0.00     0.035 H 
ATOM     16  H3  <0> d           0.271  -2.545   0.500  0.00  0.00     0.035 H 
ENDBRANCH   1  13
BRANCH   5  17
ATOM     17  N3  <0> d          -1.233   1.979   0.019  0.00  0.00    -0.231 N 
ATOM     18  H5  <0> d          -2.059   1.471   0.020  0.00  0.00     0.174 HD
ATOM     19  H6  <0> d          -1.260   2.949   0.024  0.00  0.00     0.174 HD
ENDBRANCH   5  17
TORSDOF 4
