REMARK  3 active torsions:
REMARK  status: ('A' for Active; 'I' for Inactive)
REMARK    1  A    between atoms: C1_1  and  C2_2 
REMARK    2  A    between atoms: C2_2  and  C3_3 
REMARK    3  A    between atoms: C4_4  and  C7_9 
ROOT
ATOM      1  C3  <0> d           0.002  -0.004   0.002  0.00  0.00     0.013 A 
ATOM      2  C4  <0> d           1.259  -0.437  -0.012  0.00  0.00    -0.054 A 
ATOM      3  C5  <0> d           2.148   0.785  -0.014  0.00  0.00     0.016 A 
ATOM      4  N1  <0> d           1.241   1.940   0.001  0.00  0.00    -0.353 N 
ATOM      5  C6  <0> d          -0.018   1.462   0.010  0.00  0.00     0.248 A 
ATOM      6  O1  <0> d          -1.023   2.146   0.019  0.00  0.00    -0.268 OA
ATOM      7  H6  <0> d           2.780   0.791   0.874  0.00  0.00     0.070 H 
ATOM      8  H7  <0> d           2.763   0.800  -0.913  0.00  0.00     0.070 H 
ATOM      9  H8  <0> d           1.501   2.874   0.003  0.00  0.00     0.163 HD
ENDROOT
BRANCH   1  10
ATOM     10  C2  <0> d          -1.219  -0.887   0.010  0.00  0.00    -0.039 C 
ATOM     11  H4  <0> d          -2.013  -0.415  -0.570  0.00  0.00     0.039 H 
ATOM     12  H5  <0> d          -0.972  -1.853  -0.432  0.00  0.00     0.039 H 
BRANCH  10  13
ATOM     13  C1  <0> d          -1.692  -1.091   1.450  0.00  0.00    -0.072 C 
ATOM     14  H1  <0> d          -0.898  -1.564   2.030  0.00  0.00     0.028 H 
ATOM     15  H2  <0> d          -1.939  -0.126   1.892  0.00  0.00     0.028 H 
ATOM     16  H3  <0> d          -2.575  -1.730   1.456  0.00  0.00     0.028 H 
ENDBRANCH  10  13
ENDBRANCH   1  10
BRANCH   2  17
ATOM     17  C7  <0> d           1.711  -1.875  -0.024  0.00  0.00    -0.052 C 
ATOM     18  H9  <0> d           1.810  -2.216  -1.054  0.00  0.00     0.033 H 
ATOM     19  H10 <0> d           2.674  -1.957   0.480  0.00  0.00     0.033 H 
ATOM     20  H11 <0> d           0.976  -2.491   0.494  0.00  0.00     0.033 H 
ENDBRANCH   2  17
TORSDOF 3
