REMARK  2 active torsions:
REMARK  status: ('A' for Active; 'I' for Inactive)
REMARK    1  A    between atoms: C1_1  and  O1_2 
REMARK    2  A    between atoms: O1_2  and  C2_3 
ROOT
ATOM      1  C2  <0> d          -1.214   1.760   0.017  0.00  0.00     0.074 A 
ATOM      2  C3  <0> d          -1.197   3.169   0.031  0.00  0.00    -0.036 A 
ATOM      3  C4  <0> d          -0.018   3.826   0.023  0.00  0.00    -0.017 A 
ATOM      4  N1  <0> d           1.159   3.147   0.008  0.00  0.00    -0.334 N 
ATOM      5  H1  <0> d           2.112   3.697   0.003  0.00  0.00     0.168 HD
ATOM      6  C5  <0> d           1.185   1.801   0.000  0.00  0.00     0.247 A 
ATOM      7  O2  <0> d           2.254   1.212  -0.013  0.00  0.00    -0.268 OA
ATOM      8  C6  <0> d          -0.013   1.076   0.008  0.00  0.00     0.015 A 
ATOM      9  H5  <0> d          -2.125   3.722   0.043  0.00  0.00     0.089 H 
ATOM     10  H6  <0> d          -0.009   4.906   0.030  0.00  0.00     0.111 H 
ATOM     11  H7  <0> d           0.002  -0.004   0.002  0.00  0.00     0.096 H 
ENDROOT
BRANCH   1  12
ATOM     12  O1  <0> d          -2.389   1.086   0.019  0.00  0.00    -0.356 OA
BRANCH  12  13
ATOM     13  C1  <0> d          -2.318  -0.341   0.011  0.00  0.00     0.010 C 
ATOM     14  H2  <0> d          -3.336  -0.758   0.013  0.00  0.00     0.066 H 
ATOM     15  H3  <0> d          -1.778  -0.686   0.905  0.00  0.00     0.066 H 
ATOM     16  H4  <0> d          -1.787  -0.677  -0.892  0.00  0.00     0.066 H 
ENDBRANCH  12  13
ENDBRANCH   1  12
TORSDOF 2
