REMARK  1 active torsions:
REMARK  status: ('A' for Active; 'I' for Inactive)
REMARK    1  A    between atoms: C1_1  and  N1_2 
ROOT
ATOM      1  N1  <0> d           3.701   1.853  -0.024  0.00  0.00    -0.360 N 
ATOM      2  C2  <0> d           4.528   0.765  -0.037  0.00  0.00    -0.020 A 
ATOM      3  C3  <0> d           3.801  -0.365  -0.036  0.00  0.00    -0.056 A 
ATOM      4  C4  <0> d           2.393   0.032  -0.021  0.00  0.00    -0.008 A 
ATOM      5  C5  <0> d           2.386   1.441  -0.013  0.00  0.00     0.045 A 
ATOM      6  C6  <0> d           1.176   2.118   0.002  0.00  0.00    -0.036 A 
ATOM      7  C7  <0> d          -0.017   1.398   0.010  0.00  0.00     0.046 A 
ATOM      8  C8  <0> d           0.002  -0.004   0.002  0.00  0.00    -0.062 A 
ATOM      9  C9  <0> d           1.187  -0.677  -0.013  0.00  0.00    -0.069 A 
ATOM     10  C10 <0> d          -1.269   2.094   0.019  0.00  0.00     0.099 C 
ATOM     11  N2  <0> d          -2.262   2.645   0.027  0.00  0.00    -0.191 NA
ATOM     12  H4  <0> d           5.607   0.807  -0.048  0.00  0.00     0.111 H 
ATOM     13  H5  <0> d           4.183  -1.375  -0.046  0.00  0.00     0.086 H 
ATOM     14  H6  <0> d           1.159   3.198   0.008  0.00  0.00     0.089 H 
ATOM     15  H7  <0> d          -0.928  -0.554   0.008  0.00  0.00     0.085 H 
ATOM     16  H8  <0> d           1.195  -1.757  -0.018  0.00  0.00     0.085 H 
ENDROOT
BRANCH   1  17
ATOM     17  C1  <0> d           4.146   3.248  -0.020  0.00  0.00    -0.014 C 
ATOM     18  H1  <0> d           4.246   3.600  -1.047  0.00  0.00     0.057 H 
ATOM     19  H2  <0> d           3.414   3.862   0.504  0.00  0.00     0.057 H 
ATOM     20  H3  <0> d           5.110   3.322   0.484  0.00  0.00     0.057 H 
ENDBRANCH   1  17
TORSDOF 1
