REMARK  8 active torsions:
REMARK  status: ('A' for Active; 'I' for Inactive)
REMARK    1  A    between atoms: C1_1  and  C2_2 
REMARK    2  A    between atoms: C2_2  and  C8_11 
REMARK    3  A    between atoms: C3_3  and  C4_4 
REMARK    4  A    between atoms: C4_4  and  O2_6 
REMARK    5  A    between atoms: O2_6  and  C5_7 
REMARK    6  A    between atoms: C5_7  and  C6_8 
REMARK    7  A    between atoms: C6_8  and  O3_9 
REMARK    8  A    between atoms: O3_9  and  C7_10 
ROOT
ATOM      1  C4  <0> d           1.255   1.530  -0.728  0.00  0.00     0.283 C 
ATOM      2  O1  <0> d           1.343   2.702  -1.039  0.00  0.00    -0.260 OA
ENDROOT
BRANCH   1   3
ATOM      3  C3  <0> d          -0.013   1.000  -0.209  0.00  0.00    -0.009 C 
ATOM      4  C2  <0> d          -1.028   1.825   0.037  0.00  0.00    -0.082 C 
ATOM      5  H4  <0> d          -0.124  -0.059  -0.032  0.00  0.00     0.093 H 
BRANCH   4   6
ATOM      6  C1  <0> d          -2.377   1.269   0.414  0.00  0.00    -0.055 C 
ATOM      7  H1  <0> d          -2.437   1.165   1.498  0.00  0.00     0.033 H 
ATOM      8  H2  <0> d          -3.158   1.947   0.071  0.00  0.00     0.033 H 
ATOM      9  H3  <0> d          -2.511   0.293  -0.052  0.00  0.00     0.033 H 
ENDBRANCH   4   6
BRANCH   4  10
ATOM     10  C8  <0> d          -0.828   3.316  -0.061  0.00  0.00    -0.055 C 
ATOM     11  H12 <0> d          -0.950   3.631  -1.097  0.00  0.00     0.033 H 
ATOM     12  H13 <0> d          -1.565   3.823   0.562  0.00  0.00     0.033 H 
ATOM     13  H14 <0> d           0.175   3.571   0.281  0.00  0.00     0.033 H 
ENDBRANCH   4  10
ENDBRANCH   1   3
BRANCH   1  14
ATOM     14  O2  <0> d           2.322   0.717  -0.859  0.00  0.00    -0.316 OA
BRANCH  14  15
ATOM     15  C5  <0> d           3.542   1.308  -1.379  0.00  0.00     0.049 C 
ATOM     16  H5  <0> d           3.356   1.710  -2.374  0.00  0.00     0.078 H 
ATOM     17  H6  <0> d           3.866   2.112  -0.717  0.00  0.00     0.078 H 
BRANCH  15  18
ATOM     18  C6  <0> d           4.635   0.240  -1.456  0.00  0.00     0.039 C 
ATOM     19  H7  <0> d           5.574   0.701  -1.760  0.00  0.00     0.077 H 
ATOM     20  H8  <0> d           4.759  -0.224  -0.477  0.00  0.00     0.077 H 
BRANCH  18  21
ATOM     21  O3  <0> d           4.261  -0.755  -2.411  0.00  0.00    -0.394 OA
BRANCH  21  22
ATOM     22  C7  <0> d           5.218  -1.806  -2.560  0.00  0.00     0.004 C 
ATOM     23  H9  <0> d           4.861  -2.520  -3.302  0.00  0.00     0.066 H 
ATOM     24  H10 <0> d           6.169  -1.387  -2.888  0.00  0.00     0.066 H 
ATOM     25  H11 <0> d           5.354  -2.312  -1.605  0.00  0.00     0.066 H 
ENDBRANCH  21  22
ENDBRANCH  18  21
ENDBRANCH  15  18
ENDBRANCH  14  15
ENDBRANCH   1  14
TORSDOF 8
