REMARK  8 active torsions:
REMARK  status: ('A' for Active; 'I' for Inactive)
REMARK    1  A    between atoms: C1_1  and  C2_2 
REMARK    2  A    between atoms: C2_2  and  C3_3 
REMARK    3  A    between atoms: C2_2  and  C4_4 
REMARK    4  A    between atoms: C2_2  and  C5_6 
REMARK    5  A    between atoms: C4_4  and  O1_5 
REMARK    6  A    between atoms: C5_6  and  C6_7 
REMARK    7  A    between atoms: C5_6  and  C7_8 
REMARK    8  A    between atoms: C5_6  and  O2_9 
ROOT
ATOM      1  C2  <0> d           2.040   1.127  -1.261  0.00  0.00     0.004 C 
ENDROOT
BRANCH   1   2
ATOM      2  C1  <0> d           3.429   1.769  -1.270  0.00  0.00    -0.065 C 
ATOM      3  H1  <0> d           3.982   1.450  -0.388  0.00  0.00     0.028 H 
ATOM      4  H2  <0> d           3.966   1.459  -2.167  0.00  0.00     0.028 H 
ATOM      5  H3  <0> d           3.328   2.854  -1.264  0.00  0.00     0.028 H 
ENDBRANCH   1   2
BRANCH   1   6
ATOM      6  C3  <0> d           2.181  -0.396  -1.270  0.00  0.00    -0.065 C 
ATOM      7  H4  <0> d           1.192  -0.853  -1.263  0.00  0.00     0.028 H 
ATOM      8  H5  <0> d           2.718  -0.706  -2.167  0.00  0.00     0.028 H 
ATOM      9  H6  <0> d           2.735  -0.715  -0.387  0.00  0.00     0.028 H 
ENDBRANCH   1   6
BRANCH   1  10
ATOM     10  C4  <0> d           1.262   1.575  -2.500  0.00  0.00     0.026 C 
ATOM     11  H7  <0> d           0.273   1.118  -2.493  0.00  0.00     0.075 H 
ATOM     12  H8  <0> d           1.162   2.660  -2.493  0.00  0.00     0.075 H 
BRANCH  10  13
ATOM     13  O1  <0> d           1.966   1.169  -3.676  0.00  0.00    -0.400 OA
ATOM     14  H9  <0> d           1.530   1.421  -4.502  0.00  0.00     0.209 HD
ENDBRANCH  10  13
ENDBRANCH   1  10
BRANCH   1  15
ATOM     15  C5  <0> d           1.286   1.562  -0.002  0.00  0.00     0.059 C 
BRANCH  15  16
ATOM     16  C6  <0> d           1.145   3.085   0.008  0.00  0.00    -0.047 C 
ATOM     17  H10 <0> d           0.608   3.395   0.904  0.00  0.00     0.031 H 
ATOM     18  H11 <0> d           2.135   3.542   0.001  0.00  0.00     0.031 H 
ATOM     19  H12 <0> d           0.591   3.404  -0.875  0.00  0.00     0.031 H 
ENDBRANCH  15  16
BRANCH  15  20
ATOM     20  C7  <0> d           2.064   1.114   1.238  0.00  0.00    -0.047 C 
ATOM     21  H13 <0> d           2.164   0.029   1.231  0.00  0.00     0.031 H 
ATOM     22  H14 <0> d           3.053   1.571   1.231  0.00  0.00     0.031 H 
ATOM     23  H15 <0> d           1.527   1.423   2.135  0.00  0.00     0.031 H 
ENDBRANCH  15  20
BRANCH  15  24
ATOM     24  O2  <0> d          -0.011   0.963   0.007  0.00  0.00    -0.390 OA
ATOM     25  H16 <0> d           0.002  -0.004   0.002  0.00  0.00     0.210 HD
ENDBRANCH  15  24
ENDBRANCH   1  15
TORSDOF 8
