REMARK  2 active torsions:
REMARK  status: ('A' for Active; 'I' for Inactive)
REMARK    1  A    between atoms: C5_5  and  C6_6 
REMARK    2  A    between atoms: C6_6  and  O1_7 
ROOT
ATOM      1  C1  <0> d          -2.115  -0.263   1.374  0.00  0.00    -0.045 C 
ATOM      2  C2  <0> d          -2.964  -1.487   1.629  0.00  0.00    -0.106 C 
ATOM      3  C3  <0> d          -2.605  -2.477   0.858  0.00  0.00    -0.106 C 
ATOM      4  C4  <0> d          -1.455  -2.079  -0.039  0.00  0.00    -0.045 C 
ATOM      5  C5  <0> d          -1.433  -0.534   0.013  0.00  0.00    -0.028 C 
ATOM      6  H1  <0> d          -1.366  -0.151   2.158  0.00  0.00     0.039 H 
ATOM      7  H2  <0> d          -2.740   0.628   1.315  0.00  0.00     0.039 H 
ATOM      8  H3  <0> d          -3.764  -1.536   2.353  0.00  0.00     0.076 H 
ATOM      9  H4  <0> d          -3.068  -3.453   0.860  0.00  0.00     0.076 H 
ATOM     10  H5  <0> d          -1.632  -2.422  -1.058  0.00  0.00     0.039 H 
ATOM     11  H6  <0> d          -0.517  -2.485   0.340  0.00  0.00     0.039 H 
ATOM     12  H7  <0> d          -2.012  -0.106  -0.806  0.00  0.00     0.044 H 
ENDROOT
BRANCH   5  13
ATOM     13  C6  <0> d           0.002  -0.004   0.002  0.00  0.00     0.021 C 
ATOM     14  H8  <0> d           0.512  -0.356  -0.895  0.00  0.00     0.074 H 
ATOM     15  H9  <0> d           0.529  -0.365   0.885  0.00  0.00     0.074 H 
BRANCH  13  16
ATOM     16  O1  <0> d          -0.017   1.425   0.010  0.00  0.00    -0.400 OA
ATOM     17  H10 <0> d           0.861   1.830   0.004  0.00  0.00     0.209 HD
ENDBRANCH  13  16
ENDBRANCH   5  13
TORSDOF 2
