REMARK  1 active torsions:
REMARK  status: ('A' for Active; 'I' for Inactive)
REMARK    1  A    between atoms: C6_6  and  N1_7 
ROOT
ATOM      1  C1  <0> d          -1.256   3.037   0.030  0.00  0.00    -0.055 A 
ATOM      2  C2  <0> d          -2.459   3.712   0.038  0.00  0.00    -0.048 A 
ATOM      3  C3  <0> d          -3.660   3.008   0.045  0.00  0.00     0.075 A 
ATOM      4  C4  <0> d          -3.627   1.620   0.030  0.00  0.00    -0.021 A 
ATOM      5  C5  <0> d          -2.429   0.942   0.019  0.00  0.00    -0.049 A 
ATOM      6  C6  <0> d          -1.232   1.649   0.017  0.00  0.00     0.026 A 
ATOM      7  C7  <0> d          -5.066   1.141   0.025  0.00  0.00    -0.018 C 
ATOM      8  C8  <0> d          -5.830   2.428  -0.367  0.00  0.00     0.030 C 
ATOM      9  O1  <0> d          -4.942   3.471   0.070  0.00  0.00    -0.350 OA
ATOM     10  H1  <0> d          -0.329   3.591   0.031  0.00  0.00     0.087 H 
ATOM     11  H2  <0> d          -2.469   4.792   0.044  0.00  0.00     0.087 H 
ATOM     12  H3  <0> d          -2.419  -0.138   0.011  0.00  0.00     0.087 H 
ATOM     13  H6  <0> d          -5.213   0.359  -0.720  0.00  0.00     0.043 H 
ATOM     14  H7  <0> d          -5.366   0.796   1.014  0.00  0.00     0.043 H 
ATOM     15  H8  <0> d          -5.980   2.475  -1.445  0.00  0.00     0.075 H 
ATOM     16  H9  <0> d          -6.783   2.487   0.160  0.00  0.00     0.075 H 
ENDROOT
BRANCH   6  17
ATOM     17  N1  <0> d          -0.011   0.966   0.007  0.00  0.00    -0.399 N 
ATOM     18  H4  <0> d           0.002  -0.004   0.002  0.00  0.00     0.156 HD
ATOM     19  H5  <0> d           0.822   1.462   0.002  0.00  0.00     0.156 HD
ENDBRANCH   6  17
TORSDOF 1
