REMARK  5 active torsions:
REMARK  status: ('A' for Active; 'I' for Inactive)
REMARK    1  A    between atoms: C1_1  and  N1_2 
REMARK    2  A    between atoms: C2_3  and  N3_11 
REMARK    3  A    between atoms: C3_4  and  C5_7 
REMARK    4  A    between atoms: C5_7  and  O2_9 
REMARK    5  A    between atoms: O2_9  and  C6_10 
ROOT
ATOM      1  N1  <0> d           0.002  -0.004   0.002  0.00  0.00    -0.258 N 
ATOM      2  C2  <0> d           0.008  -0.785  -1.097  0.00  0.00     0.135 A 
ATOM      3  C3  <0> d           0.028  -2.109  -0.658  0.00  0.00     0.103 A 
ATOM      4  C4  <0> d           0.034  -2.074   0.757  0.00  0.00     0.041 A 
ATOM      5  N2  <0> d           0.025  -0.827   1.133  0.00  0.00    -0.182 NA
ATOM      6  H4  <0> d           0.048  -2.933   1.411  0.00  0.00     0.119 H 
ENDROOT
BRANCH   3   7
ATOM      7  C5  <0> d           0.040  -3.307  -1.502  0.00  0.00     0.298 C 
ATOM      8  O1  <0> d           0.033  -3.199  -2.713  0.00  0.00    -0.259 OA
BRANCH   7   9
ATOM      9  O2  <0> d           0.059  -4.531  -0.935  0.00  0.00    -0.322 OA
BRANCH   9  10
ATOM     10  C6  <0> d           0.070  -5.655  -1.818  0.00  0.00     0.013 C 
ATOM     11  H5  <0> d           0.957  -5.611  -2.450  0.00  0.00     0.067 H 
ATOM     12  H6  <0> d           0.086  -6.575  -1.234  0.00  0.00     0.067 H 
ATOM     13  H7  <0> d          -0.823  -5.635  -2.442  0.00  0.00     0.067 H 
ENDBRANCH   9  10
ENDBRANCH   7   9
ENDBRANCH   3   7
BRANCH   2  14
ATOM     14  N3  <0> d          -0.004  -0.356  -2.408  0.00  0.00    -0.383 N 
ATOM     15  H8  <0> d          -0.018   0.593  -2.607  0.00  0.00     0.157 HD
ATOM     16  H9  <0> d           0.001  -1.004  -3.130  0.00  0.00     0.157 HD
ENDBRANCH   2  14
BRANCH   1  17
ATOM     17  C1  <0> d          -0.018   1.461   0.010  0.00  0.00     0.004 C 
ATOM     18  H1  <0> d           1.005   1.838   0.002  0.00  0.00     0.059 H 
ATOM     19  H2  <0> d          -0.545   1.822  -0.873  0.00  0.00     0.059 H 
ATOM     20  H3  <0> d          -0.528   1.812   0.907  0.00  0.00     0.059 H 
ENDBRANCH   1  17
TORSDOF 5
