REMARK  0 active torsions:
REMARK  status: ('A' for Active; 'I' for Inactive)
ROOT
ATOM      1  C1  <0> d           0.935  -2.042  -0.018  0.00  0.00    -0.020 A 
ATOM      2  C2  <0> d          -0.406  -2.207  -0.006  0.00  0.00    -0.002 A 
ATOM      3  N1  <0> d          -1.002  -0.977   0.006  0.00  0.00    -0.299 N 
ATOM      4  H1  <0> d          -1.957  -0.809   0.017  0.00  0.00     0.186 HD
ATOM      5  N2  <0> d           0.002  -0.004   0.002  0.00  0.00    -0.186 N 
ATOM      6  C3  <0> d           1.208  -0.658  -0.013  0.00  0.00     0.156 A 
ATOM      7  N3  <0> d           2.335   0.046  -0.020  0.00  0.00    -0.222 NA
ATOM      8  C4  <0> d           2.293   1.371  -0.012  0.00  0.00     0.094 A 
ATOM      9  N4  <0> d           1.141   2.015   0.002  0.00  0.00    -0.186 NA
ATOM     10  C5  <0> d          -0.016   1.343   0.009  0.00  0.00     0.370 A 
ATOM     11  O1  <0> d          -1.077   1.944   0.018  0.00  0.00    -0.242 OA
ATOM     12  H2  <0> d           1.670  -2.833  -0.030  0.00  0.00     0.091 H 
ATOM     13  H3  <0> d          -0.922  -3.155  -0.006  0.00  0.00     0.113 H 
ATOM     14  H4  <0> d           3.216   1.932  -0.017  0.00  0.00     0.147 H 
ENDROOT
TORSDOF 0
