REMARK  4 active torsions:
REMARK  status: ('A' for Active; 'I' for Inactive)
REMARK    1  A    between atoms: C1_1  and  C2_2 
REMARK    2  A    between atoms: C2_2  and  C3_4 
REMARK    3  A    between atoms: C2_2  and  N1_6 
REMARK    4  A    between atoms: C5_9  and  N4_11 
ROOT
ATOM      1  N1  <0> d           2.634   3.529  -0.004  0.00  0.00    -0.232 N 
ATOM      2  C4  <0> d           3.669   2.922   0.600  0.00  0.00     0.103 A 
ATOM      3  N2  <0> d           4.751   3.617   0.355  0.00  0.00    -0.055 NA
ATOM      4  C5  <0> d           4.446   4.675  -0.403  0.00  0.00     0.738 A 
ATOM      5  N3  <0> d           3.158   4.658  -0.653  0.00  0.00     0.022 NA
ATOM      6  H5  <0> d           3.618   2.017   1.187  0.00  0.00     0.147 H 
ENDROOT
BRANCH   1   7
ATOM      7  C2  <0> d           1.235   3.094   0.007  0.00  0.00     0.116 C 
ATOM      8  H1  <0> d           0.727   3.482  -0.876  0.00  0.00     0.092 H 
BRANCH   7   9
ATOM      9  C1  <0> d           0.546   3.625   1.266  0.00  0.00    -0.046 C 
ATOM     10  H2  <0> d           1.054   3.237   2.149  0.00  0.00     0.031 H 
ATOM     11  H3  <0> d           0.588   4.714   1.271  0.00  0.00     0.031 H 
ATOM     12  H4  <0> d          -0.495   3.302   1.274  0.00  0.00     0.031 H 
ENDBRANCH   7   9
BRANCH   7  13
ATOM     13  C3  <0> d           1.177   1.588  -0.001  0.00  0.00     0.198 C 
ATOM     14  O1  <0> d           2.199   0.944  -0.014  0.00  0.00    -0.646 OA
ATOM     15  O2  <0> d          -0.011   0.963   0.007  0.00  0.00    -0.646 OA
ENDBRANCH   7  13
ENDBRANCH   1   7
BRANCH   4  16
ATOM     16  N4  <0> d           5.350   5.636  -0.859  0.00  0.00    -0.230 N 
ATOM     17  H6  <0> d           6.290   5.566  -0.628  0.00  0.00     0.174 HD
ATOM     18  H7  <0> d           5.039   6.373  -1.407  0.00  0.00     0.174 HD
ENDBRANCH   4  16
TORSDOF 4
