REMARK  1 active torsions:
REMARK  status: ('A' for Active; 'I' for Inactive)
REMARK    1  A    between atoms: C3_4  and  C5_7 
ROOT
ATOM      1  C1  <0> d           1.208  -0.682  -0.013  0.00  0.00     0.019 A 
ATOM      2  C2  <0> d           0.002  -0.004   0.002  0.00  0.00     0.020 A 
ATOM      3  N1  <0> d          -0.016   1.317   0.009  0.00  0.00    -0.257 NA
ATOM      4  C3  <0> d           1.128   1.995   0.002  0.00  0.00     0.087 A 
ATOM      5  C4  <0> d           2.341   1.307  -0.013  0.00  0.00     0.030 A 
ATOM      6  N2  <0> d           2.348  -0.013  -0.020  0.00  0.00    -0.269 NA
ATOM      7  H2  <0> d           1.218  -1.762  -0.019  0.00  0.00     0.117 H 
ATOM      8  H3  <0> d          -0.926  -0.556   0.008  0.00  0.00     0.117 H 
ATOM      9  H4  <0> d           3.273   1.853  -0.019  0.00  0.00     0.118 H 
ENDROOT
BRANCH   4  10
ATOM     10  C5  <0> d           1.113   3.478   0.010  0.00  0.00     0.030 A 
ATOM     11  C7  <0> d           2.236   4.322  -0.096  0.00  0.00     0.035 A 
ATOM     12  N4  <0> d           1.819   5.559  -0.049  0.00  0.00    -0.187 NA
ATOM     13  H6  <0> d           3.263   4.003  -0.197  0.00  0.00     0.118 H 
ATOM     14  N3  <0> d           0.425   5.555   0.087  0.00  0.00    -0.289 N 
ATOM     15  C6  <0> d           0.009   4.274   0.116  0.00  0.00     0.009 A 
ATOM     16  H1  <0> d          -0.160   6.363   0.151  0.00  0.00     0.188 HD
ATOM     17  H5  <0> d          -1.013   3.937   0.208  0.00  0.00     0.115 H 
ENDBRANCH   4  10
TORSDOF 1
