REMARK  4 active torsions:
REMARK  status: ('A' for Active; 'I' for Inactive)
REMARK    1  A    between atoms: C1_1  and  C2_2 
REMARK    2  A    between atoms: C5_7  and  C7_10 
REMARK    3  A    between atoms: C8_11  and  C9_12 
REMARK    4  A    between atoms: C8_11  and  C10_13 
ROOT
ATOM      1  C2  <0> d           0.821   1.671  -0.079  0.00  0.00    -0.053 C 
ATOM      2  H1  <0> d           1.426   1.541   0.818  0.00  0.00     0.039 H 
ATOM      3  C3  <0> d          -0.443   0.811   0.027  0.00  0.00    -0.042 C 
ATOM      4  C4  <0> d          -0.042  -0.665   0.094  0.00  0.00     0.021 C 
ATOM      5  O1  <0> d           0.728  -1.001  -1.062  0.00  0.00    -0.382 OA
ATOM      6  C5  <0> d           1.944  -0.263  -1.188  0.00  0.00     0.055 C 
ATOM      7  H2  <0> d           2.565  -0.432  -0.309  0.00  0.00     0.089 H 
ATOM      8  C6  <0> d           1.623   1.230  -1.307  0.00  0.00    -0.035 C 
ATOM      9  H6  <0> d          -1.071   0.979  -0.848  0.00  0.00     0.036 H 
ATOM     10  H7  <0> d          -0.992   1.081   0.929  0.00  0.00     0.036 H 
ATOM     11  H8  <0> d           0.553  -0.840   0.990  0.00  0.00     0.074 H 
ATOM     12  H9  <0> d          -0.939  -1.284   0.127  0.00  0.00     0.074 H 
ATOM     13  H10 <0> d           2.552   1.799  -1.359  0.00  0.00     0.037 H 
ATOM     14  H11 <0> d           1.037   1.406  -2.209  0.00  0.00     0.037 H 
ENDROOT
BRANCH   6  15
ATOM     15  C7  <0> d           2.683  -0.717  -2.421  0.00  0.00    -0.074 C 
ATOM     16  C8  <0> d           3.840  -1.321  -2.305  0.00  0.00    -0.089 C 
ATOM     17  H12 <0> d           2.259  -0.545  -3.399  0.00  0.00     0.081 H 
BRANCH  16  18
ATOM     18  C9  <0> d           4.372  -1.676  -0.941  0.00  0.00    -0.055 C 
ATOM     19  H13 <0> d           3.661  -2.327  -0.432  0.00  0.00     0.033 H 
ATOM     20  H14 <0> d           5.326  -2.192  -1.046  0.00  0.00     0.033 H 
ATOM     21  H15 <0> d           4.513  -0.766  -0.358  0.00  0.00     0.033 H 
ENDBRANCH  16  18
BRANCH  16  22
ATOM     22  C10 <0> d           4.638  -1.661  -3.537  0.00  0.00    -0.055 C 
ATOM     23  H16 <0> d           5.301  -0.831  -3.781  0.00  0.00     0.033 H 
ATOM     24  H17 <0> d           5.231  -2.557  -3.351  0.00  0.00     0.033 H 
ATOM     25  H18 <0> d           3.960  -1.841  -4.372  0.00  0.00     0.033 H 
ENDBRANCH  16  22
ENDBRANCH   6  15
BRANCH   1  26
ATOM     26  C1  <0> d           0.428   3.142  -0.226  0.00  0.00    -0.073 C 
ATOM     27  H3  <0> d          -0.150   3.453   0.645  0.00  0.00     0.028 H 
ATOM     28  H4  <0> d           1.328   3.753  -0.301  0.00  0.00     0.028 H 
ATOM     29  H5  <0> d          -0.174   3.269  -1.126  0.00  0.00     0.028 H 
ENDBRANCH   1  26
TORSDOF 4
