REMARK  1 active torsions:
REMARK  status: ('A' for Active; 'I' for Inactive)
REMARK    1  A    between atoms: C5_6  and  C6_7 
ROOT
ATOM      1  C1  <0> d          -0.017   1.394   0.010  0.00  0.00    -0.052 A 
ATOM      2  C2  <0> d           1.181   2.080   0.002  0.00  0.00     0.003 A 
ATOM      3  N1  <0> d           2.331   1.434  -0.013  0.00  0.00    -0.273 NA
ATOM      4  C3  <0> d           2.393   0.117  -0.021  0.00  0.00     0.003 A 
ATOM      5  C4  <0> d           1.244  -0.647  -0.014  0.00  0.00    -0.052 A 
ATOM      6  C5  <0> d           0.002  -0.004   0.002  0.00  0.00     0.018 A 
ATOM      7  H1  <0> d          -0.955   1.929   0.026  0.00  0.00     0.087 H 
ATOM      8  H2  <0> d           1.177   3.160   0.008  0.00  0.00     0.114 H 
ATOM      9  H3  <0> d           3.357  -0.371  -0.033  0.00  0.00     0.114 H 
ATOM     10  H4  <0> d           1.302  -1.726  -0.021  0.00  0.00     0.087 H 
ENDROOT
BRANCH   6  11
ATOM     11  C6  <0> d          -1.258  -0.782   0.010  0.00  0.00     0.206 A 
ATOM     12  N5  <0> d          -1.375  -2.111   0.004  0.00  0.00    -0.106 NA
ATOM     13  N4  <0> d          -2.634  -2.388   0.019  0.00  0.00    -0.021 NA
ATOM     14  N3  <0> d          -3.311  -1.293   0.025  0.00  0.00    -0.021 NA
ATOM     15  N2  <0> d          -2.498  -0.292   0.019  0.00  0.00    -0.106 NA
ENDBRANCH   6  11
TORSDOF 1
