REMARK  2 active torsions:
REMARK  status: ('A' for Active; 'I' for Inactive)
REMARK    1  A    between atoms: C3_3  and  O2_9 
REMARK    2  A    between atoms: C4_5  and  O1_8 
ROOT
ATOM      1  C1  <0> d          -0.019   1.538   0.011  0.00  0.00    -0.060 C 
ATOM      2  C2  <0> d           1.477   1.939  -0.002  0.00  0.00    -0.039 C 
ATOM      3  C3  <0> d           2.107   0.881  -0.942  0.00  0.00     0.060 C 
ATOM      4  H1  <0> d           1.946   1.155  -1.985  0.00  0.00     0.086 H 
ATOM      5  C4  <0> d           1.353  -0.422  -0.604  0.00  0.00     0.060 C 
ATOM      6  H2  <0> d           1.192  -1.006  -1.510  0.00  0.00     0.086 H 
ATOM      7  C5  <0> d           0.002  -0.004   0.002  0.00  0.00    -0.039 C 
ATOM      8  H3  <0> d          -0.505   1.908   0.913  0.00  0.00     0.033 H 
ATOM      9  H4  <0> d          -0.522   1.918  -0.878  0.00  0.00     0.033 H 
ATOM     10  H5  <0> d           1.606   2.942  -0.408  0.00  0.00     0.036 H 
ATOM     11  H6  <0> d           1.904   1.868   0.999  0.00  0.00     0.036 H 
ATOM     12  H7  <0> d          -0.084  -0.384   1.020  0.00  0.00     0.036 H 
ATOM     13  H8  <0> d          -0.815  -0.385  -0.610  0.00  0.00     0.036 H 
ENDROOT
BRANCH   3  14
ATOM     14  O2  <0> d           3.503   0.739  -0.673  0.00  0.00    -0.393 OA
ATOM     15  H10 <0> d           4.015   1.547  -0.814  0.00  0.00     0.210 HD
ENDBRANCH   3  14
BRANCH   5  16
ATOM     16  O1  <0> d           2.100  -1.187   0.344  0.00  0.00    -0.393 OA
ATOM     17  H9  <0> d           1.679  -2.019   0.598  0.00  0.00     0.210 HD
ENDBRANCH   5  16
TORSDOF 2
