REMARK  3 active torsions:
REMARK  status: ('A' for Active; 'I' for Inactive)
REMARK    1  A    between atoms: C1_1  and  C2_2 
REMARK    2  A    between atoms: C2_2  and  N1_3 
REMARK    3  A    between atoms: C3_4  and  N4_8 
ROOT
ATOM      1  N1  <0> d          -0.017   1.400   0.010  0.00  0.00    -0.099 N 
ATOM      2  C3  <0> d           1.273   1.797  -0.000  0.00  0.00     0.717 A 
ATOM      3  N2  <0> d           2.027   0.719  -0.013  0.00  0.00    -0.055 NA
ATOM      4  C4  <0> d           1.256  -0.369  -0.012  0.00  0.00     0.125 A 
ATOM      5  N3  <0> d           0.002  -0.004   0.002  0.00  0.00    -0.150 NA
ATOM      6  H6  <0> d           1.611  -1.389  -0.021  0.00  0.00     0.150 H 
ENDROOT
BRANCH   1   7
ATOM      7  C2  <0> d          -1.201   2.262   0.020  0.00  0.00     0.031 C 
ATOM      8  H4  <0> d          -0.974   3.198  -0.490  0.00  0.00     0.067 H 
ATOM      9  H5  <0> d          -2.022   1.759  -0.492  0.00  0.00     0.067 H 
BRANCH   7  10
ATOM     10  C1  <0> d          -1.606   2.555   1.466  0.00  0.00    -0.059 C 
ATOM     11  H1  <0> d          -0.786   3.058   1.979  0.00  0.00     0.029 H 
ATOM     12  H2  <0> d          -2.487   3.196   1.474  0.00  0.00     0.029 H 
ATOM     13  H3  <0> d          -1.833   1.619   1.977  0.00  0.00     0.029 H 
ENDBRANCH   7  10
ENDBRANCH   1   7
BRANCH   2  14
ATOM     14  N4  <0> d           1.722   3.106   0.002  0.00  0.00    -0.231 N 
ATOM     15  H7  <0> d           1.085   3.837   0.012  0.00  0.00     0.174 HD
ATOM     16  H8  <0> d           2.674   3.292  -0.006  0.00  0.00     0.174 HD
ENDBRANCH   2  14
TORSDOF 3
