REMARK  1 active torsions:
REMARK  status: ('A' for Active; 'I' for Inactive)
REMARK    1  A    between atoms: C4_6  and  C5_8 
ROOT
ATOM      1  C1  <0> d          -0.002   1.388   2.534  0.00  0.00    -0.025 C 
ATOM      2  C2  <0> d          -1.173   0.878   3.406  0.00  0.00     0.030 C 
ATOM      3  O1  <0> d          -2.206   0.507   2.446  0.00  0.00    -0.321 OA
ATOM      4  C3  <0> d          -2.118   1.285   1.357  0.00  0.00     0.271 C 
ATOM      5  O2  <0> d          -3.011   1.476   0.566  0.00  0.00    -0.265 OA
ATOM      6  C4  <0> d          -0.733   1.888   1.268  0.00  0.00     0.126 C 
ATOM      7  H1  <0> d          -0.791   2.977   1.269  0.00  0.00     0.069 H 
ATOM      8  H2  <0> d           0.683   0.576   2.291  0.00  0.00     0.037 H 
ATOM      9  H3  <0> d           0.523   2.205   3.028  0.00  0.00     0.037 H 
ATOM     10  H4  <0> d          -0.864   0.009   3.987  0.00  0.00     0.075 H 
ATOM     11  H5  <0> d          -1.529   1.669   4.065  0.00  0.00     0.075 H 
ENDROOT
BRANCH   6  12
ATOM     12  C5  <0> d          -0.017   1.395   0.010  0.00  0.00     0.400 C 
ATOM     13  F1  <0> d           0.002  -0.004   0.002  0.00  0.00    -0.170 F 
ATOM     14  F2  <0> d           1.296   1.879  -0.000  0.00  0.00    -0.170 F 
ATOM     15  F3  <0> d          -0.694   1.858  -1.124  0.00  0.00    -0.170 F 
ENDBRANCH   6  12
TORSDOF 1
