REMARK  3 active torsions:
REMARK  status: ('A' for Active; 'I' for Inactive)
REMARK    1  A    between atoms: C1_1  and  O1_2 
REMARK    2  A    between atoms: O1_2  and  C2_3 
REMARK    3  A    between atoms: C2_3  and  C3_5 
ROOT
ATOM      1  C3  <0> d           1.368   1.556  -0.003  0.00  0.00     0.217 C 
ATOM      2  H1  <0> d           2.039   0.932  -0.612  0.00  0.00     0.104 H 
ATOM      3  C4  <0> d           1.206   2.999  -0.528  0.00  0.00     0.003 C 
ATOM      4  C5  <0> d          -0.105   2.985  -1.339  0.00  0.00     0.106 C 
ATOM      5  H2  <0> d          -0.012   3.366  -2.367  0.00  0.00     0.094 H 
ATOM      6  C6  <0> d          -0.626   1.536  -1.236  0.00  0.00     0.140 C 
ATOM      7  N1  <0> d          -0.012   1.005   0.008  0.00  0.00     0.100 N 
ATOM      8  F1  <0> d          -1.030   3.877  -0.784  0.00  0.00    -0.248 F 
ATOM      9  H6  <0> d           1.150   3.694   0.323  0.00  0.00     0.041 H 
ATOM     10  H7  <0> d           2.070   3.259  -1.157  0.00  0.00     0.041 H 
ATOM     11  H8  <0> d          -1.724   1.544  -1.179  0.00  0.00     0.084 H 
ATOM     12  H9  <0> d          -0.309   0.968  -2.124  0.00  0.00     0.084 H 
ATOM     13  H10 <0> d           0.033  -0.094   0.009  0.00  0.00     0.317 HD
ENDROOT
BRANCH   1  14
ATOM     14  C2  <0> d           1.941   1.565   1.391  0.00  0.00     0.292 C 
ATOM     15  O2  <0> d           1.206   1.484   2.347  0.00  0.00    -0.263 OA
BRANCH  14  16
ATOM     16  O1  <0> d           3.267   1.663   1.571  0.00  0.00    -0.325 OA
BRANCH  16  17
ATOM     17  C1  <0> d           3.748   1.666   2.941  0.00  0.00     0.013 C 
ATOM     18  H3  <0> d           4.845   1.750   2.945  0.00  0.00     0.067 H 
ATOM     19  H4  <0> d           3.451   0.729   3.436  0.00  0.00     0.067 H 
ATOM     20  H5  <0> d           3.313   2.519   3.481  0.00  0.00     0.067 H 
ENDBRANCH  16  17
ENDBRANCH  14  16
ENDBRANCH   1  14
TORSDOF 3
