REMARK  2 active torsions:
REMARK  status: ('A' for Active; 'I' for Inactive)
REMARK    1  A    between atoms: C1_1  and  C2_2 
REMARK    2  A    between atoms: C6_8  and  C7_11 
ROOT
ATOM      1  C2  <0> d          -2.026   1.038  -1.304  0.00  0.00     0.042 C 
ATOM      2  H1  <0> d          -1.921  -0.057  -1.292  0.00  0.00     0.083 H 
ATOM      3  C3  <0> d          -2.904   1.529  -0.146  0.00  0.00     0.014 C 
ATOM      4  C4  <0> d          -2.196   1.204   1.153  0.00  0.00     0.131 C 
ATOM      5  O1  <0> d          -2.776   0.662   2.063  0.00  0.00    -0.298 OA
ATOM      6  C5  <0> d          -0.732   1.581   1.269  0.00  0.00     0.014 C 
ATOM      7  C6  <0> d          -0.013   1.086   0.008  0.00  0.00     0.042 C 
ATOM      8  H2  <0> d          -0.030  -0.012  -0.060  0.00  0.00     0.083 H 
ATOM      9  O2  <0> d          -0.705   1.560  -1.148  0.00  0.00    -0.381 OA
ATOM     10  H6  <0> d          -3.053   2.616  -0.234  0.00  0.00     0.048 H 
ATOM     11  H7  <0> d          -3.879   1.022  -0.184  0.00  0.00     0.048 H 
ATOM     12  H8  <0> d          -0.641   2.674   1.353  0.00  0.00     0.048 H 
ATOM     13  H9  <0> d          -0.301   1.107   2.163  0.00  0.00     0.048 H 
ENDROOT
BRANCH   1  14
ATOM     14  C1  <0> d          -2.614   1.520  -2.631  0.00  0.00    -0.052 C 
ATOM     15  H3  <0> d          -3.630   1.118  -2.750  0.00  0.00     0.030 H 
ATOM     16  H4  <0> d          -1.981   1.169  -3.461  0.00  0.00     0.030 H 
ATOM     17  H5  <0> d          -2.651   2.619  -2.638  0.00  0.00     0.030 H 
ENDBRANCH   1  14
BRANCH   7  18
ATOM     18  C7  <0> d           1.422   1.616  -0.003  0.00  0.00    -0.052 C 
ATOM     19  H10 <0> d           1.938   1.261  -0.907  0.00  0.00     0.030 H 
ATOM     20  H11 <0> d           1.954   1.253   0.889  0.00  0.00     0.030 H 
ATOM     21  H12 <0> d           1.407   2.716   0.002  0.00  0.00     0.030 H 
ENDBRANCH   7  18
TORSDOF 2
