REMARK  5 active torsions:
REMARK  status: ('A' for Active; 'I' for Inactive)
REMARK    1  A    between atoms: C1_1  and  C2_2 
REMARK    2  A    between atoms: C2_2  and  C3_3 
REMARK    3  A    between atoms: C2_2  and  N1_4 
REMARK    4  A    between atoms: C6_8  and  C7_9 
REMARK    5  A    between atoms: C7_9  and  O1_10 
ROOT
ATOM      1  N1  <0> d          -0.020   1.094   2.454  0.00  0.00    -0.338 N 
ATOM      2  C4  <0> d           1.282   1.354   2.785  0.00  0.00    -0.002 A 
ATOM      3  C5  <0> d           1.522   0.720   3.948  0.00  0.00     0.019 A 
ATOM      4  N2  <0> d           0.400   0.082   4.313  0.00  0.00    -0.244 NA
ATOM      5  C6  <0> d          -0.528   0.302   3.422  0.00  0.00     0.129 A 
ATOM      6  H8  <0> d           1.982   1.954   2.222  0.00  0.00     0.113 H 
ATOM      7  H9  <0> d           2.457   0.720   4.490  0.00  0.00     0.117 H 
ENDROOT
BRANCH   1   8
ATOM      8  C2  <0> d          -0.729   1.579   1.267  0.00  0.00     0.011 C 
ATOM      9  H4  <0> d          -1.752   1.177   1.313  0.00  0.00     0.072 H 
BRANCH   8  10
ATOM     10  C1  <0> d          -0.013   1.086   0.008  0.00  0.00    -0.057 C 
ATOM     11  H1  <0> d           0.002  -0.014   0.002  0.00  0.00     0.030 H 
ATOM     12  H2  <0> d           1.019   1.467   0.000  0.00  0.00     0.030 H 
ATOM     13  H3  <0> d          -0.545   1.450  -0.883  0.00  0.00     0.030 H 
ENDBRANCH   8  10
BRANCH   8  14
ATOM     14  C3  <0> d          -0.750   3.109   1.275  0.00  0.00    -0.057 C 
ATOM     15  H5  <0> d          -1.264   3.464   2.180  0.00  0.00     0.030 H 
ATOM     16  H6  <0> d          -1.282   3.473   0.384  0.00  0.00     0.030 H 
ATOM     17  H7  <0> d           0.282   3.490   1.267  0.00  0.00     0.030 H 
ENDBRANCH   8  14
ENDBRANCH   1   8
BRANCH   5  18
ATOM     18  C7  <0> d          -1.935  -0.238   3.468  0.00  0.00     0.071 C 
ATOM     19  H10 <0> d          -2.244  -0.366   4.516  0.00  0.00     0.086 H 
ATOM     20  H11 <0> d          -2.615   0.468   2.969  0.00  0.00     0.086 H 
BRANCH  18  21
ATOM     21  O1  <0> d          -1.983  -1.499   2.799  0.00  0.00    -0.393 OA
ATOM     22  H12 <0> d          -2.933  -2.049   2.729  0.00  0.00     0.209 HD
ENDBRANCH  18  21
ENDBRANCH   5  18
TORSDOF 5
