REMARK  2 active torsions:
REMARK  status: ('A' for Active; 'I' for Inactive)
REMARK    1  A    between atoms: C9_10  and  C10_11 
REMARK    2  A    between atoms: C10_11  and  O1_12 
ROOT
ATOM      1  C1  <0> d           1.155   1.778   0.001  0.00  0.00    -0.082 A 
ATOM      2  C2  <0> d           1.154   3.172   0.008  0.00  0.00    -0.082 A 
ATOM      3  C3  <0> d          -0.012   3.875   0.023  0.00  0.00    -0.070 A 
ATOM      4  C4  <0> d          -1.235   3.185   0.031  0.00  0.00     0.001 A 
ATOM      5  C5  <0> d          -1.233   1.766   0.018  0.00  0.00    -0.022 A 
ATOM      6  C6  <0> d          -0.013   1.076   0.008  0.00  0.00    -0.072 A 
ATOM      7  C7  <0> d          -2.472   1.099   0.032  0.00  0.00    -0.055 A 
ATOM      8  C8  <0> d          -3.614   1.842   0.047  0.00  0.00     0.003 A 
ATOM      9  N1  <0> d          -3.586   3.168   0.054  0.00  0.00    -0.262 NA
ATOM     10  C9  <0> d          -2.468   3.856   0.047  0.00  0.00     0.068 A 
ATOM     11  H1  <0> d           2.095   1.247  -0.012  0.00  0.00     0.083 H 
ATOM     12  H2  <0> d           2.095   3.703   0.002  0.00  0.00     0.083 H 
ATOM     13  H3  <0> d           0.004   4.955   0.029  0.00  0.00     0.084 H 
ATOM     14  H4  <0> d           0.002  -0.004   0.002  0.00  0.00     0.084 H 
ATOM     15  H5  <0> d          -2.517   0.020   0.026  0.00  0.00     0.087 H 
ATOM     16  H6  <0> d          -4.568   1.337   0.054  0.00  0.00     0.114 H 
ENDROOT
BRANCH  10  17
ATOM     17  C10 <0> d          -2.509   5.362   0.056  0.00  0.00     0.057 C 
ATOM     18  H7  <0> d          -3.403   5.698   0.581  0.00  0.00     0.083 H 
ATOM     19  H8  <0> d          -1.624   5.746   0.564  0.00  0.00     0.083 H 
BRANCH  17  20
ATOM     20  O1  <0> d          -2.535   5.846  -1.288  0.00  0.00    -0.395 OA
ATOM     21  H9  <0> d          -2.562   6.810  -1.359  0.00  0.00     0.209 HD
ENDBRANCH  17  20
ENDBRANCH  10  17
TORSDOF 2
