REMARK  0 active torsions:
REMARK  status: ('A' for Active; 'I' for Inactive)
ROOT
ATOM      1  C1  <0> d          -1.147   2.360   0.021  0.00  0.00     0.125 C 
ATOM      2  N1  <0> d          -2.042   3.059   0.029  0.00  0.00    -0.190 NA
ATOM      3  C2  <0> d          -0.018   1.479   0.010  0.00  0.00     0.207 A 
ATOM      4  C3  <0> d           0.002  -0.004   0.002  0.00  0.00     0.207 A 
ATOM      5  N2  <0> d           1.290  -0.271  -0.012  0.00  0.00    -0.091 NA
ATOM      6  O1  <0> d           1.915   0.764  -0.012  0.00  0.00    -0.104 OA
ATOM      7  N3  <0> d           1.263   1.781  -0.000  0.00  0.00    -0.091 NA
ATOM      8  C4  <0> d          -1.102  -0.916   0.007  0.00  0.00     0.125 C 
ATOM      9  N4  <0> d          -1.978  -1.639   0.011  0.00  0.00    -0.190 NA
ENDROOT
TORSDOF 0
