REMARK  7 active torsions:
REMARK  status: ('A' for Active; 'I' for Inactive)
REMARK    1  A    between atoms: C1_1  and  C2_2 
REMARK    2  A    between atoms: C2_2  and  O1_3 
REMARK    3  A    between atoms: O1_3  and  C3_4 
REMARK    4  A    between atoms: C3_4  and  C4_6 
REMARK    5  A    between atoms: C4_6  and  O3_7 
REMARK    6  A    between atoms: O3_7  and  C5_8 
REMARK    7  A    between atoms: C5_8  and  C6_9 
ROOT
ATOM      1  C4  <0> d          -2.881  -2.427   0.017  0.00  0.00     0.100 C 
ATOM      2  H6  <0> d          -3.409  -2.103   0.913  0.00  0.00     0.089 H 
ATOM      3  H7  <0> d          -3.426  -2.093  -0.867  0.00  0.00     0.089 H 
ENDROOT
BRANCH   1   4
ATOM      4  C3  <0> d          -1.496  -1.832   0.006  0.00  0.00     0.282 C 
ATOM      5  O2  <0> d          -0.528  -2.555  -0.007  0.00  0.00    -0.263 OA
BRANCH   4   6
ATOM      6  O1  <0> d          -1.339  -0.499   0.012  0.00  0.00    -0.320 OA
BRANCH   6   7
ATOM      7  C2  <0> d           0.002  -0.004   0.002  0.00  0.00     0.026 C 
ATOM      8  H4  <0> d           0.512  -0.356  -0.895  0.00  0.00     0.074 H 
ATOM      9  H5  <0> d           0.529  -0.365   0.885  0.00  0.00     0.074 H 
BRANCH   7  10
ATOM     10  C1  <0> d          -0.019   1.526   0.010  0.00  0.00    -0.056 C 
ATOM     11  H1  <0> d           1.004   1.903   0.003  0.00  0.00     0.030 H 
ATOM     12  H2  <0> d          -0.546   1.887  -0.873  0.00  0.00     0.030 H 
ATOM     13  H3  <0> d          -0.529   1.877   0.907  0.00  0.00     0.030 H 
ENDBRANCH   7  10
ENDBRANCH   6   7
ENDBRANCH   4   6
ENDBRANCH   1   4
BRANCH   1  14
ATOM     14  O3  <0> d          -2.787  -3.852   0.008  0.00  0.00    -0.378 OA
BRANCH  14  15
ATOM     15  C5  <0> d          -4.051  -4.518   0.017  0.00  0.00     0.035 C 
ATOM     16  H8  <0> d          -4.604  -4.238   0.913  0.00  0.00     0.080 H 
ATOM     17  H9  <0> d          -4.620  -4.228  -0.867  0.00  0.00     0.080 H 
BRANCH  15  18
ATOM     18  C6  <0> d          -3.833  -6.010   0.006  0.00  0.00    -0.090 C 
ATOM     19  C7  <0> d          -4.525  -6.778   0.811  0.00  0.00    -0.123 C 
ATOM     20  H11 <0> d          -4.369  -7.847   0.804  0.00  0.00     0.066 H 
ATOM     21  H12 <0> d          -5.251  -6.343   1.482  0.00  0.00     0.066 H 
ATOM     22  H10 <0> d          -3.107  -6.445  -0.664  0.00  0.00     0.078 H 
ENDBRANCH  15  18
ENDBRANCH  14  15
ENDBRANCH   1  14
TORSDOF 7
