REMARK  1 active torsions:
REMARK  status: ('A' for Active; 'I' for Inactive)
REMARK    1  A    between atoms: C1_1  and  C2_2 
ROOT
ATOM      1  C2  <0> d           0.002  -0.004   0.002  0.00  0.00    -0.041 A 
ATOM      2  C3  <0> d           0.006  -0.689  -1.196  0.00  0.00    -0.076 A 
ATOM      3  C4  <0> d           0.025  -2.072  -1.205  0.00  0.00    -0.082 A 
ATOM      4  C5  <0> d           0.039  -2.779  -0.015  0.00  0.00    -0.082 A 
ATOM      5  C6  <0> d           0.035  -2.107   1.189  0.00  0.00    -0.062 A 
ATOM      6  C7  <0> d           0.023  -0.710   1.206  0.00  0.00     0.050 A 
ATOM      7  C8  <0> d           0.025  -0.006   2.453  0.00  0.00     0.100 C 
ATOM      8  N1  <0> d           0.027   0.553   3.442  0.00  0.00    -0.191 NA
ATOM      9  H4  <0> d          -0.006  -0.144  -2.128  0.00  0.00     0.084 H 
ATOM     10  H5  <0> d           0.027  -2.603  -2.145  0.00  0.00     0.083 H 
ATOM     11  H6  <0> d           0.053  -3.858  -0.030  0.00  0.00     0.083 H 
ATOM     12  H7  <0> d           0.046  -2.659   2.117  0.00  0.00     0.085 H 
ENDROOT
BRANCH   1  13
ATOM     13  C1  <0> d          -0.018   1.503   0.010  0.00  0.00    -0.050 C 
ATOM     14  H1  <0> d           1.004   1.880   0.003  0.00  0.00     0.033 H 
ATOM     15  H2  <0> d          -0.545   1.864  -0.873  0.00  0.00     0.033 H 
ATOM     16  H3  <0> d          -0.529   1.854   0.907  0.00  0.00     0.033 H 
ENDBRANCH   1  13
TORSDOF 1
