REMARK  2 active torsions:
REMARK  status: ('A' for Active; 'I' for Inactive)
REMARK    1  A    between atoms: N1_4  and  C4_6 
REMARK    2  A    between atoms: C4_6  and  C5_7 
ROOT
ATOM      1  C1  <0> d          -0.697   3.194   0.025  0.00  0.00     0.044 A 
ATOM      2  C2  <0> d          -1.117   1.859   0.017  0.00  0.00     0.070 A 
ATOM      3  C3  <0> d          -0.013   1.076   0.008  0.00  0.00     0.021 A 
ATOM      4  N1  <0> d           1.067   1.887   0.002  0.00  0.00    -0.270 N 
ATOM      5  N2  <0> d           0.611   3.212   0.013  0.00  0.00    -0.183 NA
ATOM      6 Cl1  <0> d          -2.762   1.306   0.021  0.00  0.00    -0.081 Cl
ATOM      7  H1  <0> d          -1.342   4.060   0.035  0.00  0.00     0.120 H 
ATOM      8  H2  <0> d           0.002  -0.004   0.002  0.00  0.00     0.116 H 
ENDROOT
BRANCH   4   9
ATOM      9  C4  <0> d           2.468   1.458  -0.012  0.00  0.00     0.096 C 
ATOM     10  H3  <0> d           2.951   1.762   0.916  0.00  0.00     0.084 H 
ATOM     11  H4  <0> d           2.514   0.373  -0.107  0.00  0.00     0.084 H 
BRANCH   9  12
ATOM     12  C5  <0> d           3.177   2.094  -1.180  0.00  0.00     0.193 C 
ATOM     13  O1  <0> d           2.574   2.832  -1.923  0.00  0.00    -0.647 OA
ATOM     14  O2  <0> d           4.478   1.843  -1.393  0.00  0.00    -0.647 OA
ENDBRANCH   9  12
ENDBRANCH   4   9
TORSDOF 2
