REMARK  5 active torsions:
REMARK  status: ('A' for Active; 'I' for Inactive)
REMARK    1  A    between atoms: C1_1  and  C2_2 
REMARK    2  A    between atoms: C2_2  and  O1_3 
REMARK    3  A    between atoms: O1_3  and  C3_4 
REMARK    4  A    between atoms: C3_4  and  C4_6 
REMARK    5  A    between atoms: C3_4  and  O2_10 
ROOT
ATOM      1  O1  <0> d           1.322   2.020   0.000  0.00  0.00    -0.354 OA
ENDROOT
BRANCH   1   2
ATOM      2  C2  <0> d          -0.019   1.526   0.010  0.00  0.00     0.020 C 
ATOM      3  H5  <0> d          -0.546   1.887  -0.873  0.00  0.00     0.073 H 
ATOM      4  H6  <0> d          -0.529   1.877   0.907  0.00  0.00     0.073 H 
BRANCH   2   5
ATOM      5  C1  <0> d           0.002  -0.004   0.002  0.00  0.00    -0.056 C 
ATOM      6  H2  <0> d           0.529  -0.365   0.885  0.00  0.00     0.030 H 
ATOM      7  H3  <0> d          -1.020  -0.381   0.010  0.00  0.00     0.030 H 
ATOM      8  H4  <0> d           0.512  -0.356  -0.895  0.00  0.00     0.030 H 
ENDBRANCH   2   5
ENDBRANCH   1   2
BRANCH   1   9
ATOM      9  C3  <0> d           1.415   3.446   0.007  0.00  0.00     0.223 C 
ATOM     10  H1  <0> d           0.859   3.843   0.856  0.00  0.00     0.143 H 
BRANCH   9  11
ATOM     11  C4  <0> d           2.884   3.861   0.121  0.00  0.00     0.437 C 
ATOM     12  F1  <0> d           3.598   3.352  -0.969  0.00  0.00    -0.166 F 
ATOM     13  F2  <0> d           2.975   5.257   0.128  0.00  0.00    -0.166 F 
ATOM     14  F3  <0> d           3.421   3.352   1.309  0.00  0.00    -0.166 F 
ENDBRANCH   9  11
BRANCH   9  15
ATOM     15  O2  <0> d           0.867   3.965  -1.206  0.00  0.00    -0.364 OA
ATOM     16  H7  <0> d           1.314   3.654  -2.005  0.00  0.00     0.213 HD
ENDBRANCH   9  15
ENDBRANCH   1   9
TORSDOF 5
