REMARK  0 active torsions:
REMARK  status: ('A' for Active; 'I' for Inactive)
ROOT
ATOM      1  C1  <0> d          -0.019   1.530   0.011  0.00  0.00    -0.058 C 
ATOM      2  C2  <0> d           1.414   2.055  -0.000  0.00  0.00    -0.055 C 
ATOM      3  C3  <0> d           2.199   1.538   1.203  0.00  0.00     0.026 A 
ATOM      4  H1  <0> d           2.620   2.305   1.853  0.00  0.00     0.050 H 
ATOM      5  C4  <0> d           1.808   0.209   1.847  0.00  0.00     0.076 A 
ATOM      6  H2  <0> d           1.962   0.111   2.921  0.00  0.00     0.061 H 
ATOM      7  C5  <0> d           3.036   0.271   0.972  0.00  0.00     0.259 A 
ATOM      8  F1  <0> d           2.958  -0.335  -0.286  0.00  0.00    -0.205 F 
ATOM      9  F2  <0> d           4.283   0.197   1.601  0.00  0.00    -0.205 F 
ATOM     10  C6  <0> d           0.586  -0.488   1.301  0.00  0.00     0.137 C 
ATOM     11  O1  <0> d           0.052  -1.379   1.917  0.00  0.00    -0.297 OA
ATOM     12  C7  <0> d           0.002  -0.004   0.002  0.00  0.00    -0.009 C 
ATOM     13  H3  <0> d          -0.528   1.882   0.907  0.00  0.00     0.033 H 
ATOM     14  H4  <0> d          -0.545   1.891  -0.873  0.00  0.00     0.033 H 
ATOM     15  H5  <0> d           1.908   1.729  -0.916  0.00  0.00     0.033 H 
ATOM     16  H6  <0> d           1.396   3.144   0.026  0.00  0.00     0.033 H 
ATOM     17  H7  <0> d          -1.010  -0.387  -0.130  0.00  0.00     0.044 H 
ATOM     18  H8  <0> d           0.642  -0.361  -0.805  0.00  0.00     0.044 H 
ENDROOT
TORSDOF 0
