REMARK  3 active torsions:
REMARK  status: ('A' for Active; 'I' for Inactive)
REMARK    1  A    between atoms: C4_4  and  O1_6 
REMARK    2  A    between atoms: O1_6  and  C6_7 
REMARK    3  A    between atoms: C6_7  and  C7_8 
ROOT
ATOM      1  C1  <0> d           2.232   0.792   0.586  0.00  0.00    -0.063 C 
ATOM      2  C2  <0> d           1.486  -0.425  -0.014  0.00  0.00    -0.063 C 
ATOM      3  C3  <0> d           0.002  -0.004   0.002  0.00  0.00    -0.041 C 
ATOM      4  C4  <0> d          -0.019   1.534   0.011  0.00  0.00     0.039 C 
ATOM      5  C5  <0> d           1.453   1.995  -0.001  0.00  0.00    -0.041 C 
ATOM      6  H1  <0> d           3.284   0.846   0.268  0.00  0.00     0.033 H 
ATOM      7  H2  <0> d           2.180   0.823   1.685  0.00  0.00     0.033 H 
ATOM      8  H3  <0> d           1.851  -0.611  -1.035  0.00  0.00     0.033 H 
ATOM      9  H4  <0> d           1.671  -1.312   0.609  0.00  0.00     0.033 H 
ATOM     10  H5  <0> d          -0.501  -0.398  -0.893  0.00  0.00     0.036 H 
ATOM     11  H6  <0> d          -0.483  -0.408   0.903  0.00  0.00     0.036 H 
ATOM     12  H7  <0> d          -0.598   1.953   0.847  0.00  0.00     0.083 H 
ATOM     13  H8  <0> d           1.614   2.881   0.632  0.00  0.00     0.036 H 
ATOM     14  H9  <0> d           1.813   2.203  -1.020  0.00  0.00     0.036 H 
ENDROOT
BRANCH   4  15
ATOM     15  O1  <0> d          -0.693   2.021  -1.151  0.00  0.00    -0.376 OA
BRANCH  15  16
ATOM     16  C6  <0> d          -1.355   3.273  -0.958  0.00  0.00     0.100 C 
ATOM     17  H10 <0> d          -2.110   3.169  -0.164  0.00  0.00     0.091 H 
ATOM     18  H11 <0> d          -0.619   4.036  -0.666  0.00  0.00     0.091 H 
BRANCH  16  19
ATOM     19  C7  <0> d          -2.029   3.688  -2.240  0.00  0.00     0.197 C 
ATOM     20  O2  <0> d          -1.950   2.985  -3.219  0.00  0.00    -0.646 OA
ATOM     21  O3  <0> d          -2.717   4.840  -2.294  0.00  0.00    -0.646 OA
ENDBRANCH  16  19
ENDBRANCH  15  16
ENDBRANCH   4  15
TORSDOF 3
