REMARK  2 active torsions:
REMARK  status: ('A' for Active; 'I' for Inactive)
REMARK    1  A    between atoms: C1_1  and  N1_2 
REMARK    2  A    between atoms: N1_2  and  C2_3 
ROOT
ATOM      1  C2  <0> d          -1.228   1.757   0.017  0.00  0.00     0.140 A 
ATOM      2  C3  <0> d          -0.013   1.076   0.008  0.00  0.00     0.046 A 
ATOM      3  N2  <0> d           1.120   1.752   0.001  0.00  0.00    -0.268 NA
ATOM      4  C4  <0> d           1.103   3.075   0.008  0.00  0.00     0.019 A 
ATOM      5  C5  <0> d          -0.100   3.754   0.022  0.00  0.00     0.021 A 
ATOM      6  N3  <0> d          -1.240   3.084   0.029  0.00  0.00    -0.241 NA
ATOM      7  H5  <0> d           0.002  -0.004   0.002  0.00  0.00     0.120 H 
ATOM      8  H6  <0> d           2.032   3.625   0.001  0.00  0.00     0.117 H 
ATOM      9  H7  <0> d          -0.110   4.834   0.027  0.00  0.00     0.117 H 
ENDROOT
BRANCH   1  10
ATOM     10  N1  <0> d          -2.424   1.049   0.020  0.00  0.00    -0.378 N 
ATOM     11  H4  <0> d          -3.269   1.525   0.026  0.00  0.00     0.160 HD
BRANCH  10  12
ATOM     12  C1  <0> d          -2.408  -0.416   0.012  0.00  0.00    -0.020 C 
ATOM     13  H1  <0> d          -1.895  -0.769  -0.882  0.00  0.00     0.056 H 
ATOM     14  H2  <0> d          -1.886  -0.778   0.898  0.00  0.00     0.056 H 
ATOM     15  H3  <0> d          -3.432  -0.790   0.015  0.00  0.00     0.056 H 
ENDBRANCH  10  12
ENDBRANCH   1  10
TORSDOF 2
