REMARK  3 active torsions:
REMARK  status: ('A' for Active; 'I' for Inactive)
REMARK    1  A    between atoms: C1_1  and  C2_2 
REMARK    2  A    between atoms: C6_7  and  C8_10 
REMARK    3  A    between atoms: C6_7  and  C9_11 
ROOT
ATOM      1  C2  <0> d          -0.729   1.579   1.267  0.00  0.00     0.001 C 
ATOM      2  H1  <0> d          -1.667   1.233   1.274  0.00  0.00     0.051 H 
ATOM      3  C3  <0> d          -0.743   3.111   1.284  0.00  0.00    -0.056 C 
ATOM      4  C4  <0> d          -1.329   3.599   2.610  0.00  0.00    -0.063 C 
ATOM      5  C5  <0> d          -0.434   3.159   3.770  0.00  0.00    -0.052 C 
ATOM      6  C6  <0> d          -0.412   1.629   3.844  0.00  0.00     0.013 C 
ATOM      7  C7  <0> d           0.005   1.088   2.495  0.00  0.00     0.138 C 
ATOM      8  O1  <0> d           0.902   0.284   2.400  0.00  0.00    -0.297 OA
ATOM      9  H5  <0> d           0.275   3.486   1.179  0.00  0.00     0.034 H 
ATOM     10  H6  <0> d          -1.352   3.478   0.457  0.00  0.00     0.034 H 
ATOM     11  H7  <0> d          -2.325   3.176   2.741  0.00  0.00     0.033 H 
ATOM     12  H8  <0> d          -1.397   4.687   2.598  0.00  0.00     0.033 H 
ATOM     13  H9  <0> d          -0.824   3.563   4.704  0.00  0.00     0.034 H 
ATOM     14  H10 <0> d           0.579   3.530   3.609  0.00  0.00     0.034 H 
ENDROOT
BRANCH   6  15
ATOM     15  C8  <0> d          -1.808   1.112   4.196  0.00  0.00    -0.063 C 
ATOM     16  H11 <0> d          -1.794   0.022   4.231  0.00  0.00     0.029 H 
ATOM     17  H12 <0> d          -2.106   1.503   5.169  0.00  0.00     0.029 H 
ATOM     18  H13 <0> d          -2.519   1.441   3.438  0.00  0.00     0.029 H 
ENDBRANCH   6  15
BRANCH   6  19
ATOM     19  C9  <0> d           0.588   1.176   4.911  0.00  0.00    -0.063 C 
ATOM     20  H14 <0> d           1.580   1.552   4.661  0.00  0.00     0.029 H 
ATOM     21  H15 <0> d           0.285   1.568   5.882  0.00  0.00     0.029 H 
ATOM     22  H16 <0> d           0.610   0.087   4.949  0.00  0.00     0.029 H 
ENDBRANCH   6  19
BRANCH   1  23
ATOM     23  C1  <0> d          -0.013   1.086   0.008  0.00  0.00    -0.066 C 
ATOM     24  H2  <0> d           0.002  -0.004   0.002  0.00  0.00     0.028 H 
ATOM     25  H3  <0> d           1.010   1.463   0.000  0.00  0.00     0.028 H 
ATOM     26  H4  <0> d          -0.540   1.447  -0.875  0.00  0.00     0.028 H 
ENDBRANCH   1  23
TORSDOF 3
