REMARK  1 active torsions:
REMARK  status: ('A' for Active; 'I' for Inactive)
REMARK    1  A    between atoms: C1_1  and  C2_2 
ROOT
ATOM      1  C2  <0> d           2.377   1.340  -0.013  0.00  0.00     0.031 A 
ATOM      2  C3  <0> d           1.192   2.060   0.002  0.00  0.00    -0.057 A 
ATOM      3  C4  <0> d          -0.017   1.388   0.010  0.00  0.00    -0.053 A 
ATOM      4  C5  <0> d           0.002  -0.004   0.002  0.00  0.00     0.061 A 
ATOM      5  C6  <0> d           1.243  -0.669  -0.013  0.00  0.00     0.085 A 
ATOM      6  N1  <0> d           2.378   0.025  -0.021  0.00  0.00    -0.252 NA
ATOM      7  C7  <0> d           0.930  -2.099  -0.018  0.00  0.00    -0.038 A 
ATOM      8  C8  <0> d          -0.409  -2.210  -0.005  0.00  0.00    -0.020 A 
ATOM      9  N2  <0> d          -0.980  -0.969   0.007  0.00  0.00    -0.364 N 
ATOM     10  H1  <0> d          -1.934  -0.793   0.017  0.00  0.00     0.165 HD
ATOM     11  H5  <0> d           1.213   3.139   0.007  0.00  0.00     0.086 H 
ATOM     12  H6  <0> d          -0.951   1.929   0.017  0.00  0.00     0.087 H 
ATOM     13  H7  <0> d           1.641  -2.912  -0.029  0.00  0.00     0.089 H 
ATOM     14  H8  <0> d          -0.954  -3.143  -0.004  0.00  0.00     0.111 H 
ENDROOT
BRANCH   1  15
ATOM     15  C1  <0> d           3.691   2.079  -0.021  0.00  0.00    -0.035 C 
ATOM     16  H2  <0> d           3.998   2.263  -1.051  0.00  0.00     0.035 H 
ATOM     17  H3  <0> d           3.575   3.030   0.498  0.00  0.00     0.035 H 
ATOM     18  H4  <0> d           4.449   1.479   0.482  0.00  0.00     0.035 H 
ENDBRANCH   1  15
TORSDOF 1
