REMARK  5 active torsions:
REMARK  status: ('A' for Active; 'I' for Inactive)
REMARK    1  A    between atoms: C1_1  and  O1_2 
REMARK    2  A    between atoms: O1_2  and  C2_3 
REMARK    3  A    between atoms: C2_3  and  C3_4 
REMARK    4  A    between atoms: C3_4  and  N1_5 
REMARK    5  A    between atoms: N1_5  and  C4_6 
ROOT
ATOM      1  N1  <0> d           0.002  -0.004   0.002  0.00  0.00    -0.388 N 
ATOM      2  H8  <0> d           0.849  -0.478  -0.009  0.00  0.00     0.159 HD
ENDROOT
BRANCH   1   3
ATOM      3  C3  <0> d          -1.256  -0.754   0.010  0.00  0.00     0.012 C 
ATOM      4  H6  <0> d          -1.823  -0.503   0.907  0.00  0.00     0.067 H 
ATOM      5  H7  <0> d          -1.840  -0.493  -0.873  0.00  0.00     0.067 H 
BRANCH   3   6
ATOM      6  C2  <0> d          -0.957  -2.254  -0.001  0.00  0.00     0.034 C 
ATOM      7  H4  <0> d          -1.890  -2.811  -0.085  0.00  0.00     0.076 H 
ATOM      8  H5  <0> d          -0.315  -2.490  -0.850  0.00  0.00     0.076 H 
BRANCH   6   9
ATOM      9  O1  <0> d          -0.293  -2.616   1.212  0.00  0.00    -0.394 OA
BRANCH   9  10
ATOM     10  C1  <0> d           0.034  -4.004   1.304  0.00  0.00     0.004 C 
ATOM     11  H1  <0> d          -0.879  -4.597   1.247  0.00  0.00     0.066 H 
ATOM     12  H2  <0> d           0.695  -4.277   0.481  0.00  0.00     0.066 H 
ATOM     13  H3  <0> d           0.534  -4.197   2.252  0.00  0.00     0.066 H 
ENDBRANCH   9  10
ENDBRANCH   6   9
ENDBRANCH   3   6
ENDBRANCH   1   3
BRANCH   1  14
ATOM     14  C4  <0> d          -0.017   1.393   0.010  0.00  0.00     0.028 A 
ATOM     15  C9  <0> d           1.176   2.105   0.002  0.00  0.00    -0.058 A 
ATOM     16  C8  <0> d           1.153   3.486   0.009  0.00  0.00    -0.081 A 
ATOM     17  H13 <0> d           2.119   1.580  -0.010  0.00  0.00     0.086 H 
ATOM     18  C7  <0> d          -0.054   4.159   0.024  0.00  0.00    -0.083 A 
ATOM     19  H12 <0> d           2.080   4.040   0.004  0.00  0.00     0.083 H 
ATOM     20  C6  <0> d          -1.243   3.453   0.031  0.00  0.00    -0.081 A 
ATOM     21  H11 <0> d          -0.069   5.239   0.029  0.00  0.00     0.083 H 
ATOM     22  C5  <0> d          -1.228   2.072   0.019  0.00  0.00    -0.058 A 
ATOM     23  H10 <0> d          -2.185   3.982   0.042  0.00  0.00     0.083 H 
ATOM     24  H9  <0> d          -2.157   1.521   0.021  0.00  0.00     0.086 H 
ENDBRANCH   1  14
TORSDOF 5
