REMARK  5 active torsions:
REMARK  status: ('A' for Active; 'I' for Inactive)
REMARK    1  A    between atoms: C1_1  and  O1_2 
REMARK    2  A    between atoms: O1_2  and  C2_3 
REMARK    3  A    between atoms: C2_3  and  O3_5 
REMARK    4  A    between atoms: O3_5  and  C3_6 
REMARK    5  A    between atoms: C3_6  and  C4_7 
ROOT
ATOM      1  O3  <0> d          -2.155   3.698  -0.936  0.00  0.00    -0.294 OA
ENDROOT
BRANCH   1   2
ATOM      2  C2  <0> d          -2.299   5.031  -1.052  0.00  0.00     0.406 C 
ATOM      3  O2  <0> d          -1.625   5.776  -0.370  0.00  0.00    -0.230 OA
BRANCH   2   4
ATOM      4  O1  <0> d          -3.189   5.538  -1.925  0.00  0.00    -0.303 OA
BRANCH   4   5
ATOM      5  C1  <0> d          -3.290   6.984  -1.997  0.00  0.00     0.015 C 
ATOM      6  H1  <0> d          -2.325   7.402  -2.287  0.00  0.00     0.067 H 
ATOM      7  H2  <0> d          -4.042   7.259  -2.737  0.00  0.00     0.067 H 
ATOM      8  H3  <0> d          -3.578   7.378  -1.022  0.00  0.00     0.067 H 
ENDBRANCH   4   5
ENDBRANCH   2   4
ENDBRANCH   1   2
BRANCH   1   9
ATOM      9  C3  <0> d          -1.176   3.222   0.025  0.00  0.00     0.045 C 
ATOM     10  H4  <0> d          -1.442   3.576   1.021  0.00  0.00     0.081 H 
ATOM     11  H5  <0> d          -0.190   3.600  -0.243  0.00  0.00     0.081 H 
BRANCH   9  12
ATOM     12  C4  <0> d          -1.156   1.715   0.017  0.00  0.00    -0.089 C 
ATOM     13  C5  <0> d          -0.013   1.076   0.008  0.00  0.00    -0.123 C 
ATOM     14  H7  <0> d           0.002  -0.004   0.002  0.00  0.00     0.066 H 
ATOM     15  H8  <0> d           0.915   1.629   0.002  0.00  0.00     0.066 H 
ATOM     16  H6  <0> d          -2.084   1.163   0.018  0.00  0.00     0.078 H 
ENDBRANCH   9  12
ENDBRANCH   1   9
TORSDOF 5
