REMARK  4 active torsions:
REMARK  status: ('A' for Active; 'I' for Inactive)
REMARK    1  A    between atoms: C1_1  and  O1_2 
REMARK    2  A    between atoms: O1_2  and  C2_3 
REMARK    3  A    between atoms: C2_3  and  O2_9 
REMARK    4  A    between atoms: O2_9  and  C8_10 
ROOT
ATOM      1  C2  <0> d           1.246   2.018  -0.011  0.00  0.00     0.162 C 
ATOM      2  C3  <0> d           1.961   1.365   1.174  0.00  0.00    -0.013 C 
ATOM      3  C4  <0> d           3.406   1.862   1.234  0.00  0.00    -0.060 C 
ATOM      4  C5  <0> d           3.416   3.382   1.408  0.00  0.00    -0.065 C 
ATOM      5  C6  <0> d           2.701   4.035   0.223  0.00  0.00    -0.060 C 
ATOM      6  C7  <0> d           1.255   3.538   0.163  0.00  0.00    -0.013 C 
ATOM      7  H4  <0> d           1.447   1.628   2.098  0.00  0.00     0.041 H 
ATOM      8  H5  <0> d           1.954   0.282   1.050  0.00  0.00     0.041 H 
ATOM      9  H6  <0> d           3.920   1.599   0.310  0.00  0.00     0.033 H 
ATOM     10  H7  <0> d           3.916   1.397   2.078  0.00  0.00     0.033 H 
ATOM     11  H8  <0> d           4.445   3.737   1.451  0.00  0.00     0.033 H 
ATOM     12  H9  <0> d           2.901   3.646   2.332  0.00  0.00     0.033 H 
ATOM     13  H10 <0> d           3.215   3.772  -0.701  0.00  0.00     0.033 H 
ATOM     14  H11 <0> d           2.707   5.118   0.347  0.00  0.00     0.033 H 
ATOM     15  H12 <0> d           0.746   4.003  -0.682  0.00  0.00     0.041 H 
ATOM     16  H13 <0> d           0.741   3.801   1.087  0.00  0.00     0.041 H 
ENDROOT
BRANCH   1  17
ATOM     17  O1  <0> d          -0.104   1.553  -0.068  0.00  0.00    -0.360 OA
BRANCH  17  18
ATOM     18  C1  <0> d          -0.844   2.052  -1.184  0.00  0.00     0.007 C 
ATOM     19  H1  <0> d          -0.970   3.130  -1.083  0.00  0.00     0.066 H 
ATOM     20  H2  <0> d          -0.304   1.834  -2.105  0.00  0.00     0.066 H 
ATOM     21  H3  <0> d          -1.823   1.573  -1.214  0.00  0.00     0.066 H 
ENDBRANCH  17  18
ENDBRANCH   1  17
BRANCH   1  22
ATOM     22  O2  <0> d           1.920   1.673  -1.223  0.00  0.00    -0.360 OA
BRANCH  22  23
ATOM     23  C8  <0> d           1.896   0.276  -1.524  0.00  0.00     0.007 C 
ATOM     24  H14 <0> d           2.469  -0.268  -0.773  0.00  0.00     0.066 H 
ATOM     25  H15 <0> d           0.865  -0.079  -1.522  0.00  0.00     0.066 H 
ATOM     26  H16 <0> d           2.336   0.108  -2.507  0.00  0.00     0.066 H 
ENDBRANCH  22  23
ENDBRANCH   1  22
TORSDOF 4
