REMARK  1 active torsions:
REMARK  status: ('A' for Active; 'I' for Inactive)
REMARK    1  A    between atoms: C3_3  and  C8_9 
ROOT
ATOM      1  C1  <0> d          -0.017   1.373   0.010  0.00  0.00    -0.062 A 
ATOM      2  C2  <0> d           0.002  -0.004   0.002  0.00  0.00    -0.065 A 
ATOM      3  C3  <0> d           1.221  -0.686  -0.013  0.00  0.00     0.040 A 
ATOM      4  C4  <0> d           2.421   0.029  -0.020  0.00  0.00    -0.065 A 
ATOM      5  C5  <0> d           2.402   1.406  -0.012  0.00  0.00    -0.062 A 
ATOM      6  C6  <0> d           1.183   2.088   0.002  0.00  0.00     0.044 A 
ATOM      7  C7  <0> d           1.164   3.520   0.009  0.00  0.00     0.099 C 
ATOM      8  N1  <0> d           1.149   4.655   0.015  0.00  0.00    -0.191 NA
ATOM      9  H1  <0> d          -0.959   1.900   0.017  0.00  0.00     0.085 H 
ATOM     10  H2  <0> d          -0.926  -0.557   0.008  0.00  0.00     0.085 H 
ATOM     11  H3  <0> d           3.364  -0.498  -0.031  0.00  0.00     0.085 H 
ATOM     12  H4  <0> d           3.330   1.958  -0.017  0.00  0.00     0.085 H 
ENDROOT
BRANCH   3  13
ATOM     13  C8  <0> d           1.241  -2.164  -0.021  0.00  0.00     0.209 C 
ATOM     14  O1  <0> d           0.198  -2.785  -0.014  0.00  0.00    -0.644 OA
ATOM     15  O2  <0> d           2.417  -2.821  -0.035  0.00  0.00    -0.644 OA
ENDBRANCH   3  13
TORSDOF 1
