REMARK  7 active torsions:
REMARK  status: ('A' for Active; 'I' for Inactive)
REMARK    1  A    between atoms: C1_1  and  C2_2 
REMARK    2  A    between atoms: C2_2  and  C3_4 
REMARK    3  A    between atoms: C2_2  and  O1_9 
REMARK    4  A    between atoms: C3_4  and  C4_5 
REMARK    5  A    between atoms: C4_5  and  C5_6 
REMARK    6  A    between atoms: C5_6  and  C6_7 
REMARK    7  A    between atoms: C5_6  and  C7_8 
ROOT
ATOM      1  C3  <0> d          -1.412  -0.526   0.013  0.00  0.00     0.034 C 
ATOM      2  H5  <0> d          -2.088  -0.270  -0.789  0.00  0.00     0.064 H 
ENDROOT
BRANCH   1   3
ATOM      3  C2  <0> d           0.002  -0.004   0.002  0.00  0.00     0.046 C 
ATOM      4  H1  <0> d           0.529  -0.365   0.885  0.00  0.00     0.084 H 
BRANCH   3   5
ATOM      5  C1  <0> d          -0.019   1.526   0.010  0.00  0.00    -0.051 C 
ATOM      6  H2  <0> d           1.004   1.903   0.003  0.00  0.00     0.030 H 
ATOM      7  H3  <0> d          -0.546   1.887  -0.873  0.00  0.00     0.030 H 
ATOM      8  H4  <0> d          -0.529   1.877   0.907  0.00  0.00     0.030 H 
ENDBRANCH   3   5
BRANCH   3   9
ATOM      9  O1  <0> d           0.671  -0.465  -1.174  0.00  0.00    -0.395 OA
ATOM     10  H12 <0> d           1.588  -0.167  -1.247  0.00  0.00     0.210 HD
ENDBRANCH   3   9
ENDBRANCH   1   3
BRANCH   1  11
ATOM     11  C4  <0> d          -1.820  -1.288   0.993  0.00  0.00    -0.164 C 
BRANCH  11  12
ATOM     12  C5  <0> d          -2.228  -2.050   1.973  0.00  0.00     0.022 C 
BRANCH  12  13
ATOM     13  C6  <0> d          -2.078  -3.547   1.876  0.00  0.00    -0.058 C 
ATOM     14  H6  <0> d          -1.113  -3.843   2.289  0.00  0.00     0.029 H 
ATOM     15  H7  <0> d          -2.877  -4.029   2.438  0.00  0.00     0.029 H 
ATOM     16  H8  <0> d          -2.134  -3.851   0.831  0.00  0.00     0.029 H 
ENDBRANCH  12  13
BRANCH  12  17
ATOM     17  C7  <0> d          -2.848  -1.433   3.200  0.00  0.00    -0.058 C 
ATOM     18  H9  <0> d          -2.871  -0.349   3.089  0.00  0.00     0.029 H 
ATOM     19  H10 <0> d          -3.864  -1.808   3.321  0.00  0.00     0.029 H 
ATOM     20  H11 <0> d          -2.256  -1.696   4.077  0.00  0.00     0.029 H 
ENDBRANCH  12  17
ENDBRANCH  11  12
ENDBRANCH   1  11
TORSDOF 7
