REMARK  3 active torsions:
REMARK  status: ('A' for Active; 'I' for Inactive)
REMARK    1  A    between atoms: C1_1  and  O1_2 
REMARK    2  A    between atoms: O1_2  and  C2_3 
REMARK    3  A    between atoms: C6_8  and  N2_9 
ROOT
ATOM      1  C2  <0> d          -0.787   2.891   1.346  0.00  0.00     0.097 A 
ATOM      2  C3  <0> d          -0.258   3.767   0.405  0.00  0.00    -0.032 A 
ATOM      3  C4  <0> d          -0.391   5.128   0.602  0.00  0.00     0.004 A 
ATOM      4  N1  <0> d          -1.000   5.602   1.672  0.00  0.00    -0.271 NA
ATOM      5  C5  <0> d          -1.512   4.808   2.593  0.00  0.00     0.030 A 
ATOM      6  C6  <0> d          -1.426   3.430   2.467  0.00  0.00     0.077 A 
ATOM      7  H4  <0> d           0.246   3.389  -0.472  0.00  0.00     0.090 H 
ATOM      8  H5  <0> d           0.013   5.813  -0.128  0.00  0.00     0.114 H 
ATOM      9  H6  <0> d          -2.003   5.236   3.454  0.00  0.00     0.118 H 
ENDROOT
BRANCH   1  10
ATOM     10  O1  <0> d          -0.682   1.547   1.184  0.00  0.00    -0.354 OA
BRANCH  10  11
ATOM     11  C1  <0> d          -0.013   1.086   0.008  0.00  0.00     0.010 C 
ATOM     12  H1  <0> d           0.002  -0.004   0.002  0.00  0.00     0.066 H 
ATOM     13  H2  <0> d           1.010   1.463   0.000  0.00  0.00     0.066 H 
ATOM     14  H3  <0> d          -0.540   1.447  -0.875  0.00  0.00     0.066 H 
ENDBRANCH  10  11
ENDBRANCH   1  10
BRANCH   6  15
ATOM     15  N2  <0> d          -1.970   2.592   3.447  0.00  0.00    -0.396 N 
ATOM     16  H7  <0> d          -1.906   1.629   3.351  0.00  0.00     0.156 HD
ATOM     17  H8  <0> d          -2.412   2.974   4.222  0.00  0.00     0.156 HD
ENDBRANCH   6  15
TORSDOF 3
