REMARK  5 active torsions:
REMARK  status: ('A' for Active; 'I' for Inactive)
REMARK    1  A    between atoms: C1_1  and  C2_2 
REMARK    2  A    between atoms: C2_2  and  C3_3 
REMARK    3  A    between atoms: C2_2  and  C4_4 
REMARK    4  A    between atoms: C2_2  and  O2_11 
REMARK    5  A    between atoms: C5_5  and  C6_6 
ROOT
ATOM      1  C2  <0> d           6.178   0.991  -0.053  0.00  0.00     0.114 C 
ENDROOT
BRANCH   1   2
ATOM      2  C1  <0> d           6.615   2.457  -0.049  0.00  0.00    -0.038 C 
ATOM      3  H1  <0> d           6.236   2.947   0.848  0.00  0.00     0.033 H 
ATOM      4  H2  <0> d           7.704   2.511  -0.059  0.00  0.00     0.033 H 
ATOM      5  H3  <0> d           6.218   2.957  -0.932  0.00  0.00     0.033 H 
ENDBRANCH   1   2
BRANCH   1   6
ATOM      6  C3  <0> d           6.735   0.289   1.187  0.00  0.00    -0.038 C 
ATOM      7  H4  <0> d           6.423  -0.755   1.184  0.00  0.00     0.033 H 
ATOM      8  H5  <0> d           7.824   0.343   1.177  0.00  0.00     0.033 H 
ATOM      9  H6  <0> d           6.355   0.779   2.084  0.00  0.00     0.033 H 
ENDBRANCH   1   6
BRANCH   1  10
ATOM     10  C4  <0> d           4.707   0.918  -0.039  0.00  0.00    -0.064 C 
ATOM     11  C5  <0> d           3.535   0.859  -0.028  0.00  0.00    -0.062 C 
BRANCH  11  12
ATOM     12  C6  <0> d           2.105   0.788  -0.014  0.00  0.00     0.042 A 
ATOM     13  C9  <0> d           1.231   1.830   0.000  0.00  0.00     0.036 A 
ATOM     14  O1  <0> d          -0.016   1.337   0.009  0.00  0.00    -0.333 OA
ATOM     15  H9  <0> d           1.496   2.877   0.003  0.00  0.00     0.125 H 
ATOM     16  C8  <0> d           0.002  -0.004   0.002  0.00  0.00     0.020 A 
ATOM     17  C7  <0> d           1.278  -0.425  -0.012  0.00  0.00    -0.042 A 
ATOM     18  H8  <0> d          -0.869  -0.643   0.007  0.00  0.00     0.123 H 
ATOM     19  H7  <0> d           1.624  -1.448  -0.022  0.00  0.00     0.088 H 
ENDBRANCH  11  12
ENDBRANCH   1  10
BRANCH   1  20
ATOM     20  O2  <0> d           6.675   0.348  -1.228  0.00  0.00    -0.378 OA
ATOM     21  H10 <0> d           7.639   0.358  -1.304  0.00  0.00     0.211 HD
ENDBRANCH   1  20
TORSDOF 5
