REMARK  4 active torsions:
REMARK  status: ('A' for Active; 'I' for Inactive)
REMARK    1  A    between atoms: C1_1  and  C2_2 
REMARK    2  A    between atoms: C2_2  and  C3_3 
REMARK    3  A    between atoms: C4_4  and  C5_5 
REMARK    4  A    between atoms: C5_5  and  C6_6 
ROOT
ATOM      1  C3  <0> d           0.592  -0.672  -1.030  0.00  0.00    -0.080 C 
ATOM      2  C4  <0> d           0.611  -2.037  -1.038  0.00  0.00    -0.045 C 
ATOM      3  H5  <0> d           1.045  -0.122  -1.842  0.00  0.00     0.083 H 
ATOM      4  H6  <0> d           0.158  -2.587  -0.226  0.00  0.00     0.096 H 
ENDROOT
BRANCH   1   5
ATOM      5  C2  <0> d           0.002  -0.004   0.002  0.00  0.00    -0.106 C 
ATOM      6  H4  <0> d          -0.451  -0.555   0.813  0.00  0.00     0.076 H 
BRANCH   5   7
ATOM      7  C1  <0> d          -0.018   1.503   0.010  0.00  0.00    -0.060 C 
ATOM      8  H1  <0> d           1.004   1.880   0.003  0.00  0.00     0.032 H 
ATOM      9  H2  <0> d          -0.545   1.864  -0.873  0.00  0.00     0.032 H 
ATOM     10  H3  <0> d          -0.529   1.854   0.907  0.00  0.00     0.032 H 
ENDBRANCH   5   7
ENDBRANCH   1   5
BRANCH   2  11
ATOM     11  C5  <0> d           1.176  -2.677  -2.027  0.00  0.00    -0.155 C 
BRANCH  11  12
ATOM     12  C6  <0> d           1.741  -3.318  -3.016  0.00  0.00    -0.008 C 
ATOM     13  H7  <0> d           1.161  -3.591  -3.885  0.00  0.00     0.052 H 
ATOM     14  H8  <0> d           2.789  -3.574  -2.965  0.00  0.00     0.052 H 
ENDBRANCH  11  12
ENDBRANCH   2  11
TORSDOF 4
