REMARK  7 active torsions:
REMARK  status: ('A' for Active; 'I' for Inactive)
REMARK    1  A    between atoms: C1_1  and  C2_2 
REMARK    2  A    between atoms: C2_2  and  C3_3 
REMARK    3  A    between atoms: C2_2  and  C4_4 
REMARK    4  A    between atoms: C4_4  and  C5_5 
REMARK    5  A    between atoms: C4_4  and  C6_6 
REMARK    6  A    between atoms: C4_4  and  O1_9 
REMARK    7  A    between atoms: C6_6  and  C8_8 
ROOT
ATOM      1  C4  <0> d           0.002  -0.004   0.002  0.00  0.00     0.079 C 
ENDROOT
BRANCH   1   2
ATOM      2  C2  <0> d           0.742  -0.511   1.242  0.00  0.00    -0.028 C 
ATOM      3  H4  <0> d           0.757  -1.601   1.236  0.00  0.00     0.043 H 
BRANCH   2   4
ATOM      4  C1  <0> d           2.178   0.019   1.231  0.00  0.00    -0.070 C 
ATOM      5  H1  <0> d           2.163   1.109   1.237  0.00  0.00     0.028 H 
ATOM      6  H2  <0> d           2.705  -0.342   2.114  0.00  0.00     0.028 H 
ATOM      7  H3  <0> d           2.688  -0.333   0.334  0.00  0.00     0.028 H 
ENDBRANCH   2   4
BRANCH   2   8
ATOM      8  C3  <0> d           0.026  -0.018   2.500  0.00  0.00    -0.070 C 
ATOM      9  H5  <0> d          -0.997  -0.395   2.508  0.00  0.00     0.028 H 
ATOM     10  H6  <0> d           0.553  -0.379   3.383  0.00  0.00     0.028 H 
ATOM     11  H7  <0> d           0.011   1.072   2.506  0.00  0.00     0.028 H 
ENDBRANCH   2   8
ENDBRANCH   1   2
BRANCH   1  12
ATOM     12  C5  <0> d          -1.433  -0.534   0.013  0.00  0.00    -0.044 C 
ATOM     13  H8  <0> d          -1.960  -0.173  -0.870  0.00  0.00     0.032 H 
ATOM     14  H9  <0> d          -1.419  -1.623   0.007  0.00  0.00     0.032 H 
ATOM     15  H10 <0> d          -1.944  -0.182   0.910  0.00  0.00     0.032 H 
ENDBRANCH   1  12
BRANCH   1  16
ATOM     16  C6  <0> d           0.707  -0.490  -1.238  0.00  0.00    -0.059 C 
ATOM     17  C7  <0> d           1.185   0.372  -2.100  0.00  0.00    -0.117 C 
ATOM     18  H11 <0> d           1.691   0.024  -2.989  0.00  0.00     0.067 H 
ATOM     19  H12 <0> d           1.074   1.432  -1.923  0.00  0.00     0.067 H 
BRANCH  16  20
ATOM     20  C8  <0> d           0.863  -1.968  -1.486  0.00  0.00    -0.052 C 
ATOM     21  H13 <0> d           0.406  -2.524  -0.667  0.00  0.00     0.033 H 
ATOM     22  H14 <0> d           0.373  -2.233  -2.423  0.00  0.00     0.033 H 
ATOM     23  H15 <0> d           1.922  -2.217  -1.547  0.00  0.00     0.033 H 
ENDBRANCH  16  20
ENDBRANCH   1  16
BRANCH   1  24
ATOM     24  O1  <0> d          -0.017   1.425   0.010  0.00  0.00    -0.385 OA
ATOM     25  H16 <0> d           0.861   1.830   0.004  0.00  0.00     0.211 HD
ENDBRANCH   1  24
TORSDOF 7
