REMARK  0 active torsions:
REMARK  status: ('A' for Active; 'I' for Inactive)
ROOT
ATOM      1  C1  <0> d          -2.609   3.581   0.046  0.00  0.00    -0.056 A 
ATOM      2  C2  <0> d          -3.355   2.462   0.032  0.00  0.00    -0.022 A 
ATOM      3  N1  <0> d          -2.545   1.361   0.022  0.00  0.00    -0.364 N 
ATOM      4  H1  <0> d          -2.854   0.442   0.018  0.00  0.00     0.165 HD
ATOM      5  C3  <0> d          -1.226   1.751   0.017  0.00  0.00     0.060 A 
ATOM      6  C4  <0> d          -1.211   3.161   0.031  0.00  0.00    -0.005 A 
ATOM      7  C5  <0> d           0.023   3.819   0.022  0.00  0.00    -0.054 A 
ATOM      8  C6  <0> d           1.166   3.069   0.007  0.00  0.00     0.003 A 
ATOM      9  N2  <0> d           1.121   1.747   0.001  0.00  0.00    -0.271 NA
ATOM     10  C7  <0> d          -0.013   1.076   0.008  0.00  0.00     0.028 A 
ATOM     11  H2  <0> d          -2.975   4.597   0.055  0.00  0.00     0.086 H 
ATOM     12  H3  <0> d          -4.435   2.437   0.036  0.00  0.00     0.111 H 
ATOM     13  H4  <0> d           0.072   4.898   0.027  0.00  0.00     0.087 H 
ATOM     14  H5  <0> d           2.124   3.567   0.001  0.00  0.00     0.114 H 
ATOM     15  H6  <0> d           0.002  -0.004   0.002  0.00  0.00     0.118 H 
ENDROOT
TORSDOF 0
