REMARK  5 active torsions:
REMARK  status: ('A' for Active; 'I' for Inactive)
REMARK    1  A    between atoms: C1_1  and  C2_2 
REMARK    2  A    between atoms: C2_2  and  O1_3 
REMARK    3  A    between atoms: O1_3  and  C3_4 
REMARK    4  A    between atoms: C3_4  and  C4_6 
REMARK    5  A    between atoms: N1_10  and  N2_11 
ROOT
ATOM      1  C4  <0> d           1.449  -2.344  -2.517  0.00  0.00     0.125 A 
ATOM      2  C5  <0> d           1.624  -3.681  -2.813  0.00  0.00    -0.048 A 
ATOM      3  C6  <0> d           2.313  -3.742  -4.028  0.00  0.00    -0.064 A 
ATOM      4  C7  <0> d           2.542  -2.472  -4.441  0.00  0.00    -0.003 A 
ATOM      5  N1  <0> d           2.018  -1.616  -3.538  0.00  0.00    -0.285 N 
ATOM      6  H6  <0> d           1.291  -4.520  -2.220  0.00  0.00     0.087 H 
ATOM      7  H7  <0> d           2.611  -4.642  -4.545  0.00  0.00     0.085 H 
ATOM      8  H8  <0> d           3.055  -2.190  -5.348  0.00  0.00     0.114 H 
ENDROOT
BRANCH   1   9
ATOM      9  C3  <0> d           0.776  -1.800  -1.335  0.00  0.00     0.311 C 
ATOM     10  O2  <0> d           0.312  -2.552  -0.499  0.00  0.00    -0.258 OA
BRANCH   9  11
ATOM     11  O1  <0> d           0.671  -0.465  -1.174  0.00  0.00    -0.317 OA
BRANCH  11  12
ATOM     12  C2  <0> d           0.002  -0.004   0.002  0.00  0.00     0.026 C 
ATOM     13  H4  <0> d           0.529  -0.365   0.885  0.00  0.00     0.074 H 
ATOM     14  H5  <0> d          -1.020  -0.381   0.010  0.00  0.00     0.074 H 
BRANCH  12  15
ATOM     15  C1  <0> d          -0.019   1.526   0.010  0.00  0.00    -0.056 C 
ATOM     16  H1  <0> d           1.004   1.903   0.003  0.00  0.00     0.030 H 
ATOM     17  H2  <0> d          -0.546   1.887  -0.873  0.00  0.00     0.030 H 
ATOM     18  H3  <0> d          -0.529   1.877   0.907  0.00  0.00     0.030 H 
ENDBRANCH  12  15
ENDBRANCH  11  12
ENDBRANCH   9  11
ENDBRANCH   1   9
BRANCH   5  19
ATOM     19  N2  <0> d           2.051  -0.253  -3.621  0.00  0.00    -0.243 NA
ATOM     20  H9  <0> d           2.880   0.116  -3.179  0.00  0.00     0.143 HD
ATOM     21  H10 <0> d           1.985   0.052  -4.580  0.00  0.00     0.143 HD
ENDBRANCH   5  19
TORSDOF 5
