REMARK  1 active torsions:
REMARK  status: ('A' for Active; 'I' for Inactive)
REMARK    1  A    between atoms: C2_2  and  N1_10 
ROOT
ATOM      1  C1  <0> d           0.002  -0.004   0.002  0.00  0.00    -0.017 A 
ATOM      2  C2  <0> d          -0.017   1.384   0.010  0.00  0.00     0.031 A 
ATOM      3  C3  <0> d           1.177   2.094   0.002  0.00  0.00    -0.017 A 
ATOM      4  C4  <0> d           2.383   1.417  -0.013  0.00  0.00     0.160 A 
ATOM      5  C5  <0> d           2.401   0.030  -0.021  0.00  0.00     0.193 A 
ATOM      6  C6  <0> d           1.210  -0.679  -0.013  0.00  0.00     0.160 A 
ATOM      7  F1  <0> d           1.228  -2.030  -0.021  0.00  0.00    -0.203 F 
ATOM      8  F2  <0> d           3.579  -0.630  -0.035  0.00  0.00    -0.200 F 
ATOM      9  F3  <0> d           3.545   2.106  -0.021  0.00  0.00    -0.203 F 
ATOM     10  H1  <0> d          -0.926  -0.557   0.007  0.00  0.00     0.091 H 
ATOM     11  H2  <0> d           1.164   3.174   0.008  0.00  0.00     0.091 H 
ENDROOT
BRANCH   2  12
ATOM     12  N1  <0> d          -1.236   2.067   0.019  0.00  0.00    -0.399 N 
ATOM     13  H3  <0> d          -2.070   1.572   0.020  0.00  0.00     0.156 HD
ATOM     14  H4  <0> d          -1.249   3.037   0.025  0.00  0.00     0.156 HD
ENDBRANCH   2  12
TORSDOF 1
