REMARK  1 active torsions:
REMARK  status: ('A' for Active; 'I' for Inactive)
REMARK    1  A    between atoms: C1_1  and  C2_2 
ROOT
ATOM      1  C2  <0> d          -1.470   2.891  -0.623  0.00  0.00     0.029 C 
ATOM      2  H1  <0> d          -0.949   3.783  -0.970  0.00  0.00     0.055 H 
ATOM      3  C3  <0> d          -0.808   1.622  -1.204  0.00  0.00    -0.033 C 
ATOM      4  C4  <0> d          -0.013   1.086   0.008  0.00  0.00     0.030 C 
ATOM      5  O1  <0> d          -0.741   1.579   1.171  0.00  0.00    -0.321 OA
ATOM      6  C5  <0> d          -1.331   2.748   0.877  0.00  0.00     0.262 C 
ATOM      7  O2  <0> d          -1.694   3.565   1.689  0.00  0.00    -0.265 OA
ATOM      8  H5  <0> d          -0.139   1.875  -2.027  0.00  0.00     0.037 H 
ATOM      9  H6  <0> d          -1.559   0.900  -1.525  0.00  0.00     0.037 H 
ATOM     10  H7  <0> d           0.002  -0.004   0.002  0.00  0.00     0.075 H 
ATOM     11  H8  <0> d           1.004   1.480   0.000  0.00  0.00     0.075 H 
ENDROOT
BRANCH   1  12
ATOM     12  C1  <0> d          -2.948   2.948  -1.017  0.00  0.00    -0.064 C 
ATOM     13  H2  <0> d          -3.462   2.070  -0.629  0.00  0.00     0.028 H 
ATOM     14  H3  <0> d          -3.400   3.848  -0.600  0.00  0.00     0.028 H 
ATOM     15  H4  <0> d          -3.033   2.969  -2.104  0.00  0.00     0.028 H 
ENDBRANCH   1  12
TORSDOF 1
