REMARK  3 active torsions:
REMARK  status: ('A' for Active; 'I' for Inactive)
REMARK    1  A    between atoms: C3_3  and  C7_8 
REMARK    2  A    between atoms: C7_8  and  C8_9 
REMARK    3  A    between atoms: C8_9  and  O1_10 
ROOT
ATOM      1  C1  <0> d           0.324  -0.594   4.169  0.00  0.00    -0.081 A 
ATOM      2  C2  <0> d          -0.347  -0.133   3.052  0.00  0.00    -0.077 A 
ATOM      3  C3  <0> d           0.000   1.080   2.488  0.00  0.00    -0.055 A 
ATOM      4  C4  <0> d           1.012   1.838   3.046  0.00  0.00    -0.056 A 
ATOM      5  C5  <0> d           1.681   1.380   4.167  0.00  0.00     0.034 A 
ATOM      6  C6  <0> d           1.336   0.163   4.729  0.00  0.00    -0.062 A 
ATOM      7 Cl1  <0> d           2.951   2.331   4.870  0.00  0.00    -0.084 Cl
ATOM      8  H1  <0> d           0.055  -1.544   4.607  0.00  0.00     0.083 H 
ATOM      9  H2  <0> d          -1.141  -0.723   2.618  0.00  0.00     0.084 H 
ATOM     10  H3  <0> d           1.281   2.787   2.608  0.00  0.00     0.086 H 
ATOM     11  H4  <0> d           1.857  -0.195   5.604  0.00  0.00     0.086 H 
ENDROOT
BRANCH   3  12
ATOM     12  C7  <0> d          -0.729   1.579   1.267  0.00  0.00    -0.021 C 
ATOM     13  H5  <0> d          -0.744   2.669   1.273  0.00  0.00     0.043 H 
ATOM     14  H6  <0> d          -1.751   1.202   1.275  0.00  0.00     0.043 H 
BRANCH  12  15
ATOM     15  C8  <0> d          -0.013   1.086   0.008  0.00  0.00     0.020 C 
ATOM     16  H7  <0> d           0.002  -0.004   0.002  0.00  0.00     0.074 H 
ATOM     17  H8  <0> d           1.010   1.463   0.000  0.00  0.00     0.074 H 
BRANCH  15  18
ATOM     18  O1  <0> d          -0.704   1.559  -1.150  0.00  0.00    -0.401 OA
ATOM     19  H9  <0> d          -0.304   1.284  -1.986  0.00  0.00     0.209 HD
ENDBRANCH  15  18
ENDBRANCH  12  15
ENDBRANCH   3  12
TORSDOF 3
