REMARK  1 active torsions:
REMARK  status: ('A' for Active; 'I' for Inactive)
REMARK    1  A    between atoms: C6_9  and  N3_10 
ROOT
ATOM      1  C1  <0> d          -0.017   1.402   0.010  0.00  0.00    -0.047 A 
ATOM      2  C2  <0> d           1.138   2.095   0.002  0.00  0.00    -0.042 A 
ATOM      3  S1  <0> d           2.375   0.808  -0.016  0.00  0.00    -0.096 SA
ATOM      4  C3  <0> d           1.286  -0.591  -0.013  0.00  0.00     0.079 A 
ATOM      5  C4  <0> d           0.002  -0.004   0.002  0.00  0.00     0.079 A 
ATOM      6  N1  <0> d          -1.039  -0.873   0.007  0.00  0.00    -0.241 NA
ATOM      7  C5  <0> d          -0.847  -2.167  -0.002  0.00  0.00     0.089 A 
ATOM      8  N2  <0> d           0.350  -2.728  -0.016  0.00  0.00    -0.224 NA
ATOM      9  C6  <0> d           1.444  -1.966  -0.022  0.00  0.00     0.142 A 
ATOM     10  H1  <0> d          -0.960   1.927   0.026  0.00  0.00     0.087 H 
ATOM     11  H2  <0> d           1.280   3.165   0.006  0.00  0.00     0.095 H 
ATOM     12  H3  <0> d          -1.713  -2.812   0.002  0.00  0.00     0.146 H 
ENDROOT
BRANCH   9  13
ATOM     13  N3  <0> d           2.707  -2.536  -0.038  0.00  0.00    -0.383 N 
ATOM     14  H4  <0> d           3.494  -1.970  -0.042  0.00  0.00     0.157 HD
ATOM     15  H5  <0> d           2.803  -3.501  -0.044  0.00  0.00     0.157 HD
ENDBRANCH   9  13
TORSDOF 1
