REMARK  1 active torsions:
REMARK  status: ('A' for Active; 'I' for Inactive)
REMARK    1  A    between atoms: C8_10  and  N4_13 
ROOT
ATOM      1  C1  <0> d          -0.017   1.396   0.010  0.00  0.00    -0.061 A 
ATOM      2  C2  <0> d           1.151   2.104   0.002  0.00  0.00    -0.053 A 
ATOM      3  C3  <0> d           2.370   1.439  -0.013  0.00  0.00     0.078 A 
ATOM      4  C4  <0> d           2.409   0.033  -0.021  0.00  0.00     0.104 A 
ATOM      5  C5  <0> d           1.216  -0.687  -0.013  0.00  0.00    -0.032 A 
ATOM      6  C6  <0> d           0.002  -0.004   0.002  0.00  0.00     0.047 A 
ATOM      7  C7  <0> d          -1.229  -0.735   0.010  0.00  0.00     0.099 C 
ATOM      8  N1  <0> d          -2.206  -1.315   0.017  0.00  0.00    -0.191 NA
ATOM      9  N2  <0> d           3.719  -0.331  -0.037  0.00  0.00    -0.063 NA
ATOM     10  C8  <0> d           4.471   0.740  -0.039  0.00  0.00     0.699 A 
ATOM     11  N3  <0> d           3.688   1.859  -0.025  0.00  0.00    -0.188 N 
ATOM     12  H1  <0> d           3.998   2.778  -0.024  0.00  0.00     0.184 HD
ATOM     13  H2  <0> d          -0.961   1.920   0.026  0.00  0.00     0.086 H 
ATOM     14  H3  <0> d           1.127   3.184   0.008  0.00  0.00     0.087 H 
ATOM     15  H4  <0> d           1.232  -1.767  -0.019  0.00  0.00     0.089 H 
ENDROOT
BRANCH  10  16
ATOM     16  N4  <0> d           5.850   0.739  -0.054  0.00  0.00    -0.233 N 
ATOM     17  H5  <0> d           6.334  -0.101  -0.064  0.00  0.00     0.174 HD
ATOM     18  H6  <0> d           6.336   1.579  -0.054  0.00  0.00     0.174 HD
ENDBRANCH  10  16
TORSDOF 1
