REMARK  6 active torsions:
REMARK  status: ('A' for Active; 'I' for Inactive)
REMARK    1  A    between atoms: C1_1  and  C2_2 
REMARK    2  A    between atoms: C2_2  and  N1_3 
REMARK    3  A    between atoms: N1_3  and  C3_4 
REMARK    4  A    between atoms: N1_3  and  C5_6 
REMARK    5  A    between atoms: C3_4  and  C4_5 
REMARK    6  A    between atoms: C5_6  and  O1_7 
ROOT
ATOM      1  N1  <0> d          -0.018   1.465   0.010  0.00  0.00     0.110 N 
ENDROOT
BRANCH   1   2
ATOM      2  C2  <0> d           1.346   2.010  -0.000  0.00  0.00     0.113 C 
ATOM      3  H4  <0> d           1.900   1.588  -0.839  0.00  0.00     0.079 H 
ATOM      4  H5  <0> d           1.304   3.094  -0.102  0.00  0.00     0.079 H 
BRANCH   2   5
ATOM      5  C1  <0> d           2.050   1.648   1.310  0.00  0.00    -0.051 C 
ATOM      6  H1  <0> d           1.496   2.070   2.148  0.00  0.00     0.029 H 
ATOM      7  H2  <0> d           2.092   0.564   1.412  0.00  0.00     0.029 H 
ATOM      8  H3  <0> d           3.062   2.053   1.302  0.00  0.00     0.029 H 
ENDBRANCH   2   5
ENDBRANCH   1   2
BRANCH   1   9
ATOM      9  C3  <0> d          -0.802   1.987  -1.117  0.00  0.00     0.113 C 
ATOM     10  H6  <0> d          -0.712   3.073  -1.150  0.00  0.00     0.079 H 
ATOM     11  H7  <0> d          -0.426   1.563  -2.048  0.00  0.00     0.079 H 
BRANCH   9  12
ATOM     12  C4  <0> d          -2.272   1.602  -0.938  0.00  0.00    -0.051 C 
ATOM     13  H8  <0> d          -2.853   1.989  -1.774  0.00  0.00     0.029 H 
ATOM     14  H9  <0> d          -2.361   0.516  -0.905  0.00  0.00     0.029 H 
ATOM     15  H10 <0> d          -2.647   2.026  -0.007  0.00  0.00     0.029 H 
ENDBRANCH   9  12
ENDBRANCH   1   9
BRANCH   1  16
ATOM     16  C5  <0> d           0.002  -0.004   0.002  0.00  0.00     0.193 C 
ATOM     17  H11 <0> d          -0.928  -0.378  -0.425  0.00  0.00     0.122 H 
ATOM     18  H12 <0> d           0.843  -0.353  -0.597  0.00  0.00     0.122 H 
BRANCH  16  19
ATOM     19  O1  <0> d           0.139  -0.486   1.340  0.00  0.00    -0.373 OA
ATOM     20  H13 <0> d           0.159  -1.450   1.411  0.00  0.00     0.211 HD
ENDBRANCH  16  19
ENDBRANCH   1  16
TORSDOF 6
