REMARK  1 active torsions:
REMARK  status: ('A' for Active; 'I' for Inactive)
REMARK    1  A    between atoms: C3_5  and  N2_6 
ROOT
ATOM      1  C1  <0> d          -2.524   1.070   0.020  0.00  0.00    -0.013 A 
ATOM      2  C2  <0> d          -3.354   2.138   0.030  0.00  0.00     0.047 A 
ATOM      3  O1  <0> d          -2.574   3.229   0.033  0.00  0.00    -0.224 OA
ATOM      4  N1  <0> d          -1.400   2.941   0.030  0.00  0.00    -0.111 NA
ATOM      5  C3  <0> d          -1.225   1.645   0.017  0.00  0.00     0.150 A 
ATOM      6  H1  <0> d          -2.788   0.022   0.015  0.00  0.00     0.092 H 
ATOM      7  H2  <0> d          -4.433   2.116   0.035  0.00  0.00     0.127 H 
ENDROOT
BRANCH   5   8
ATOM      8  N2  <0> d          -0.011   0.966   0.007  0.00  0.00    -0.382 N 
ATOM      9  H3  <0> d           0.002  -0.004   0.002  0.00  0.00     0.157 HD
ATOM     10  H4  <0> d           0.822   1.462   0.002  0.00  0.00     0.157 HD
ENDBRANCH   5   8
TORSDOF 1
