REMARK  2 active torsions:
REMARK  status: ('A' for Active; 'I' for Inactive)
REMARK    1  A    between atoms: C1_1  and  N1_2 
REMARK    2  A    between atoms: C9_10  and  O1_11 
ROOT
ATOM      1  N1  <0> d           0.002  -0.004   0.002  0.00  0.00    -0.384 N 
ATOM      2  C2  <0> d          -1.187  -0.860   0.003  0.00  0.00    -0.002 A 
ATOM      3  C3  <0> d          -0.647  -2.299  -0.008  0.00  0.00    -0.021 A 
ATOM      4  C4  <0> d           0.856  -2.140  -0.014  0.00  0.00     0.003 A 
ATOM      5  C5  <0> d           1.157  -0.788  -0.014  0.00  0.00     0.038 A 
ATOM      6  C6  <0> d           2.496  -0.391  -0.024  0.00  0.00    -0.057 A 
ATOM      7  C7  <0> d           3.503  -1.332  -0.039  0.00  0.00    -0.078 A 
ATOM      8  C8  <0> d           3.197  -2.680  -0.044  0.00  0.00    -0.050 A 
ATOM      9  C9  <0> d           1.870  -3.085  -0.025  0.00  0.00     0.074 A 
ATOM     10  H4  <0> d          -1.779  -0.684   0.902  0.00  0.00     0.064 H 
ATOM     11  H5  <0> d          -1.788  -0.674  -0.888  0.00  0.00     0.064 H 
ATOM     12  H6  <0> d          -0.970  -2.833   0.886  0.00  0.00     0.042 H 
ATOM     13  H7  <0> d          -0.979  -2.823  -0.905  0.00  0.00     0.042 H 
ATOM     14  H8  <0> d           2.744   0.660  -0.021  0.00  0.00     0.086 H 
ATOM     15  H9  <0> d           4.535  -1.015  -0.048  0.00  0.00     0.083 H 
ATOM     16  H10 <0> d           3.989  -3.415  -0.057  0.00  0.00     0.087 H 
ENDROOT
BRANCH   1  17
ATOM     17  C1  <0> d          -0.018   1.461   0.010  0.00  0.00    -0.018 C 
ATOM     18  H1  <0> d           1.005   1.838   0.002  0.00  0.00     0.056 H 
ATOM     19  H2  <0> d          -0.545   1.822  -0.873  0.00  0.00     0.056 H 
ATOM     20  H3  <0> d          -0.528   1.812   0.907  0.00  0.00     0.056 H 
ENDBRANCH   1  17
BRANCH   9  21
ATOM     21  O1  <0> d           1.565  -4.410  -0.030  0.00  0.00    -0.360 OA
ATOM     22  H11 <0> d           1.472  -4.788  -0.916  0.00  0.00     0.217 HD
ENDBRANCH   9  21
TORSDOF 2
