REMARK  5 active torsions:
REMARK  status: ('A' for Active; 'I' for Inactive)
REMARK    1  A    between atoms: C1_1  and  O1_2 
REMARK    2  A    between atoms: O1_2  and  C2_3 
REMARK    3  A    between atoms: C2_3  and  C3_4 
REMARK    4  A    between atoms: C3_4  and  C4_5 
REMARK    5  A    between atoms: C5_8  and  N3_10 
ROOT
ATOM      1  C3  <0> d           0.633  -2.108   1.011  0.00  0.00     0.018 C 
ATOM      2  H6  <0> d          -0.404  -2.443   0.995  0.00  0.00     0.048 H 
ATOM      3  H7  <0> d           1.129  -2.418   0.091  0.00  0.00     0.048 H 
ENDROOT
BRANCH   1   4
ATOM      4  C2  <0> d           0.673  -0.582   1.123  0.00  0.00     0.026 C 
ATOM      5  H4  <0> d           1.710  -0.247   1.139  0.00  0.00     0.074 H 
ATOM      6  H5  <0> d           0.177  -0.273   2.043  0.00  0.00     0.074 H 
BRANCH   4   7
ATOM      7  O1  <0> d           0.002  -0.004   0.002  0.00  0.00    -0.396 OA
BRANCH   7   8
ATOM      8  C1  <0> d          -0.017   1.425   0.010  0.00  0.00     0.004 C 
ATOM      9  H1  <0> d           1.005   1.802   0.002  0.00  0.00     0.066 H 
ATOM     10  H2  <0> d          -0.544   1.786  -0.873  0.00  0.00     0.066 H 
ATOM     11  H3  <0> d          -0.527   1.776   0.907  0.00  0.00     0.066 H 
ENDBRANCH   7   8
ENDBRANCH   4   7
ENDBRANCH   1   4
BRANCH   1  12
ATOM     12  C4  <0> d           1.341  -2.718   2.193  0.00  0.00     0.173 A 
ATOM     13  O2  <0> d           2.651  -3.024   2.265  0.00  0.00    -0.260 OA
ATOM     14  C5  <0> d           2.851  -3.541   3.492  0.00  0.00     0.265 A 
ATOM     15  N2  <0> d           1.694  -3.541   4.107  0.00  0.00    -0.104 NA
ATOM     16  N1  <0> d           0.797  -3.049   3.327  0.00  0.00    -0.125 NA
BRANCH  14  17
ATOM     17  N3  <0> d           4.053  -3.991   4.005  0.00  0.00    -0.362 N 
ATOM     18  H8  <0> d           4.091  -4.352   4.905  0.00  0.00     0.159 HD
ATOM     19  H9  <0> d           4.858  -3.947   3.466  0.00  0.00     0.159 HD
ENDBRANCH  14  17
ENDBRANCH   1  12
TORSDOF 5
