REMARK  1 active torsions:
REMARK  status: ('A' for Active; 'I' for Inactive)
REMARK    1  A    between atoms: C4_4  and  C7_7 
ROOT
ATOM      1  C1  <0> d           0.002  -0.004   0.002  0.00  0.00    -0.083 A 
ATOM      2  C2  <0> d          -0.017   1.379   0.010  0.00  0.00    -0.082 A 
ATOM      3  C3  <0> d           1.167   2.088   0.002  0.00  0.00    -0.069 A 
ATOM      4  C4  <0> d           2.385   1.407  -0.013  0.00  0.00     0.019 A 
ATOM      5  C5  <0> d           2.397   0.011  -0.020  0.00  0.00    -0.069 A 
ATOM      6  C6  <0> d           1.206  -0.686  -0.013  0.00  0.00    -0.082 A 
ATOM      7  H1  <0> d          -0.927  -0.554   0.008  0.00  0.00     0.083 H 
ATOM      8  H2  <0> d          -0.960   1.905   0.017  0.00  0.00     0.083 H 
ATOM      9  H3  <0> d           1.151   3.168   0.008  0.00  0.00     0.085 H 
ATOM     10  H4  <0> d           3.336  -0.522  -0.031  0.00  0.00     0.085 H 
ATOM     11  H5  <0> d           1.214  -1.766  -0.018  0.00  0.00     0.083 H 
ENDROOT
BRANCH   4  12
ATOM     12  C7  <0> d           3.657   2.160  -0.021  0.00  0.00     0.205 A 
ATOM     13  O1  <0> d           4.895   1.642  -0.029  0.00  0.00    -0.191 OA
ATOM     14  N2  <0> d           5.712   2.538  -0.036  0.00  0.00    -0.119 NA
ATOM     15  C8  <0> d           5.119   3.696  -0.026  0.00  0.00     0.116 A 
ATOM     16  N1  <0> d           3.796   3.474  -0.015  0.00  0.00    -0.213 NA
ATOM     17  H6  <0> d           5.604   4.660  -0.025  0.00  0.00     0.150 H 
ENDBRANCH   4  12
TORSDOF 1
