REMARK  1 active torsions:
REMARK  status: ('A' for Active; 'I' for Inactive)
REMARK    1  A    between atoms: C1_1  and  N1_2 
ROOT
ATOM      1  N1  <0> d           0.002  -0.004   0.002  0.00  0.00    -0.313 N 
ATOM      2  C2  <0> d           1.186  -0.670  -0.013  0.00  0.00    -0.015 A 
ATOM      3  C3  <0> d           2.346   0.040  -0.020  0.00  0.00    -0.051 A 
ATOM      4  C4  <0> d           2.289   1.437  -0.012  0.00  0.00     0.009 A 
ATOM      5  N2  <0> d           1.119   2.044   0.002  0.00  0.00    -0.206 NA
ATOM      6  C5  <0> d          -0.016   1.342   0.009  0.00  0.00     0.347 A 
ATOM      7  O1  <0> d          -1.085   1.928   0.018  0.00  0.00    -0.244 OA
ATOM      8  H4  <0> d           1.206  -1.750  -0.018  0.00  0.00     0.111 H 
ATOM      9  H5  <0> d           3.299  -0.468  -0.032  0.00  0.00     0.087 H 
ATOM     10  H6  <0> d           3.200   2.017  -0.018  0.00  0.00     0.115 H 
ENDROOT
BRANCH   1  11
ATOM     11  C1  <0> d          -1.257  -0.752   0.010  0.00  0.00    -0.010 C 
ATOM     12  H1  <0> d          -2.095  -0.054   0.022  0.00  0.00     0.057 H 
ATOM     13  H2  <0> d          -1.316  -1.375  -0.883  0.00  0.00     0.057 H 
ATOM     14  H3  <0> d          -1.299  -1.385   0.897  0.00  0.00     0.057 H 
ENDBRANCH   1  11
TORSDOF 1
