REMARK  5 active torsions:
REMARK  status: ('A' for Active; 'I' for Inactive)
REMARK    1  A    between atoms: C1_1  and  C2_2 
REMARK    2  A    between atoms: C2_2  and  C4_4 
REMARK    3  A    between atoms: C4_4  and  C5_5 
REMARK    4  A    between atoms: C4_4  and  C6_6 
REMARK    5  A    between atoms: C4_4  and  C7_7 
ROOT
ATOM      1  C4  <0> d          -0.000  -0.750  -1.307  0.00  0.00     0.063 C 
ENDROOT
BRANCH   1   2
ATOM      2  C2  <0> d           0.002  -0.004   0.002  0.00  0.00    -0.075 C 
ATOM      3  C3  <0> d           0.022  -0.665   1.133  0.00  0.00    -0.118 C 
ATOM      4  H4  <0> d           0.023  -0.130   2.071  0.00  0.00     0.067 H 
ATOM      5  H5  <0> d           0.036  -1.745   1.127  0.00  0.00     0.067 H 
BRANCH   2   6
ATOM      6  C1  <0> d          -0.018   1.503   0.010  0.00  0.00    -0.054 C 
ATOM      7  H1  <0> d           1.004   1.880   0.003  0.00  0.00     0.033 H 
ATOM      8  H2  <0> d          -0.545   1.864  -0.873  0.00  0.00     0.033 H 
ATOM      9  H3  <0> d          -0.529   1.854   0.907  0.00  0.00     0.033 H 
ENDBRANCH   2   6
ENDBRANCH   1   2
BRANCH   1  10
ATOM     10  C5  <0> d           0.023  -2.256  -1.036  0.00  0.00    -0.056 C 
ATOM     11  H6  <0> d          -0.858  -2.534  -0.457  0.00  0.00     0.029 H 
ATOM     12  H7  <0> d           0.021  -2.796  -1.983  0.00  0.00     0.029 H 
ATOM     13  H8  <0> d           0.922  -2.510  -0.474  0.00  0.00     0.029 H 
ENDBRANCH   1  10
BRANCH   1  14
ATOM     14  C6  <0> d          -1.262  -0.394  -2.095  0.00  0.00    -0.056 C 
ATOM     15  H9  <0> d          -1.278   0.679  -2.289  0.00  0.00     0.029 H 
ATOM     16  H10 <0> d          -1.264  -0.933  -3.042  0.00  0.00     0.029 H 
ATOM     17  H11 <0> d          -2.143  -0.672  -1.517  0.00  0.00     0.029 H 
ENDBRANCH   1  14
BRANCH   1  18
ATOM     18  C7  <0> d           1.218  -0.365  -2.107  0.00  0.00     0.185 C 
ATOM     19  O1  <0> d           2.014   0.440  -1.656  0.00  0.00    -0.647 OA
ATOM     20  O2  <0> d           1.407  -0.860  -3.205  0.00  0.00    -0.647 OA
ENDBRANCH   1  18
TORSDOF 5
