REMARK  2 active torsions:
REMARK  status: ('A' for Active; 'I' for Inactive)
REMARK    1  A    between atoms: C3_4  and  C5_7 
REMARK    2  A    between atoms: C4_5  and  O1_6 
ROOT
ATOM      1  C1  <0> d           2.331   5.081   0.008  0.00  0.00    -0.043 A 
ATOM      2  C2  <0> d           1.075   5.593   0.023  0.00  0.00    -0.041 A 
ATOM      3  S1  <0> d           0.066   4.183   0.025  0.00  0.00    -0.092 SA
ATOM      4  C3  <0> d           1.343   2.937   0.005  0.00  0.00     0.114 A 
ATOM      5  C4  <0> d           2.500   3.713   0.004  0.00  0.00     0.090 A 
ATOM      6  H1  <0> d           3.189   5.737   0.003  0.00  0.00     0.088 H 
ATOM      7  H2  <0> d           0.775   6.631   0.031  0.00  0.00     0.095 H 
ENDROOT
BRANCH   4   8
ATOM      8  C5  <0> d           1.214   1.528  -0.001  0.00  0.00     0.219 C 
ATOM      9  O2  <0> d           2.209   0.827  -0.015  0.00  0.00    -0.643 OA
ATOM     10  O3  <0> d          -0.011   0.963   0.007  0.00  0.00    -0.643 OA
ENDBRANCH   4   8
BRANCH   5  11
ATOM     11  O1  <0> d           3.735   3.150  -0.004  0.00  0.00    -0.359 OA
ATOM     12  H3  <0> d           3.840   2.054  -0.007  0.00  0.00     0.217 HD
ENDBRANCH   5  11
TORSDOF 2
