REMARK  7 active torsions:
REMARK  status: ('A' for Active; 'I' for Inactive)
REMARK    1  A    between atoms: C1_1  and  C2_2 
REMARK    2  A    between atoms: C2_2  and  C3_4 
REMARK    3  A    between atoms: C2_2  and  C6_7 
REMARK    4  A    between atoms: C3_4  and  C4_5 
REMARK    5  A    between atoms: C7_8  and  C8_9 
REMARK    6  A    between atoms: C7_8  and  C9_10 
REMARK    7  A    between atoms: C9_10  and  O1_11 
ROOT
ATOM      1  C2  <0> d          -0.856   1.601   0.598  0.00  0.00    -0.038 C 
ATOM      2  H1  <0> d          -0.929   2.680   0.463  0.00  0.00     0.046 H 
ENDROOT
BRANCH   1   3
ATOM      3  C1  <0> d          -0.497   0.943  -0.736  0.00  0.00    -0.069 C 
ATOM      4  H2  <0> d          -0.424  -0.136  -0.602  0.00  0.00     0.028 H 
ATOM      5  H3  <0> d           0.459   1.331  -1.087  0.00  0.00     0.028 H 
ATOM      6  H4  <0> d          -1.271   1.166  -1.471  0.00  0.00     0.028 H 
ENDBRANCH   1   3
BRANCH   1   7
ATOM      7  C3  <0> d           0.230   1.288   1.629  0.00  0.00    -0.044 C 
ATOM      8  H5  <0> d          -0.068   1.680   2.601  0.00  0.00     0.039 H 
ATOM      9  H6  <0> d           0.365   0.209   1.699  0.00  0.00     0.039 H 
BRANCH   7  10
ATOM     10  C4  <0> d           1.526   1.930   1.204  0.00  0.00    -0.111 C 
ATOM     11  C5  <0> d           2.155   2.738   2.021  0.00  0.00    -0.125 C 
ATOM     12  H8  <0> d           1.745   2.944   2.998  0.00  0.00     0.066 H 
ATOM     13  H9  <0> d           3.084   3.198   1.716  0.00  0.00     0.066 H 
ATOM     14  H7  <0> d           1.935   1.723   0.226  0.00  0.00     0.075 H 
ENDBRANCH   7  10
ENDBRANCH   1   7
BRANCH   1  15
ATOM     15  C6  <0> d          -2.179   1.064   1.083  0.00  0.00    -0.095 C 
ATOM     16  C7  <0> d          -3.147   1.891   1.391  0.00  0.00    -0.064 C 
ATOM     17  H10 <0> d          -2.327  -0.001   1.176  0.00  0.00     0.077 H 
BRANCH  16  18
ATOM     18  C8  <0> d          -2.897   3.377   1.396  0.00  0.00    -0.053 C 
ATOM     19  H11 <0> d          -3.022   3.770   0.388  0.00  0.00     0.033 H 
ATOM     20  H12 <0> d          -3.607   3.862   2.066  0.00  0.00     0.033 H 
ATOM     21  H13 <0> d          -1.881   3.573   1.739  0.00  0.00     0.033 H 
ENDBRANCH  16  18
BRANCH  16  22
ATOM     22  C9  <0> d          -4.512   1.355   1.739  0.00  0.00     0.036 C 
ATOM     23  H14 <0> d          -4.776   1.663   2.751  0.00  0.00     0.081 H 
ATOM     24  H15 <0> d          -5.247   1.749   1.036  0.00  0.00     0.081 H 
BRANCH  22  25
ATOM     25  O1  <0> d          -4.498  -0.072   1.663  0.00  0.00    -0.397 OA
ATOM     26  H16 <0> d          -5.345  -0.486   1.875  0.00  0.00     0.209 HD
ENDBRANCH  22  25
ENDBRANCH  16  22
ENDBRANCH   1  15
TORSDOF 7
