REMARK  3 active torsions:
REMARK  status: ('A' for Active; 'I' for Inactive)
REMARK    1  A    between atoms: C1_1  and  C2_2 
REMARK    2  A    between atoms: C5_5  and  S1_8 
REMARK    3  A    between atoms: S1_8  and  C8_9 
ROOT
ATOM      1  C2  <0> d           1.208  -0.681  -0.014  0.00  0.00    -0.062 A 
ATOM      2  C3  <0> d           0.002  -0.004   0.002  0.00  0.00    -0.076 A 
ATOM      3  C4  <0> d          -0.017   1.377   0.010  0.00  0.00    -0.066 A 
ATOM      4  C5  <0> d           1.178   2.086   0.002  0.00  0.00    -0.000 A 
ATOM      5  C6  <0> d           2.388   1.403  -0.012  0.00  0.00    -0.066 A 
ATOM      6  C7  <0> d           2.399   0.022  -0.021  0.00  0.00    -0.076 A 
ATOM      7  H4  <0> d          -0.926  -0.556   0.008  0.00  0.00     0.084 H 
ATOM      8  H5  <0> d          -0.959   1.905   0.017  0.00  0.00     0.085 H 
ATOM      9  H6  <0> d           3.319   1.951  -0.017  0.00  0.00     0.085 H 
ATOM     10  H7  <0> d           3.339  -0.510  -0.033  0.00  0.00     0.084 H 
ENDROOT
BRANCH   4  11
ATOM     11  S1  <0> d           1.159   3.848   0.012  0.00  0.00    -0.134 SA
BRANCH  11  12
ATOM     12  C8  <0> d           2.915   4.306  -0.003  0.00  0.00    -0.030 C 
ATOM     13  H8  <0> d           3.404   3.896   0.880  0.00  0.00     0.042 H 
ATOM     14  H9  <0> d           3.387   3.905  -0.899  0.00  0.00     0.042 H 
ATOM     15  H10 <0> d           3.007   5.392   0.002  0.00  0.00     0.042 H 
ENDBRANCH  11  12
ENDBRANCH   4  11
BRANCH   1  16
ATOM     16  C1  <0> d           1.224  -2.188  -0.022  0.00  0.00    -0.051 C 
ATOM     17  H1  <0> d           1.218  -2.545  -1.052  0.00  0.00     0.033 H 
ATOM     18  H2  <0> d           2.123  -2.544   0.481  0.00  0.00     0.033 H 
ATOM     19  H3  <0> d           0.343  -2.564   0.498  0.00  0.00     0.033 H 
ENDBRANCH   1  16
TORSDOF 3
