REMARK  5 active torsions:
REMARK  status: ('A' for Active; 'I' for Inactive)
REMARK    1  A    between atoms: C1_1  and  C2_2 
REMARK    2  A    between atoms: C2_2  and  C3_3 
REMARK    3  A    between atoms: C3_3  and  C4_4 
REMARK    4  A    between atoms: C7_8  and  C10_14 
REMARK    5  A    between atoms: C9_11  and  O1_13 
ROOT
ATOM      1  C4  <0> d           1.423   1.615  -0.003  0.00  0.00    -0.029 C 
ATOM      2  H1  <0> d           1.408   2.705   0.003  0.00  0.00     0.043 H 
ATOM      3  C5  <0> d           2.139   1.122  -1.262  0.00  0.00    -0.059 C 
ATOM      4  C6  <0> d           1.399   1.629  -2.501  0.00  0.00    -0.061 C 
ATOM      5  C7  <0> d          -0.037   1.099  -2.490  0.00  0.00    -0.055 C 
ATOM      6  H2  <0> d          -0.022   0.009  -2.496  0.00  0.00     0.039 H 
ATOM      7  C8  <0> d          -0.753   1.593  -1.232  0.00  0.00    -0.038 C 
ATOM      8  C9  <0> d          -0.013   1.086   0.008  0.00  0.00     0.039 C 
ATOM      9  H3  <0> d           0.002  -0.004   0.002  0.00  0.00     0.083 H 
ATOM     10  H11 <0> d           3.161   1.499  -1.269  0.00  0.00     0.033 H 
ATOM     11  H12 <0> d           2.154   0.032  -1.268  0.00  0.00     0.033 H 
ATOM     12  H13 <0> d           1.384   2.719  -2.495  0.00  0.00     0.033 H 
ATOM     13  H14 <0> d           1.909   1.277  -3.398  0.00  0.00     0.033 H 
ATOM     14  H15 <0> d          -1.775   1.215  -1.224  0.00  0.00     0.037 H 
ATOM     15  H16 <0> d          -0.767   2.683  -1.226  0.00  0.00     0.037 H 
ENDROOT
BRANCH   1  16
ATOM     16  C3  <0> d           2.163   1.109   1.237  0.00  0.00    -0.060 C 
ATOM     17  H9  <0> d           1.604   1.385   2.131  0.00  0.00     0.033 H 
ATOM     18  H10 <0> d           2.255   0.024   1.186  0.00  0.00     0.033 H 
BRANCH  16  19
ATOM     19  C2  <0> d           3.557   1.737   1.291  0.00  0.00    -0.068 C 
ATOM     20  H7  <0> d           4.115   1.461   0.397  0.00  0.00     0.032 H 
ATOM     21  H8  <0> d           3.464   2.822   1.342  0.00  0.00     0.032 H 
BRANCH  19  22
ATOM     22  C1  <0> d           4.296   1.230   2.531  0.00  0.00    -0.077 C 
ATOM     23  H4  <0> d           3.738   1.506   3.425  0.00  0.00     0.027 H 
ATOM     24  H5  <0> d           4.389   0.146   2.480  0.00  0.00     0.027 H 
ATOM     25  H6  <0> d           5.289   1.678   2.570  0.00  0.00     0.027 H 
ENDBRANCH  19  22
ENDBRANCH  16  19
ENDBRANCH   1  16
BRANCH   8  26
ATOM     26  O1  <0> d          -0.682   1.547   1.184  0.00  0.00    -0.395 OA
ATOM     27  H17 <0> d          -1.599   1.248   1.257  0.00  0.00     0.210 HD
ENDBRANCH   8  26
BRANCH   5  28
ATOM     28  C10 <0> d          -0.777   1.606  -3.730  0.00  0.00    -0.073 C 
ATOM     29  H18 <0> d          -0.266   1.254  -4.627  0.00  0.00     0.028 H 
ATOM     30  H19 <0> d          -1.799   1.229  -3.722  0.00  0.00     0.028 H 
ATOM     31  H20 <0> d          -0.791   2.696  -3.724  0.00  0.00     0.028 H 
ENDBRANCH   5  28
TORSDOF 5
