REMARK  2 active torsions:
REMARK  status: ('A' for Active; 'I' for Inactive)
REMARK    1  A    between atoms: C1_1  and  N1_2 
REMARK    2  A    between atoms: C2_3  and  C5_7 
ROOT
ATOM      1  N1  <0> d          -0.650   3.182   0.024  0.00  0.00    -0.268 N 
ATOM      2  C2  <0> d          -1.125   1.900   0.017  0.00  0.00     0.130 A 
ATOM      3  C3  <0> d          -0.013   1.076   0.008  0.00  0.00    -0.030 A 
ATOM      4  C4  <0> d           1.086   1.938   0.002  0.00  0.00     0.024 A 
ATOM      5  N2  <0> d           0.634   3.166   0.012  0.00  0.00    -0.185 NA
ATOM      6  H4  <0> d           0.002  -0.004   0.002  0.00  0.00     0.089 H 
ATOM      7  H5  <0> d           2.125   1.643  -0.009  0.00  0.00     0.117 H 
ENDROOT
BRANCH   1   8
ATOM      8  C1  <0> d          -1.480   4.389   0.037  0.00  0.00     0.003 C 
ATOM      9  H1  <0> d          -1.694   4.694  -0.987  0.00  0.00     0.059 H 
ATOM     10  H2  <0> d          -2.414   4.183   0.558  0.00  0.00     0.059 H 
ATOM     11  H3  <0> d          -0.947   5.190   0.550  0.00  0.00     0.059 H 
ENDBRANCH   1   8
BRANCH   2  12
ATOM     12  C5  <0> d          -2.534   1.481   0.020  0.00  0.00     0.228 C 
ATOM     13  O1  <0> d          -2.817   0.299   0.015  0.00  0.00    -0.643 OA
ATOM     14  O2  <0> d          -3.513   2.408   0.029  0.00  0.00    -0.643 OA
ENDBRANCH   2  12
TORSDOF 2
