REMARK  3 active torsions:
REMARK  status: ('A' for Active; 'I' for Inactive)
REMARK    1  A    between atoms: C1_1  and  C2_2 
REMARK    2  A    between atoms: C5_5  and  C6_7 
REMARK    3  A    between atoms: C6_7  and  O1_8 
ROOT
ATOM      1  C2  <0> d           1.160   2.051   0.002  0.00  0.00    -0.021 A 
ATOM      2  C3  <0> d          -0.017   1.378   0.010  0.00  0.00    -0.070 A 
ATOM      3  C4  <0> d           0.002  -0.004   0.002  0.00  0.00    -0.067 A 
ATOM      4  C5  <0> d           1.196  -0.645  -0.013  0.00  0.00     0.006 A 
ATOM      5  S1  <0> d           2.348   0.719  -0.017  0.00  0.00    -0.098 SA
ATOM      6  H4  <0> d          -0.955   1.913   0.017  0.00  0.00     0.085 H 
ATOM      7  H5  <0> d          -0.921  -0.565   0.008  0.00  0.00     0.085 H 
ENDROOT
BRANCH   4   8
ATOM      8  C6  <0> d           1.479  -2.126  -0.024  0.00  0.00     0.046 C 
ATOM      9  H6  <0> d           2.426  -2.318   0.480  0.00  0.00     0.082 H 
ATOM     10  H7  <0> d           0.677  -2.652   0.494  0.00  0.00     0.082 H 
BRANCH   8  11
ATOM     11  O1  <0> d           1.555  -2.586  -1.375  0.00  0.00    -0.396 OA
ATOM     12  H8  <0> d           1.735  -3.532  -1.458  0.00  0.00     0.209 HD
ENDBRANCH   8  11
ENDBRANCH   4   8
BRANCH   1  13
ATOM     13  C1  <0> d           1.402   3.539   0.007  0.00  0.00    -0.045 C 
ATOM     14  H1  <0> d           1.470   3.892   1.036  0.00  0.00     0.034 H 
ATOM     15  H2  <0> d           2.334   3.757  -0.514  0.00  0.00     0.034 H 
ATOM     16  H3  <0> d           0.577   4.043  -0.496  0.00  0.00     0.034 H 
ENDBRANCH   1  13
TORSDOF 3
