REMARK  2 active torsions:
REMARK  status: ('A' for Active; 'I' for Inactive)
REMARK    1  A    between atoms: C1_1  and  N1_2 
REMARK    2  A    between atoms: C3_4  and  C4_7 
ROOT
ATOM      1  N1  <0> d          -3.438   2.357   0.031  0.00  0.00    -0.265 N 
ATOM      2  C2  <0> d          -2.539   1.353   0.016  0.00  0.00     0.036 A 
ATOM      3  C3  <0> d          -1.301   1.931   0.019  0.00  0.00     0.173 A 
ATOM      4  N2  <0> d          -1.454   3.266   0.026  0.00  0.00    -0.124 NA
ATOM      5  N3  <0> d          -2.709   3.555   0.033  0.00  0.00    -0.066 NA
ATOM      6  H4  <0> d          -2.756   0.295   0.006  0.00  0.00     0.118 H 
ENDROOT
BRANCH   1   7
ATOM      7  C1  <0> d          -4.897   2.223   0.036  0.00  0.00     0.003 C 
ATOM      8  H1  <0> d          -5.167   1.157   0.032  0.00  0.00     0.059 H 
ATOM      9  H2  <0> d          -5.313   2.710  -0.858  0.00  0.00     0.059 H 
ATOM     10  H3  <0> d          -5.306   2.702   0.938  0.00  0.00     0.059 H 
ENDBRANCH   1   7
BRANCH   3  11
ATOM     11  C4  <0> d          -0.014   1.211   0.009  0.00  0.00     0.232 C 
ATOM     12  O1  <0> d           0.002  -0.004   0.002  0.00  0.00    -0.643 OA
ATOM     13  O2  <0> d           1.143   1.901   0.001  0.00  0.00    -0.643 OA
ENDBRANCH   3  11
TORSDOF 2
