REMARK  2 active torsions:
REMARK  status: ('A' for Active; 'I' for Inactive)
REMARK    1  A    between atoms: C1_1  and  N1_2 
REMARK    2  A    between atoms: N1_2  and  C2_3 
ROOT
ATOM      1  C2  <0> d          -1.230   1.647   0.017  0.00  0.00     0.028 A 
ATOM      2  C3  <0> d          -1.240   3.048   0.030  0.00  0.00    -0.057 A 
ATOM      3  C4  <0> d          -2.412   3.737   0.034  0.00  0.00    -0.070 A 
ATOM      4  C5  <0> d          -3.634   3.042   0.036  0.00  0.00    -0.026 A 
ATOM      5  C6  <0> d          -4.860   3.729   0.046  0.00  0.00    -0.072 A 
ATOM      6  C7  <0> d          -6.026   3.027   0.048  0.00  0.00    -0.082 A 
ATOM      7  C8  <0> d          -6.025   1.633   0.040  0.00  0.00    -0.082 A 
ATOM      8  C9  <0> d          -4.857   0.934   0.031  0.00  0.00    -0.072 A 
ATOM      9  C10 <0> d          -3.632   1.625   0.028  0.00  0.00    -0.024 A 
ATOM     10  C11 <0> d          -2.409   0.936   0.019  0.00  0.00    -0.047 A 
ATOM     11  H5  <0> d          -0.305   3.587   0.033  0.00  0.00     0.086 H 
ATOM     12  H6  <0> d          -2.403   4.817   0.040  0.00  0.00     0.084 H 
ATOM     13  H7  <0> d          -4.877   4.809   0.053  0.00  0.00     0.084 H 
ATOM     14  H8  <0> d          -6.966   3.558   0.057  0.00  0.00     0.083 H 
ATOM     15  H9  <0> d          -6.964   1.100   0.042  0.00  0.00     0.083 H 
ATOM     16  H10 <0> d          -4.871  -0.146   0.025  0.00  0.00     0.084 H 
ATOM     17  H11 <0> d          -2.393  -0.144   0.013  0.00  0.00     0.088 H 
ENDROOT
BRANCH   1  18
ATOM     18  N1  <0> d          -0.011   0.966   0.007  0.00  0.00    -0.394 N 
ATOM     19  H4  <0> d           0.002  -0.004   0.002  0.00  0.00     0.159 HD
BRANCH  18  20
ATOM     20  C1  <0> d           1.248   1.716  -0.001  0.00  0.00    -0.021 C 
ATOM     21  H1  <0> d           2.086   1.019  -0.012  0.00  0.00     0.056 H 
ATOM     22  H2  <0> d           1.288   2.348  -0.888  0.00  0.00     0.056 H 
ATOM     23  H3  <0> d           1.305   2.338   0.892  0.00  0.00     0.056 H 
ENDBRANCH  18  20
ENDBRANCH   1  18
TORSDOF 2
