REMARK  3 active torsions:
REMARK  status: ('A' for Active; 'I' for Inactive)
REMARK    1  A    between atoms: C1_1  and  N1_2 
REMARK    2  A    between atoms: N1_2  and  C2_3 
REMARK    3  A    between atoms: C5_9  and  N4_11 
ROOT
ATOM      1  C2  <0> d          -1.174  -0.705   0.009  0.00  0.00     0.704 A 
ATOM      2  N2  <0> d          -1.140  -2.065   0.007  0.00  0.00    -0.154 N 
ATOM      3  H1  <0> d          -0.287  -2.528   0.001  0.00  0.00     0.187 HD
ATOM      4  C3  <0> d          -2.289  -2.773   0.015  0.00  0.00     0.263 A 
ATOM      5  O1  <0> d          -2.267  -3.993   0.014  0.00  0.00    -0.268 OA
ATOM      6  C4  <0> d          -3.506  -2.084   0.025  0.00  0.00     0.027 A 
ATOM      7  C5  <0> d          -3.486  -0.696   0.027  0.00  0.00     0.145 A 
ATOM      8  N3  <0> d          -2.315  -0.049   0.024  0.00  0.00    -0.047 NA
ATOM      9  H6  <0> d          -4.442  -2.621   0.031  0.00  0.00     0.098 H 
ENDROOT
BRANCH   1  10
ATOM     10  N1  <0> d           0.002  -0.004   0.002  0.00  0.00    -0.228 N 
ATOM     11  H5  <0> d           0.849  -0.478  -0.009  0.00  0.00     0.177 HD
BRANCH  10  12
ATOM     12  C1  <0> d          -0.018   1.461   0.010  0.00  0.00    -0.005 C 
ATOM     13  H2  <0> d           1.005   1.838   0.002  0.00  0.00     0.057 H 
ATOM     14  H3  <0> d          -0.545   1.822  -0.873  0.00  0.00     0.057 H 
ATOM     15  H4  <0> d          -0.528   1.812   0.907  0.00  0.00     0.057 H 
ENDBRANCH  10  12
ENDBRANCH   1  10
BRANCH   7  16
ATOM     16  N4  <0> d          -4.670   0.013   0.036  0.00  0.00    -0.383 N 
ATOM     17  H7  <0> d          -5.518  -0.458   0.042  0.00  0.00     0.157 HD
ATOM     18  H8  <0> d          -4.655   0.983   0.037  0.00  0.00     0.157 HD
ENDBRANCH   7  16
TORSDOF 3
