REMARK  4 active torsions:
REMARK  status: ('A' for Active; 'I' for Inactive)
REMARK    1  A    between atoms: C1_1  and  C2_2 
REMARK    2  A    between atoms: C2_2  and  C3_3 
REMARK    3  A    between atoms: C2_2  and  C4_4 
REMARK    4  A    between atoms: C10_10  and  O1_12 
ROOT
ATOM      1  C4  <0> d          -0.016   3.639   0.155  0.00  0.00    -0.095 C 
ATOM      2  C5  <0> d           1.097   3.079  -0.248  0.00  0.00    -0.055 C 
ATOM      3  C6  <0> d           2.230   3.916  -0.801  0.00  0.00    -0.042 C 
ATOM      4  C7  <0> d           2.655   3.330  -2.151  0.00  0.00    -0.061 C 
ATOM      5  C8  <0> d           2.993   1.848  -1.978  0.00  0.00    -0.062 C 
ATOM      6  C9  <0> d           1.743   1.078  -1.548  0.00  0.00    -0.037 C 
ATOM      7  C10 <0> d           1.283   1.580  -0.175  0.00  0.00     0.057 C 
ATOM      8  H1  <0> d           2.036   1.338   0.575  0.00  0.00     0.090 H 
ATOM      9  H9  <0> d          -0.864   3.025   0.421  0.00  0.00     0.077 H 
ATOM     10  H10 <0> d           3.073   3.893  -0.110  0.00  0.00     0.039 H 
ATOM     11  H11 <0> d           1.893   4.944  -0.938  0.00  0.00     0.039 H 
ATOM     12  H12 <0> d           3.533   3.862  -2.518  0.00  0.00     0.033 H 
ATOM     13  H13 <0> d           1.840   3.436  -2.866  0.00  0.00     0.033 H 
ATOM     14  H14 <0> d           3.765   1.739  -1.216  0.00  0.00     0.033 H 
ATOM     15  H15 <0> d           3.357   1.447  -2.924  0.00  0.00     0.033 H 
ATOM     16  H16 <0> d           1.973   0.015  -1.488  0.00  0.00     0.037 H 
ATOM     17  H17 <0> d           0.949   1.237  -2.278  0.00  0.00     0.037 H 
ENDROOT
BRANCH   1  18
ATOM     18  C2  <0> d          -0.114   5.140   0.251  0.00  0.00    -0.044 C 
ATOM     19  H5  <0> d           0.866   5.580   0.067  0.00  0.00     0.044 H 
BRANCH  18  20
ATOM     20  C1  <0> d          -1.107   5.653  -0.794  0.00  0.00    -0.070 C 
ATOM     21  H2  <0> d          -2.087   5.213  -0.610  0.00  0.00     0.028 H 
ATOM     22  H3  <0> d          -1.178   6.739  -0.725  0.00  0.00     0.028 H 
ATOM     23  H4  <0> d          -0.764   5.374  -1.790  0.00  0.00     0.028 H 
ENDBRANCH  18  20
BRANCH  18  24
ATOM     24  C3  <0> d          -0.595   5.532   1.649  0.00  0.00    -0.070 C 
ATOM     25  H6  <0> d           0.113   5.167   2.393  0.00  0.00     0.028 H 
ATOM     26  H7  <0> d          -0.666   6.618   1.717  0.00  0.00     0.028 H 
ATOM     27  H8  <0> d          -1.575   5.092   1.832  0.00  0.00     0.028 H 
ENDBRANCH  18  24
ENDBRANCH   1  18
BRANCH   7  28
ATOM     28  O1  <0> d           0.043   0.959   0.172  0.00  0.00    -0.391 OA
ATOM     29  H18 <0> d           0.087  -0.005   0.223  0.00  0.00     0.210 HD
ENDBRANCH   7  28
TORSDOF 4
