REMARK  4 active torsions:
REMARK  status: ('A' for Active; 'I' for Inactive)
REMARK    1  A    between atoms: C1_1  and  C2_2 
REMARK    2  A    between atoms: C6_6  and  C9_10 
REMARK    3  A    between atoms: C9_10  and  C10_11 
REMARK    4  A    between atoms: C9_10  and  C11_12 
ROOT
ATOM      1  C2  <0> d           0.002  -0.004   0.002  0.00  0.00    -0.041 A 
ATOM      2  C3  <0> d           0.006  -0.689  -1.196  0.00  0.00    -0.076 A 
ATOM      3  C4  <0> d           0.025  -2.072  -1.205  0.00  0.00    -0.082 A 
ATOM      4  C5  <0> d           0.039  -2.779  -0.015  0.00  0.00    -0.075 A 
ATOM      5  C6  <0> d           0.035  -2.107   1.189  0.00  0.00    -0.034 A 
ATOM      6  C7  <0> d           0.023  -0.710   1.206  0.00  0.00     0.057 A 
ATOM      7  C8  <0> d           0.025  -0.006   2.453  0.00  0.00     0.100 C 
ATOM      8  N1  <0> d           0.027   0.553   3.442  0.00  0.00    -0.191 NA
ATOM      9  H4  <0> d          -0.006  -0.144  -2.128  0.00  0.00     0.084 H 
ATOM     10  H5  <0> d           0.027  -2.603  -2.145  0.00  0.00     0.083 H 
ATOM     11  H6  <0> d           0.053  -3.858  -0.030  0.00  0.00     0.084 H 
ENDROOT
BRANCH   1  12
ATOM     12  C1  <0> d          -0.018   1.503   0.010  0.00  0.00    -0.050 C 
ATOM     13  H1  <0> d           1.004   1.880   0.003  0.00  0.00     0.033 H 
ATOM     14  H2  <0> d          -0.545   1.864  -0.873  0.00  0.00     0.033 H 
ATOM     15  H3  <0> d          -0.529   1.854   0.907  0.00  0.00     0.033 H 
ENDBRANCH   1  12
BRANCH   5  16
ATOM     16  C9  <0> d           0.051  -2.877   2.484  0.00  0.00    -0.034 C 
ATOM     17  H7  <0> d           0.045  -2.180   3.322  0.00  0.00     0.046 H 
BRANCH  16  18
ATOM     18  C10 <0> d          -1.186  -3.775   2.559  0.00  0.00    -0.069 C 
ATOM     19  H8  <0> d          -1.181  -4.472   1.721  0.00  0.00     0.028 H 
ATOM     20  H9  <0> d          -1.175  -4.332   3.495  0.00  0.00     0.028 H 
ATOM     21  H10 <0> d          -2.085  -3.159   2.513  0.00  0.00     0.028 H 
ENDBRANCH  16  18
BRANCH  16  22
ATOM     22  C11 <0> d           1.312  -3.741   2.548  0.00  0.00    -0.069 C 
ATOM     23  H11 <0> d           2.193  -3.102   2.495  0.00  0.00     0.028 H 
ATOM     24  H12 <0> d           1.323  -4.299   3.485  0.00  0.00     0.028 H 
ATOM     25  H13 <0> d           1.318  -4.439   1.710  0.00  0.00     0.028 H 
ENDBRANCH  16  22
ENDBRANCH   5  16
TORSDOF 4
