REMARK  0 active torsions:
REMARK  status: ('A' for Active; 'I' for Inactive)
ROOT
ATOM      1  C1  <0> d           0.002  -0.004   0.002  0.00  0.00    -0.054 A 
ATOM      2  C2  <0> d           1.290  -0.377  -0.012  0.00  0.00    -0.020 A 
ATOM      3  N1  <0> d           2.099   0.730  -0.014  0.00  0.00    -0.350 N 
ATOM      4  H1  <0> d           3.069   0.710  -0.023  0.00  0.00     0.166 HD
ATOM      5  C3  <0> d           1.332   1.873  -0.001  0.00  0.00     0.138 A 
ATOM      6  C4  <0> d          -0.018   1.461   0.010  0.00  0.00     0.013 A 
ATOM      7  C5  <0> d          -1.035   2.415   0.020  0.00  0.00    -0.041 A 
ATOM      8  C6  <0> d          -0.673   3.754   0.028  0.00  0.00     0.062 A 
ATOM      9  C7  <0> d           0.695   4.098   0.017  0.00  0.00     0.087 A 
ATOM     10  N2  <0> d           1.637   3.160   0.003  0.00  0.00    -0.228 NA
ATOM     11  C8  <0> d           0.736   5.563   0.024  0.00  0.00    -0.038 A 
ATOM     12  C9  <0> d          -0.535   5.996   0.038  0.00  0.00    -0.020 A 
ATOM     13  N3  <0> d          -1.393   4.931   0.041  0.00  0.00    -0.364 N 
ATOM     14  H2  <0> d          -2.360   4.993   0.050  0.00  0.00     0.165 HD
ATOM     15  H3  <0> d          -0.857  -0.659   0.007  0.00  0.00     0.087 H 
ATOM     16  H4  <0> d           1.639  -1.399  -0.021  0.00  0.00     0.111 H 
ATOM     17  H5  <0> d          -2.074   2.120   0.023  0.00  0.00     0.088 H 
ATOM     18  H6  <0> d           1.623   6.179   0.019  0.00  0.00     0.089 H 
ATOM     19  H7  <0> d          -0.836   7.033   0.046  0.00  0.00     0.111 H 
ENDROOT
TORSDOF 0
