REMARK  4 active torsions:
REMARK  status: ('A' for Active; 'I' for Inactive)
REMARK    1  A    between atoms: C1_1  and  C2_2 
REMARK    2  A    between atoms: C5_5  and  C6_8 
REMARK    3  A    between atoms: C6_8  and  O2_10 
REMARK    4  A    between atoms: O2_10  and  C7_11 
ROOT
ATOM      1  C2  <0> d          -0.718   1.572   1.248  0.00  0.00     0.005 A 
ATOM      2  C3  <0> d          -2.046   1.821   1.351  0.00  0.00    -0.059 A 
ATOM      3  C4  <0> d          -2.301   2.250   2.657  0.00  0.00    -0.049 A 
ATOM      4  C5  <0> d          -1.091   2.257   3.322  0.00  0.00     0.108 A 
ATOM      5  N1  <0> d          -0.128   1.835   2.433  0.00  0.00    -0.355 N 
ATOM      6  H1  <0> d           0.818   1.742   2.627  0.00  0.00     0.166 HD
ATOM      7  H5  <0> d          -2.777   1.707   0.565  0.00  0.00     0.086 H 
ATOM      8  H6  <0> d          -3.261   2.526   3.067  0.00  0.00     0.087 H 
ENDROOT
BRANCH   4   9
ATOM      9  C6  <0> d          -0.873   2.643   4.718  0.00  0.00     0.309 C 
ATOM     10  O1  <0> d          -1.811   3.000   5.405  0.00  0.00    -0.258 OA
BRANCH   9  11
ATOM     11  O2  <0> d           0.370   2.602   5.242  0.00  0.00    -0.321 OA
BRANCH  11  12
ATOM     12  C7  <0> d           0.512   2.999   6.632  0.00  0.00     0.013 C 
ATOM     13  H7  <0> d           1.559   2.920   6.926  0.00  0.00     0.067 H 
ATOM     14  H8  <0> d           0.177   4.029   6.752  0.00  0.00     0.067 H 
ATOM     15  H9  <0> d          -0.092   2.344   7.260  0.00  0.00     0.067 H 
ENDBRANCH  11  12
ENDBRANCH   9  11
ENDBRANCH   4   9
BRANCH   1  16
ATOM     16  C1  <0> d          -0.013   1.086   0.008  0.00  0.00    -0.037 C 
ATOM     17  H2  <0> d           0.002  -0.004   0.002  0.00  0.00     0.035 H 
ATOM     18  H3  <0> d           1.010   1.463   0.000  0.00  0.00     0.035 H 
ATOM     19  H4  <0> d          -0.540   1.447  -0.875  0.00  0.00     0.035 H 
ENDBRANCH   1  16
TORSDOF 4
