REMARK  9 active torsions:
REMARK  status: ('A' for Active; 'I' for Inactive)
REMARK    1  A    between atoms: C1_1  and  C2_2 
REMARK    2  A    between atoms: C2_2  and  C3_3 
REMARK    3  A    between atoms: C3_3  and  C4_4 
REMARK    4  A    between atoms: C3_3  and  C7_7 
REMARK    5  A    between atoms: C3_3  and  O1_10 
REMARK    6  A    between atoms: C4_4  and  C5_5 
REMARK    7  A    between atoms: C4_4  and  C6_6 
REMARK    8  A    between atoms: C7_7  and  C8_8 
REMARK    9  A    between atoms: C7_7  and  C9_9 
ROOT
ATOM      1  C3  <0> d           0.780   1.226  -1.126  0.00  0.00     0.063 C 
ENDROOT
BRANCH   1   2
ATOM      2  C2  <0> d           1.738   0.932  -2.282  0.00  0.00    -0.039 C 
ATOM      3  H4  <0> d           2.755   1.191  -1.986  0.00  0.00     0.036 H 
ATOM      4  H5  <0> d           1.691  -0.128  -2.533  0.00  0.00     0.036 H 
BRANCH   2   5
ATOM      5  C1  <0> d           1.335   1.763  -3.502  0.00  0.00    -0.074 C 
ATOM      6  H1  <0> d           0.318   1.505  -3.798  0.00  0.00     0.027 H 
ATOM      7  H2  <0> d           1.382   2.823  -3.251  0.00  0.00     0.027 H 
ATOM      8  H3  <0> d           2.017   1.554  -4.326  0.00  0.00     0.027 H 
ENDBRANCH   2   5
ENDBRANCH   1   2
BRANCH   1   9
ATOM      9  C4  <0> d           0.753   2.732  -0.856  0.00  0.00    -0.031 C 
ATOM     10  H6  <0> d           0.229   3.237  -1.668  0.00  0.00     0.043 H 
BRANCH   9  11
ATOM     11  C5  <0> d           0.027   3.000   0.464  0.00  0.00    -0.070 C 
ATOM     12  H7  <0> d          -0.860   2.369   0.526  0.00  0.00     0.028 H 
ATOM     13  H8  <0> d           0.692   2.775   1.297  0.00  0.00     0.028 H 
ATOM     14  H9  <0> d          -0.270   4.048   0.508  0.00  0.00     0.028 H 
ENDBRANCH   9  11
BRANCH   9  15
ATOM     15  C6  <0> d           2.186   3.260  -0.766  0.00  0.00    -0.070 C 
ATOM     16  H10 <0> d           2.835   2.658  -1.402  0.00  0.00     0.028 H 
ATOM     17  H11 <0> d           2.212   4.298  -1.099  0.00  0.00     0.028 H 
ATOM     18  H12 <0> d           2.531   3.200   0.266  0.00  0.00     0.028 H 
ENDBRANCH   9  15
ENDBRANCH   1   9
BRANCH   1  19
ATOM     19  C7  <0> d           1.256   0.491   0.129  0.00  0.00    -0.031 C 
ATOM     20  H13 <0> d           1.528  -0.532  -0.130  0.00  0.00     0.043 H 
BRANCH  19  21
ATOM     21  C8  <0> d           2.474   1.211   0.711  0.00  0.00    -0.070 C 
ATOM     22  H14 <0> d           2.922   0.596   1.491  0.00  0.00     0.028 H 
ATOM     23  H15 <0> d           3.205   1.385  -0.080  0.00  0.00     0.028 H 
ATOM     24  H16 <0> d           2.164   2.167   1.134  0.00  0.00     0.028 H 
ENDBRANCH  19  21
BRANCH  19  25
ATOM     25  C9  <0> d           0.131   0.473   1.167  0.00  0.00    -0.070 C 
ATOM     26  H17 <0> d          -0.815   0.255   0.673  0.00  0.00     0.028 H 
ATOM     27  H18 <0> d           0.338  -0.294   1.913  0.00  0.00     0.028 H 
ATOM     28  H19 <0> d           0.071   1.447   1.654  0.00  0.00     0.028 H 
ENDBRANCH  19  25
ENDBRANCH   1  19
BRANCH   1  29
ATOM     29  O1  <0> d          -0.533   0.779  -1.470  0.00  0.00    -0.389 OA
ATOM     30  H20 <0> d          -0.591  -0.168  -1.655  0.00  0.00     0.210 HD
ENDBRANCH   1  29
TORSDOF 9
