REMARK  7 active torsions:
REMARK  status: ('A' for Active; 'I' for Inactive)
REMARK    1  A    between atoms: C1_1  and  C2_2 
REMARK    2  A    between atoms: C2_2  and  C3_3 
REMARK    3  A    between atoms: C3_3  and  C4_4 
REMARK    4  A    between atoms: C5_5  and  C6_6 
REMARK    5  A    between atoms: C6_6  and  O1_7 
REMARK    6  A    between atoms: O1_7  and  C7_8 
REMARK    7  A    between atoms: C7_8  and  C8_10 
ROOT
ATOM      1  C4  <0> d          -1.756  -1.501  -0.791  0.00  0.00    -0.105 C 
ATOM      2  C5  <0> d          -1.412  -0.526   0.013  0.00  0.00    -0.084 C 
ATOM      3  H8  <0> d          -1.027  -1.931  -1.462  0.00  0.00     0.076 H 
ATOM      4  H9  <0> d          -2.141  -0.096   0.683  0.00  0.00     0.079 H 
ENDROOT
BRANCH   1   5
ATOM      5  C3  <0> d          -3.170  -2.022  -0.781  0.00  0.00    -0.050 C 
ATOM      6  H6  <0> d          -3.173  -3.056  -0.435  0.00  0.00     0.038 H 
ATOM      7  H7  <0> d          -3.777  -1.413  -0.111  0.00  0.00     0.038 H 
BRANCH   5   8
ATOM      8  C2  <0> d          -3.749  -1.956  -2.196  0.00  0.00    -0.066 C 
ATOM      9  H4  <0> d          -3.745  -0.923  -2.542  0.00  0.00     0.032 H 
ATOM     10  H5  <0> d          -3.142  -2.566  -2.865  0.00  0.00     0.032 H 
BRANCH   8  11
ATOM     11  C1  <0> d          -5.184  -2.486  -2.185  0.00  0.00    -0.076 C 
ATOM     12  H1  <0> d          -5.188  -3.519  -1.839  0.00  0.00     0.027 H 
ATOM     13  H2  <0> d          -5.791  -1.877  -1.515  0.00  0.00     0.027 H 
ATOM     14  H3  <0> d          -5.596  -2.439  -3.193  0.00  0.00     0.027 H 
ENDBRANCH   8  11
ENDBRANCH   5   8
ENDBRANCH   1   5
BRANCH   2  15
ATOM     15  C6  <0> d           0.002  -0.004   0.002  0.00  0.00     0.044 C 
ATOM     16  H10 <0> d           0.512  -0.356  -0.895  0.00  0.00     0.081 H 
ATOM     17  H11 <0> d           0.529  -0.365   0.885  0.00  0.00     0.081 H 
BRANCH  15  18
ATOM     18  O1  <0> d          -0.018   1.448   0.010  0.00  0.00    -0.318 OA
BRANCH  18  19
ATOM     19  C7  <0> d           1.170   2.073   0.002  0.00  0.00     0.255 C 
ATOM     20  O2  <0> d           2.192   1.429  -0.011  0.00  0.00    -0.266 OA
BRANCH  19  21
ATOM     21  C8  <0> d           1.228   3.579   0.010  0.00  0.00     0.004 C 
ATOM     22  H12 <0> d           1.252   3.937   1.039  0.00  0.00     0.041 H 
ATOM     23  H13 <0> d           2.127   3.911  -0.511  0.00  0.00     0.041 H 
ATOM     24  H14 <0> d           0.348   3.979  -0.494  0.00  0.00     0.041 H 
ENDBRANCH  19  21
ENDBRANCH  18  19
ENDBRANCH  15  18
ENDBRANCH   2  15
TORSDOF 7
