REMARK  5 active torsions:
REMARK  status: ('A' for Active; 'I' for Inactive)
REMARK    1  A    between atoms: C1_1  and  C2_2 
REMARK    2  A    between atoms: C3_4  and  C5_9 
REMARK    3  A    between atoms: C4_6  and  N4_8 
REMARK    4  A    between atoms: C5_9  and  C6_10 
REMARK    5  A    between atoms: C5_9  and  C7_11 
ROOT
ATOM      1  C2  <0> d           0.002  -0.004   0.002  0.00  0.00     0.143 A 
ATOM      2  N1  <0> d           0.006  -0.659  -1.148  0.00  0.00    -0.217 NA
ATOM      3  C3  <0> d           0.024  -1.982  -1.161  0.00  0.00     0.150 A 
ATOM      4  N2  <0> d           0.038  -2.654  -0.024  0.00  0.00    -0.047 NA
ATOM      5  C4  <0> d           0.035  -2.000   1.134  0.00  0.00     0.723 A 
ATOM      6  N3  <0> d           0.022  -0.669   1.142  0.00  0.00    -0.048 NA
ENDROOT
BRANCH   3   7
ATOM      7  C5  <0> d           0.028  -2.722  -2.473  0.00  0.00    -0.001 C 
ATOM      8  H6  <0> d           0.014  -2.005  -3.295  0.00  0.00     0.051 H 
BRANCH   7   9
ATOM      9  C6  <0> d           1.289  -3.583  -2.569  0.00  0.00    -0.066 C 
ATOM     10  H7  <0> d           1.303  -4.300  -1.748  0.00  0.00     0.028 H 
ATOM     11  H8  <0> d           1.292  -4.118  -3.519  0.00  0.00     0.028 H 
ATOM     12  H9  <0> d           2.170  -2.945  -2.509  0.00  0.00     0.028 H 
ENDBRANCH   7   9
BRANCH   7  13
ATOM     13  C7  <0> d          -1.209  -3.618  -2.557  0.00  0.00    -0.066 C 
ATOM     14  H10 <0> d          -2.108  -3.004  -2.489  0.00  0.00     0.028 H 
ATOM     15  H11 <0> d          -1.206  -4.153  -3.506  0.00  0.00     0.028 H 
ATOM     16  H12 <0> d          -1.195  -4.334  -1.736  0.00  0.00     0.028 H 
ENDBRANCH   7  13
ENDBRANCH   3   7
BRANCH   1  17
ATOM     17  C1  <0> d          -0.018   1.503   0.010  0.00  0.00    -0.019 C 
ATOM     18  H1  <0> d           1.004   1.880   0.003  0.00  0.00     0.037 H 
ATOM     19  H2  <0> d          -0.545   1.864  -0.873  0.00  0.00     0.037 H 
ATOM     20  H3  <0> d          -0.529   1.854   0.907  0.00  0.00     0.037 H 
ENDBRANCH   1  17
BRANCH   5  21
ATOM     21  N4  <0> d           0.050  -2.699   2.324  0.00  0.00    -0.231 N 
ATOM     22  H4  <0> d           0.062  -3.669   2.316  0.00  0.00     0.174 HD
ATOM     23  H5  <0> d           0.047  -2.220   3.167  0.00  0.00     0.174 HD
ENDBRANCH   5  21
TORSDOF 5
