REMARK  2 active torsions:
REMARK  status: ('A' for Active; 'I' for Inactive)
REMARK    1  A    between atoms: C1_1  and  C2_2 
REMARK    2  A    between atoms: C2_2  and  C3_3 
ROOT
ATOM      1  C3  <0> d          -0.749   3.086   1.275  0.00  0.00     0.088 A 
ATOM      2  N1  <0> d          -1.344   3.749   2.304  0.00  0.00    -0.298 N 
ATOM      3  H1  <0> d          -1.812   3.185   3.124  0.00  0.00     0.172 HD
ATOM      4  C4  <0> d          -1.357   5.098   2.313  0.00  0.00     0.329 A 
ATOM      5  O1  <0> d          -1.881   5.699   3.230  0.00  0.00    -0.246 OA
ATOM      6  N2  <0> d          -0.788   5.774   1.293  0.00  0.00    -0.260 N 
ATOM      7  H2  <0> d          -0.797   6.874   1.290  0.00  0.00     0.175 HD
ATOM      8  C5  <0> d          -0.210   5.094   0.283  0.00  0.00     0.329 A 
ATOM      9  O2  <0> d           0.305   5.699  -0.639  0.00  0.00    -0.246 OA
ATOM     10  N3  <0> d          -0.200   3.749   0.291  0.00  0.00    -0.298 N 
ATOM     11  H8  <0> d           0.275   3.208  -0.540  0.00  0.00     0.172 HD
ENDROOT
BRANCH   1  12
ATOM     12  C2  <0> d          -0.729   1.579   1.267  0.00  0.00    -0.015 C 
ATOM     13  H6  <0> d          -1.761   1.198   1.275  0.00  0.00     0.043 H 
ATOM     14  H7  <0> d          -0.197   1.215   2.158  0.00  0.00     0.043 H 
BRANCH  12  15
ATOM     15  C1  <0> d          -0.013   1.086   0.008  0.00  0.00    -0.070 C 
ATOM     16  H3  <0> d           0.002  -0.014   0.002  0.00  0.00     0.028 H 
ATOM     17  H4  <0> d           1.019   1.467   0.000  0.00  0.00     0.028 H 
ATOM     18  H5  <0> d          -0.545   1.450  -0.883  0.00  0.00     0.028 H 
ENDBRANCH  12  15
ENDBRANCH   1  12
TORSDOF 2
