REMARK  6 active torsions:
REMARK  status: ('A' for Active; 'I' for Inactive)
REMARK    1  A    between atoms: C1_1  and  C2_2 
REMARK    2  A    between atoms: C2_2  and  C3_4 
REMARK    3  A    between atoms: C2_2  and  O3_7 
REMARK    4  A    between atoms: O3_7  and  C4_8 
REMARK    5  A    between atoms: C4_8  and  C5_9 
REMARK    6  A    between atoms: C4_8  and  C6_10 
ROOT
ATOM      1  O3  <0> d           0.487  -0.424  -1.167  0.00  0.00    -0.371 OA
ENDROOT
BRANCH   1   2
ATOM      2  C2  <0> d          -0.192  -0.074   0.041  0.00  0.00     0.119 C 
ATOM      3  H1  <0> d          -1.228  -0.408  -0.015  0.00  0.00     0.099 H 
BRANCH   2   4
ATOM      4  C1  <0> d          -0.155   1.444   0.226  0.00  0.00    -0.043 C 
ATOM      5  H2  <0> d           0.881   1.779   0.273  0.00  0.00     0.031 H 
ATOM      6  H3  <0> d          -0.654   1.925  -0.616  0.00  0.00     0.031 H 
ATOM      7  H4  <0> d          -0.665   1.711   1.151  0.00  0.00     0.031 H 
ENDBRANCH   2   4
BRANCH   2   8
ATOM      8  C3  <0> d           0.487  -0.739   1.210  0.00  0.00     0.202 C 
ATOM      9  O1  <0> d           0.009  -0.644   2.328  0.00  0.00    -0.646 OA
ATOM     10  O2  <0> d           1.515  -1.372   1.039  0.00  0.00    -0.646 OA
ENDBRANCH   2   8
ENDBRANCH   1   2
BRANCH   1  11
ATOM     11  C4  <0> d          -0.374  -0.559  -2.299  0.00  0.00     0.033 C 
ATOM     12  H5  <0> d          -1.395  -0.734  -1.960  0.00  0.00     0.082 H 
BRANCH  11  13
ATOM     13  C5  <0> d          -0.325   0.722  -3.133  0.00  0.00    -0.052 C 
ATOM     14  H6  <0> d          -0.662   1.563  -2.527  0.00  0.00     0.030 H 
ATOM     15  H7  <0> d           0.698   0.900  -3.466  0.00  0.00     0.030 H 
ATOM     16  H8  <0> d          -0.976   0.616  -4.001  0.00  0.00     0.030 H 
ENDBRANCH  11  13
BRANCH  11  17
ATOM     17  C6  <0> d           0.089  -1.742  -3.153  0.00  0.00    -0.052 C 
ATOM     18  H9  <0> d           0.054  -2.655  -2.559  0.00  0.00     0.030 H 
ATOM     19  H10 <0> d          -0.567  -1.845  -4.017  0.00  0.00     0.030 H 
ATOM     20  H11 <0> d           1.110  -1.567  -3.492  0.00  0.00     0.030 H 
ENDBRANCH  11  17
ENDBRANCH   1  11
TORSDOF 6
