REMARK  2 active torsions:
REMARK  status: ('A' for Active; 'I' for Inactive)
REMARK    1  A    between atoms: C1_1  and  N1_2 
REMARK    2  A    between atoms: C4_6  and  N3_10 
ROOT
ATOM      1  N1  <0> d           1.126  -0.691   0.271  0.00  0.00    -0.334 N 
ATOM      2  C2  <0> d           2.342   0.013   0.686  0.00  0.00     0.034 C 
ATOM      3  C3  <0> d           2.428   1.350  -0.056  0.00  0.00     0.150 C 
ATOM      4  H1  <0> d           2.701   1.172  -1.096  0.00  0.00     0.106 H 
ATOM      5  C4  <0> d           1.088   2.037   0.003  0.00  0.00     0.139 C 
ATOM      6  N2  <0> d          -0.016   1.338   0.009  0.00  0.00    -0.178 NA
ATOM      7  C5  <0> d           0.002  -0.004   0.002  0.00  0.00     0.345 C 
ATOM      8  O1  <0> d          -1.021  -0.612  -0.254  0.00  0.00    -0.245 OA
ATOM      9  F1  <0> d           3.395   2.159   0.551  0.00  0.00    -0.239 F 
ATOM     10  H5  <0> d           2.310   0.194   1.760  0.00  0.00     0.069 H 
ATOM     11  H6  <0> d           3.215  -0.594   0.444  0.00  0.00     0.069 H 
ENDROOT
BRANCH   1  12
ATOM     12  C1  <0> d           1.135  -2.151   0.148  0.00  0.00    -0.014 C 
ATOM     13  H2  <0> d           0.150  -2.495  -0.168  0.00  0.00     0.056 H 
ATOM     14  H3  <0> d           1.878  -2.449  -0.591  0.00  0.00     0.056 H 
ATOM     15  H4  <0> d           1.382  -2.595   1.112  0.00  0.00     0.056 H 
ENDBRANCH   1  12
BRANCH   5  16
ATOM     16  N3  <0> d           1.027   3.386   0.048  0.00  0.00    -0.385 N 
ATOM     17  H7  <0> d           0.167   3.832   0.085  0.00  0.00     0.157 HD
ATOM     18  H8  <0> d           1.845   3.908   0.043  0.00  0.00     0.157 HD
ENDBRANCH   5  16
TORSDOF 2
