REMARK  0 active torsions:
REMARK  status: ('A' for Active; 'I' for Inactive)
ROOT
ATOM      1  C1  <0> d          -0.016   1.353   0.009  0.00  0.00    -0.079 A 
ATOM      2  C2  <0> d           1.144   2.119   0.003  0.00  0.00    -0.062 A 
ATOM      3  C3  <0> d           2.397   1.527  -0.013  0.00  0.00     0.061 A 
ATOM      4  C4  <0> d           2.479   0.065  -0.021  0.00  0.00     0.070 A 
ATOM      5  C5  <0> d           1.226  -0.705  -0.013  0.00  0.00     0.093 A 
ATOM      6  C6  <0> d           0.002  -0.004   0.002  0.00  0.00    -0.052 A 
ATOM      7  N1  <0> d           1.565  -1.982  -0.023  0.00  0.00    -0.172 NA
ATOM      8  N2  <0> d           2.961  -2.085  -0.037  0.00  0.00    -0.253 N 
ATOM      9  H1  <0> d           3.458  -2.917  -0.046  0.00  0.00     0.191 HD
ATOM     10  C7  <0> d           3.510  -0.858  -0.036  0.00  0.00     0.209 A 
ATOM     11  O1  <0> d           4.836  -0.575  -0.047  0.00  0.00    -0.170 OA
ATOM     12  C8  <0> d           3.584   2.328  -0.020  0.00  0.00     0.100 C 
ATOM     13  N3  <0> d           4.526   2.962  -0.026  0.00  0.00    -0.191 NA
ATOM     14  H2  <0> d          -0.971   1.858   0.026  0.00  0.00     0.083 H 
ATOM     15  H3  <0> d           1.067   3.196   0.009  0.00  0.00     0.085 H 
ATOM     16  H4  <0> d          -0.929  -0.552   0.008  0.00  0.00     0.087 H 
ENDROOT
TORSDOF 0
