REMARK  3 active torsions:
REMARK  status: ('A' for Active; 'I' for Inactive)
REMARK    1  A    between atoms: C1_1  and  C2_2 
REMARK    2  A    between atoms: C2_2  and  C3_3 
REMARK    3  A    between atoms: C5_8  and  C6_9 
ROOT
ATOM      1  C3  <0> d           0.707  -0.490  -1.238  0.00  0.00     0.064 A 
ATOM      2  N1  <0> d           1.236   0.242  -2.176  0.00  0.00    -0.195 NA
ATOM      3  C4  <0> d           1.768  -0.569  -3.107  0.00  0.00     0.368 A 
ATOM      4  O1  <0> d           2.336  -0.191  -4.109  0.00  0.00    -0.243 OA
ATOM      5  N2  <0> d           1.584  -1.857  -2.771  0.00  0.00    -0.196 NA
ATOM      6  C5  <0> d           0.947  -1.906  -1.636  0.00  0.00     0.061 A 
ENDROOT
BRANCH   1   7
ATOM      7  C2  <0> d           0.002  -0.004   0.002  0.00  0.00    -0.026 C 
ATOM      8  H4  <0> d           0.529  -0.365   0.885  0.00  0.00     0.041 H 
ATOM      9  H5  <0> d          -1.020  -0.381   0.010  0.00  0.00     0.041 H 
BRANCH   7  10
ATOM     10  C1  <0> d          -0.019   1.526   0.010  0.00  0.00    -0.071 C 
ATOM     11  H1  <0> d           1.004   1.903   0.003  0.00  0.00     0.028 H 
ATOM     12  H2  <0> d          -0.546   1.887  -0.873  0.00  0.00     0.028 H 
ATOM     13  H3  <0> d          -0.529   1.877   0.907  0.00  0.00     0.028 H 
ENDBRANCH   7  10
ENDBRANCH   1   7
BRANCH   6  14
ATOM     14  C6  <0> d           0.534  -3.143  -0.881  0.00  0.00    -0.033 C 
ATOM     15  H6  <0> d          -0.461  -3.451  -1.204  0.00  0.00     0.035 H 
ATOM     16  H7  <0> d           1.245  -3.945  -1.080  0.00  0.00     0.035 H 
ATOM     17  H8  <0> d           0.519  -2.928   0.188  0.00  0.00     0.035 H 
ENDBRANCH   6  14
TORSDOF 3
