REMARK  0 active torsions:
REMARK  status: ('A' for Active; 'I' for Inactive)
ROOT
ATOM      1  C1  <0> d          -0.017   1.403   0.010  0.00  0.00    -0.032 A 
ATOM      2  C2  <0> d           1.164   2.080   0.002  0.00  0.00    -0.038 A 
ATOM      3  C3  <0> d           2.378   1.378  -0.014  0.00  0.00     0.146 A 
ATOM      4  N1  <0> d           2.400   0.071  -0.021  0.00  0.00    -0.153 NA
ATOM      5  N2  <0> d           1.210  -0.659  -0.013  0.00  0.00    -0.204 N 
ATOM      6  C4  <0> d           0.002  -0.004   0.002  0.00  0.00     0.174 A 
ATOM      7  N3  <0> d          -0.939  -0.935   0.006  0.00  0.00    -0.129 NA
ATOM      8  N4  <0> d          -0.386  -2.097  -0.006  0.00  0.00    -0.141 NA
ATOM      9  C5  <0> d           0.919  -1.978  -0.018  0.00  0.00     0.112 A 
ATOM     10 Cl1  <0> d           3.874   2.259  -0.024  0.00  0.00    -0.061 Cl
ATOM     11  H1  <0> d          -0.955   1.938   0.026  0.00  0.00     0.089 H 
ATOM     12  H2  <0> d           1.166   3.160   0.008  0.00  0.00     0.088 H 
ATOM     13  H3  <0> d           1.633  -2.788  -0.030  0.00  0.00     0.149 H 
ENDROOT
TORSDOF 0
