REMARK  0 active torsions:
REMARK  status: ('A' for Active; 'I' for Inactive)
ROOT
ATOM      1  C1  <0> d           2.322   1.341  -0.013  0.00  0.00     0.008 A 
ATOM      2  C2  <0> d           2.305  -0.052  -0.020  0.00  0.00     0.185 A 
ATOM      3  N1  <0> d           1.137  -0.684  -0.012  0.00  0.00    -0.297 N 
ATOM      4  C3  <0> d           0.002  -0.004   0.002  0.00  0.00     0.281 A 
ATOM      5  N2  <0> d          -0.016   1.319   0.009  0.00  0.00    -0.194 NA
ATOM      6  C4  <0> d           1.113   2.015   0.002  0.00  0.00     0.134 A 
ATOM      7 Cl1  <0> d           1.074   3.750   0.012  0.00  0.00    -0.062 Cl
ATOM      8  O1  <0> d          -1.172  -0.680   0.010  0.00  0.00    -0.149 OA
ATOM      9  O2  <0> d           3.465  -0.753  -0.034  0.00  0.00    -0.172 OA
ATOM     10  H1  <0> d           3.180   1.854  -0.019  0.00  0.00     0.095 H 
ATOM     11  H2  <0> d           1.120  -1.783  -0.017  0.00  0.00     0.171 HD
ENDROOT
TORSDOF 0
