REMARK  1 active torsions:
REMARK  status: ('A' for Active; 'I' for Inactive)
REMARK    1  A    between atoms: C5_6  and  C6_7 
ROOT
ATOM      1  C1  <0> d          -0.017   1.375   0.010  0.00  0.00    -0.053 A 
ATOM      2  C2  <0> d           0.002  -0.004   0.002  0.00  0.00     0.003 A 
ATOM      3  N1  <0> d           1.143  -0.666  -0.012  0.00  0.00    -0.273 NA
ATOM      4  C3  <0> d           2.311  -0.051  -0.020  0.00  0.00     0.003 A 
ATOM      5  C4  <0> d           2.385   1.326  -0.013  0.00  0.00    -0.053 A 
ATOM      6  C5  <0> d           1.199   2.070   0.002  0.00  0.00     0.002 A 
ATOM      7  H1  <0> d          -0.955   1.910   0.017  0.00  0.00     0.087 H 
ATOM      8  H2  <0> d          -0.930  -0.549   0.008  0.00  0.00     0.114 H 
ATOM      9  H3  <0> d           3.220  -0.633  -0.032  0.00  0.00     0.114 H 
ATOM     10  H4  <0> d           3.344   1.823  -0.019  0.00  0.00     0.087 H 
ENDROOT
BRANCH   6  11
ATOM     11  C6  <0> d           1.229   3.547   0.010  0.00  0.00     0.104 A 
ATOM     12  O1  <0> d           0.161   4.374   0.025  0.00  0.00    -0.302 OA
ATOM     13  C8  <0> d           0.620   5.632   0.028  0.00  0.00     0.103 A 
ATOM     14  N2  <0> d           1.923   5.610   0.015  0.00  0.00    -0.246 NA
ATOM     15  H6  <0> d           0.008   6.523   0.039  0.00  0.00     0.155 H 
ATOM     16  C7  <0> d           2.336   4.334   0.009  0.00  0.00     0.037 A 
ATOM     17  H5  <0> d           3.361   3.995   0.003  0.00  0.00     0.119 H 
ENDBRANCH   6  11
TORSDOF 1
