REMARK  0 active torsions:
REMARK  status: ('A' for Active; 'I' for Inactive)
ROOT
ATOM      1  C1  <0> d           1.031   3.038  -0.734  0.00  0.00     0.006 C 
ATOM      2  C2  <0> d           1.255   1.706  -0.001  0.00  0.00     0.086 C 
ATOM      3  N1  <0> d          -0.011   0.966   0.007  0.00  0.00    -0.322 N 
ATOM      4  C3  <0> d          -1.188   1.611   0.017  0.00  0.00     0.319 C 
ATOM      5  O1  <0> d          -2.213   0.957   0.014  0.00  0.00    -0.247 OA
ATOM      6  N2  <0> d          -1.284   2.959   0.015  0.00  0.00    -0.322 N 
ATOM      7  C4  <0> d          -0.074   3.787   0.028  0.00  0.00     0.086 C 
ATOM      8  N3  <0> d           0.373   3.985   1.411  0.00  0.00    -0.322 N 
ATOM      9  C5  <0> d           1.192   3.103   2.005  0.00  0.00     0.319 C 
ATOM     10  O2  <0> d           1.540   3.310   3.151  0.00  0.00    -0.247 OA
ATOM     11  N4  <0> d           1.641   2.001   1.383  0.00  0.00    -0.322 N 
ATOM     12  H1  <0> d           1.950   3.624  -0.730  0.00  0.00     0.044 H 
ATOM     13  H2  <0> d           0.714   2.849  -1.760  0.00  0.00     0.044 H 
ATOM     14  H3  <0> d           2.028   1.124  -0.504  0.00  0.00     0.107 H 
ATOM     15  H4  <0> d           0.002  -0.004   0.002  0.00  0.00     0.166 HD
ATOM     16  H5  <0> d          -2.155   3.386   0.026  0.00  0.00     0.166 HD
ATOM     17  H6  <0> d          -0.271   4.750  -0.445  0.00  0.00     0.107 H 
ATOM     18  H7  <0> d           0.073   4.765   1.903  0.00  0.00     0.166 HD
ATOM     19  H8  <0> d           2.229   1.391   1.856  0.00  0.00     0.166 HD
ENDROOT
TORSDOF 0
