REMARK  2 active torsions:
REMARK  status: ('A' for Active; 'I' for Inactive)
REMARK    1  A    between atoms: C1_1  and  C2_2 
REMARK    2  A    between atoms: C2_2  and  C3_4 
ROOT
ATOM      1  C3  <0> d          -1.255   0.603   2.216  0.00  0.00     0.031 A 
ATOM      2  C4  <0> d          -1.118  -0.770   1.987  0.00  0.00    -0.068 A 
ATOM      3  C5  <0> d          -1.619  -1.671   2.901  0.00  0.00    -0.082 A 
ATOM      4  C6  <0> d          -2.266  -1.222   4.040  0.00  0.00    -0.081 A 
ATOM      5  C7  <0> d          -2.411   0.134   4.272  0.00  0.00    -0.061 A 
ATOM      6  C8  <0> d          -1.911   1.051   3.369  0.00  0.00     0.047 A 
ATOM      7 Cl1  <0> d          -2.095   2.752   3.662  0.00  0.00    -0.083 Cl
ATOM      8  H4  <0> d          -0.617  -1.123   1.097  0.00  0.00     0.085 H 
ATOM      9  H5  <0> d          -1.510  -2.732   2.727  0.00  0.00     0.083 H 
ATOM     10  H6  <0> d          -2.659  -1.933   4.750  0.00  0.00     0.083 H 
ATOM     11  H7  <0> d          -2.918   0.477   5.162  0.00  0.00     0.086 H 
ENDROOT
BRANCH   1  12
ATOM     12  C2  <0> d          -0.718   1.572   1.248  0.00  0.00     0.157 C 
ATOM     13  O1  <0> d          -0.843   2.761   1.447  0.00  0.00    -0.293 OA
BRANCH  12  14
ATOM     14  C1  <0> d          -0.013   1.086   0.008  0.00  0.00    -0.017 C 
ATOM     15  H1  <0> d           0.001   0.086   0.003  0.00  0.00     0.038 H 
ATOM     16  H2  <0> d           1.010   1.463   0.000  0.00  0.00     0.038 H 
ATOM     17  H3  <0> d          -0.540   1.447  -0.875  0.00  0.00     0.038 H 
ENDBRANCH  12  14
ENDBRANCH   1  12
TORSDOF 2
