REMARK  8 active torsions:
REMARK  status: ('A' for Active; 'I' for Inactive)
REMARK    1  A    between atoms: C1_1  and  C2_2 
REMARK    2  A    between atoms: C2_2  and  C3_3 
REMARK    3  A    between atoms: C3_3  and  C4_4 
REMARK    4  A    between atoms: C4_4  and  C5_6 
REMARK    5  A    between atoms: C4_4  and  O2_12 
REMARK    6  A    between atoms: C5_6  and  C6_8 
REMARK    7  A    between atoms: C5_6  and  C7_9 
REMARK    8  A    between atoms: C7_9  and  C8_11 
ROOT
ATOM      1  C4  <0> d           0.763  -2.041   1.233  0.00  0.00     0.045 C 
ATOM      2  H1  <0> d           1.193  -2.393   0.296  0.00  0.00     0.084 H 
ENDROOT
BRANCH   1   3
ATOM      3  C3  <0> d           0.742  -0.511   1.242  0.00  0.00    -0.041 C 
ATOM      4  H8  <0> d           1.765  -0.134   1.234  0.00  0.00     0.036 H 
ATOM      5  H9  <0> d           0.232  -0.159   2.138  0.00  0.00     0.036 H 
BRANCH   3   6
ATOM      6  C2  <0> d           0.002  -0.004   0.002  0.00  0.00    -0.066 C 
ATOM      7  H6  <0> d          -1.020  -0.381   0.010  0.00  0.00     0.032 H 
ATOM      8  H7  <0> d           0.512  -0.356  -0.895  0.00  0.00     0.032 H 
BRANCH   6   9
ATOM      9  C1  <0> d          -0.019   1.526   0.010  0.00  0.00    -0.076 C 
ATOM     10  H3  <0> d           1.004   1.903   0.003  0.00  0.00     0.027 H 
ATOM     11  H4  <0> d          -0.546   1.887  -0.873  0.00  0.00     0.027 H 
ATOM     12  H5  <0> d          -0.529   1.877   0.907  0.00  0.00     0.027 H 
ENDBRANCH   6   9
ENDBRANCH   3   6
ENDBRANCH   1   3
BRANCH   1  13
ATOM     13  C5  <0> d           1.608  -2.546   2.404  0.00  0.00     0.025 C 
ATOM     14  H2  <0> d           1.178  -2.193   3.341  0.00  0.00     0.055 H 
BRANCH  13  15
ATOM     15  C6  <0> d           3.037  -2.016   2.268  0.00  0.00    -0.064 C 
ATOM     16  H10 <0> d           3.467  -2.368   1.330  0.00  0.00     0.028 H 
ATOM     17  H11 <0> d           3.022  -0.926   2.273  0.00  0.00     0.028 H 
ATOM     18  H12 <0> d           3.639  -2.375   3.102  0.00  0.00     0.028 H 
ENDBRANCH  13  15
BRANCH  13  19
ATOM     19  C7  <0> d           1.629  -4.053   2.396  0.00  0.00     0.129 C 
ATOM     20  O1  <0> d           1.536  -4.652   1.351  0.00  0.00    -0.298 OA
BRANCH  19  21
ATOM     21  C8  <0> d           1.765  -4.811   3.691  0.00  0.00    -0.021 C 
ATOM     22  H13 <0> d           1.836  -4.107   4.519  0.00  0.00     0.037 H 
ATOM     23  H14 <0> d           0.893  -5.451   3.831  0.00  0.00     0.037 H 
ATOM     24  H15 <0> d           2.665  -5.426   3.659  0.00  0.00     0.037 H 
ENDBRANCH  19  21
ENDBRANCH  13  19
ENDBRANCH   1  13
BRANCH   1  25
ATOM     25  O2  <0> d          -0.572  -2.536   1.361  0.00  0.00    -0.395 OA
ATOM     26  H16 <0> d          -1.017  -2.261   2.174  0.00  0.00     0.210 HD
ENDBRANCH   1  25
TORSDOF 8
