REMARK  3 active torsions:
REMARK  status: ('A' for Active; 'I' for Inactive)
REMARK    1  A    between atoms: C3_4  and  N1_5 
REMARK    2  A    between atoms: N2_6  and  C4_7 
REMARK    3  A    between atoms: C4_7  and  C5_8 
ROOT
ATOM      1  C1  <0> d          -3.031   0.600  -1.148  0.00  0.00    -0.011 A 
ATOM      2  C2  <0> d          -4.028  -0.285  -1.135  0.00  0.00    -0.026 A 
ATOM      3  S1  <0> d          -4.189  -0.646   0.606  0.00  0.00    -0.063 SA
ATOM      4  C3  <0> d          -2.886   0.423   1.198  0.00  0.00     0.165 A 
ATOM      5  N2  <0> d          -2.430   0.973   0.019  0.00  0.00    -0.326 N 
ATOM      6  H1  <0> d          -2.695   1.019  -2.084  0.00  0.00     0.112 H 
ATOM      7  H2  <0> d          -4.596  -0.679  -1.965  0.00  0.00     0.097 H 
ENDROOT
BRANCH   5   8
ATOM      8  C4  <0> d          -1.329   1.940   0.019  0.00  0.00     0.081 C 
ATOM      9  H4  <0> d          -1.391   2.561   0.913  0.00  0.00     0.081 H 
ATOM     10  H5  <0> d          -1.400   2.570  -0.867  0.00  0.00     0.081 H 
BRANCH   8  11
ATOM     11  C5  <0> d          -0.014   1.204   0.009  0.00  0.00     0.191 C 
ATOM     12  O1  <0> d           0.002  -0.004   0.002  0.00  0.00    -0.647 OA
ATOM     13  O2  <0> d           1.139   1.891   0.001  0.00  0.00    -0.647 OA
ENDBRANCH   8  11
ENDBRANCH   5   8
BRANCH   4  14
ATOM     14  N1  <0> d          -2.473   0.630   2.424  0.00  0.00    -0.277 NA
ATOM     15  H3  <0> d          -2.897   0.165   3.163  0.00  0.00     0.189 HD
ENDBRANCH   4  14
TORSDOF 3
