REMARK  8 active torsions:
REMARK  status: ('A' for Active; 'I' for Inactive)
REMARK    1  A    between atoms: C1_1  and  C2_2 
REMARK    2  A    between atoms: C2_2  and  C3_3 
REMARK    3  A    between atoms: C3_3  and  C4_4 
REMARK    4  A    between atoms: C4_4  and  C5_6 
REMARK    5  A    between atoms: C4_4  and  C6_7 
REMARK    6  A    between atoms: C6_7  and  C7_9 
REMARK    7  A    between atoms: C7_9  and  C8_10 
REMARK    8  A    between atoms: C7_9  and  C9_11 
ROOT
ATOM      1  C4  <0> d           0.011   1.072   2.506  0.00  0.00     0.001 C 
ATOM      2  H1  <0> d           0.096   0.077   2.460  0.00  0.00     0.051 H 
ENDROOT
BRANCH   1   3
ATOM      3  C3  <0> d          -0.729   1.579   1.267  0.00  0.00    -0.056 C 
ATOM      4  H7  <0> d          -0.744   2.669   1.273  0.00  0.00     0.034 H 
ATOM      5  H8  <0> d          -1.751   1.202   1.275  0.00  0.00     0.034 H 
BRANCH   3   6
ATOM      6  C2  <0> d          -0.013   1.086   0.008  0.00  0.00    -0.068 C 
ATOM      7  H5  <0> d           0.002  -0.004   0.002  0.00  0.00     0.032 H 
ATOM      8  H6  <0> d           1.010   1.463   0.000  0.00  0.00     0.032 H 
BRANCH   6   9
ATOM      9  C1  <0> d          -0.753   1.593  -1.232  0.00  0.00    -0.076 C 
ATOM     10  H2  <0> d          -1.775   1.215  -1.224  0.00  0.00     0.027 H 
ATOM     11  H3  <0> d          -0.767   2.683  -1.226  0.00  0.00     0.027 H 
ATOM     12  H4  <0> d          -0.242   1.241  -2.128  0.00  0.00     0.027 H 
ENDBRANCH   6   9
ENDBRANCH   3   6
ENDBRANCH   1   3
BRANCH   1  13
ATOM     13  C5  <0> d           1.405   1.701   2.561  0.00  0.00    -0.066 C 
ATOM     14  H9  <0> d           1.963   1.425   1.666  0.00  0.00     0.028 H 
ATOM     15  H10 <0> d           1.312   2.786   2.611  0.00  0.00     0.028 H 
ATOM     16  H11 <0> d           1.932   1.340   3.444  0.00  0.00     0.028 H 
ENDBRANCH   1  13
BRANCH   1  17
ATOM     17  C6  <0> d          -0.761   1.454   3.743  0.00  0.00     0.134 C 
ATOM     18  O1  <0> d          -1.504   2.405   3.721  0.00  0.00    -0.297 OA
BRANCH  17  19
ATOM     19  C7  <0> d          -0.605   0.648   5.007  0.00  0.00    -0.003 C 
ATOM     20  H12 <0> d           0.339   0.327   5.083  0.00  0.00     0.050 H 
BRANCH  19  21
ATOM     21  C8  <0> d          -0.945   1.523   6.215  0.00  0.00    -0.067 C 
ATOM     22  H13 <0> d          -1.974   1.873   6.132  0.00  0.00     0.028 H 
ATOM     23  H14 <0> d          -0.832   0.941   7.129  0.00  0.00     0.028 H 
ATOM     24  H15 <0> d          -0.271   2.380   6.245  0.00  0.00     0.028 H 
ENDBRANCH  19  21
BRANCH  19  25
ATOM     25  C9  <0> d          -1.550  -0.554   4.966  0.00  0.00    -0.067 C 
ATOM     26  H16 <0> d          -1.308  -1.177   4.105  0.00  0.00     0.028 H 
ATOM     27  H17 <0> d          -1.438  -1.137   5.880  0.00  0.00     0.028 H 
ATOM     28  H18 <0> d          -2.579  -0.204   4.883  0.00  0.00     0.028 H 
ENDBRANCH  19  25
ENDBRANCH  17  19
ENDBRANCH   1  17
TORSDOF 8
