REMARK  0 active torsions:
REMARK  status: ('A' for Active; 'I' for Inactive)
ROOT
ATOM      1  C1  <0> d           3.388   3.062  -0.013  0.00  0.00    -0.065 A 
ATOM      2  C2  <0> d           2.006   3.030  -0.000  0.00  0.00    -0.068 A 
ATOM      3  C3  <0> d           1.379   1.782  -0.002  0.00  0.00     0.011 A 
ATOM      4  C4  <0> d          -0.016   1.338   0.009  0.00  0.00    -0.054 A 
ATOM      5  C5  <0> d           0.002  -0.004   0.002  0.00  0.00    -0.020 A 
ATOM      6  N1  <0> d           1.296  -0.453  -0.013  0.00  0.00    -0.350 N 
ATOM      7  H1  <0> d           1.560  -1.386  -0.021  0.00  0.00     0.166 HD
ATOM      8  C6  <0> d           2.163   0.612  -0.015  0.00  0.00     0.137 A 
ATOM      9  N2  <0> d           3.486   0.706  -0.027  0.00  0.00    -0.242 NA
ATOM     10  C7  <0> d           4.097   1.871  -0.026  0.00  0.00     0.004 A 
ATOM     11  H2  <0> d           3.910   4.008  -0.013  0.00  0.00     0.085 H 
ATOM     12  H3  <0> d           1.428   3.942   0.010  0.00  0.00     0.085 H 
ATOM     13  H4  <0> d          -0.892   1.970   0.017  0.00  0.00     0.087 H 
ATOM     14  H5  <0> d          -0.874  -0.636   0.007  0.00  0.00     0.111 H 
ATOM     15  H6  <0> d           5.177   1.901  -0.036  0.00  0.00     0.114 H 
ENDROOT
TORSDOF 0
