REMARK  1 active torsions:
REMARK  status: ('A' for Active; 'I' for Inactive)
REMARK    1  A    between atoms: C6_6  and  N1_7 
ROOT
ATOM      1  C1  <0> d           1.176   1.782   0.000  0.00  0.00    -0.055 A 
ATOM      2  C2  <0> d          -0.013   1.076   0.008  0.00  0.00    -0.046 A 
ATOM      3  C3  <0> d          -1.223   1.751   0.017  0.00  0.00     0.095 A 
ATOM      4  C4  <0> d          -1.236   3.143   0.034  0.00  0.00     0.064 A 
ATOM      5  C5  <0> d          -0.046   3.852   0.025  0.00  0.00    -0.030 A 
ATOM      6  C6  <0> d           1.164   3.170   0.008  0.00  0.00     0.028 A 
ATOM      7  N2  <0> d          -2.461   3.829   0.058  0.00  0.00    -0.386 N 
ATOM      8  C7  <0> d          -3.680   3.061  -0.263  0.00  0.00     0.013 C 
ATOM      9  C8  <0> d          -3.571   1.709   0.456  0.00  0.00     0.041 C 
ATOM     10  O1  <0> d          -2.386   1.045   0.011  0.00  0.00    -0.347 OA
ATOM     11  H1  <0> d           2.117   1.251  -0.011  0.00  0.00     0.087 H 
ATOM     12  H2  <0> d           0.002  -0.004   0.002  0.00  0.00     0.087 H 
ATOM     13  H3  <0> d          -0.058   4.932   0.031  0.00  0.00     0.090 H 
ATOM     14  H6  <0> d          -2.533   4.899   0.303  0.00  0.00     0.159 HD
ATOM     15  H7  <0> d          -4.564   3.615   0.087  0.00  0.00     0.067 H 
ATOM     16  H8  <0> d          -3.746   2.916  -1.351  0.00  0.00     0.067 H 
ATOM     17  H9  <0> d          -3.520   1.874   1.542  0.00  0.00     0.077 H 
ATOM     18  H10 <0> d          -4.453   1.096   0.219  0.00  0.00     0.077 H 
ENDROOT
BRANCH   6  19
ATOM     19  N1  <0> d           2.369   3.881  -0.001  0.00  0.00    -0.399 N 
ATOM     20  H4  <0> d           2.359   4.981   0.005  0.00  0.00     0.156 HD
ATOM     21  H5  <0> d           3.327   3.340  -0.015  0.00  0.00     0.156 HD
ENDBRANCH   6  19
TORSDOF 1
