REMARK  3 active torsions:
REMARK  status: ('A' for Active; 'I' for Inactive)
REMARK    1  A    between atoms: C1_1  and  C2_2 
REMARK    2  A    between atoms: C2_2  and  C8_12 
REMARK    3  A    between atoms: C3_3  and  C6_9 
ROOT
ATOM      1  C2  <0> d          -1.141   2.155   0.790  0.00  0.00    -0.025 A 
ATOM      2  C3  <0> d          -1.155   2.163  -0.741  0.00  0.00    -0.018 A 
ATOM      3  H1  <0> d          -1.889   1.530  -1.241  0.00  0.00     0.044 H 
ATOM      4  C4  <0> d          -0.018   1.468   0.010  0.00  0.00     0.042 A 
ATOM      5  H2  <0> d           0.959   1.951   0.003  0.00  0.00     0.064 H 
ATOM      6  C5  <0> d           0.002  -0.004   0.002  0.00  0.00     0.065 C 
ATOM      7  N1  <0> d           0.018  -1.140  -0.004  0.00  0.00    -0.197 NA
ENDROOT
BRANCH   1   8
ATOM      8  C1  <0> d          -2.157   1.259   1.502  0.00  0.00    -0.068 C 
ATOM      9  H3  <0> d          -2.032   1.354   2.580  0.00  0.00     0.028 H 
ATOM     10  H4  <0> d          -3.166   1.564   1.225  0.00  0.00     0.028 H 
ATOM     11  H5  <0> d          -1.997   0.222   1.207  0.00  0.00     0.028 H 
ENDBRANCH   1   8
BRANCH   1  12
ATOM     12  C8  <0> d          -0.806   3.468   1.500  0.00  0.00    -0.068 C 
ATOM     13  H8  <0> d           0.189   3.798   1.204  0.00  0.00     0.028 H 
ATOM     14  H9  <0> d          -1.538   4.227   1.223  0.00  0.00     0.028 H 
ATOM     15  H10 <0> d          -0.833   3.315   2.579  0.00  0.00     0.028 H 
ENDBRANCH   1  12
BRANCH   2  16
ATOM     16  C6  <0> d          -0.835   3.484  -1.443  0.00  0.00     0.020 C 
ATOM     17  C7  <0> d          -1.015   3.324  -2.895  0.00  0.00     0.059 C 
ATOM     18  N2  <0> d          -1.154   3.200  -4.016  0.00  0.00    -0.197 NA
ATOM     19  H6  <0> d          -1.505   4.262  -1.077  0.00  0.00     0.055 H 
ATOM     20  H7  <0> d           0.197   3.765  -1.234  0.00  0.00     0.055 H 
ENDBRANCH   2  16
TORSDOF 3
