REMARK  1 active torsions:
REMARK  status: ('A' for Active; 'I' for Inactive)
REMARK    1  A    between atoms: C1_1  and  C2_2 
ROOT
ATOM      1  C2  <0> d           3.025   2.376  -1.180  0.00  0.00     0.104 A 
ATOM      2  N1  <0> d           3.719   2.686  -0.115  0.00  0.00    -0.216 NA
ATOM      3  C3  <0> d           3.223   2.445   1.114  0.00  0.00     0.161 A 
ATOM      4  C4  <0> d           1.886   1.833   1.208  0.00  0.00     0.084 A 
ATOM      5  C5  <0> d           1.608   1.703   2.553  0.00  0.00     0.040 A 
ATOM      6  N2  <0> d           2.652   2.189   3.236  0.00  0.00    -0.184 NA
ATOM      7  H1  <0> d           4.619   3.097   2.533  0.00  0.00     0.191 HD
ATOM      8  N3  <0> d           3.635   2.641   2.348  0.00  0.00    -0.261 N 
ATOM      9  C6  <0> d           1.217   1.530  -0.001  0.00  0.00     0.196 A 
ATOM     10  N4  <0> d           1.823   1.821  -1.141  0.00  0.00    -0.322 N 
ATOM     11  O1  <0> d          -0.011   0.963   0.007  0.00  0.00    -0.171 OA
ATOM     12  H5  <0> d           0.708   1.284   2.978  0.00  0.00     0.119 H 
ATOM     13  H6  <0> d           1.295   1.586  -2.077  0.00  0.00     0.169 HD
ENDROOT
BRANCH   1  14
ATOM     14  C1  <0> d           3.629   2.668  -2.530  0.00  0.00    -0.021 C 
ATOM     15  H2  <0> d           4.621   3.124  -2.397  0.00  0.00     0.037 H 
ATOM     16  H3  <0> d           2.976   3.361  -3.081  0.00  0.00     0.037 H 
ATOM     17  H4  <0> d           3.729   1.730  -3.097  0.00  0.00     0.037 H 
ENDBRANCH   1  14
TORSDOF 1
