REMARK  2 active torsions:
REMARK  status: ('A' for Active; 'I' for Inactive)
REMARK    1  A    between atoms: C1_1  and  C2_2 
REMARK    2  A    between atoms: C7_10  and  O1_13 
ROOT
ATOM      1  C2  <0> d           0.687   3.293   0.013  0.00  0.00    -0.035 C 
ATOM      2  H1  <0> d           0.797   3.719  -0.984  0.00  0.00     0.046 H 
ATOM      3  C3  <0> d           1.054   1.828   0.002  0.00  0.00    -0.102 C 
ATOM      4  C4  <0> d          -0.013   1.076   0.008  0.00  0.00    -0.102 C 
ATOM      5  C5  <0> d          -1.271   1.913   0.018  0.00  0.00    -0.029 C 
ATOM      6  H2  <0> d          -2.102   1.487   0.580  0.00  0.00     0.047 H 
ATOM      7  C6  <0> d          -0.794   3.326   0.450  0.00  0.00    -0.016 C 
ATOM      8  H3  <0> d          -0.977   3.633   1.480  0.00  0.00     0.045 H 
ATOM      9  C7  <0> d          -1.735   3.884  -0.628  0.00  0.00     0.041 C 
ATOM     10  H4  <0> d          -1.308   4.713  -1.192  0.00  0.00     0.083 H 
ATOM     11  C8  <0> d          -1.607   2.529  -1.350  0.00  0.00    -0.034 C 
ATOM     12  H8  <0> d           2.066   1.452  -0.010  0.00  0.00     0.076 H 
ATOM     13  H9  <0> d           0.002  -0.004   0.002  0.00  0.00     0.077 H 
ATOM     14  H10 <0> d          -0.781   2.486  -2.061  0.00  0.00     0.037 H 
ATOM     15  H11 <0> d          -2.545   2.169  -1.771  0.00  0.00     0.037 H 
ENDROOT
BRANCH   1  16
ATOM     16  C1  <0> d           1.556   4.052   1.017  0.00  0.00    -0.069 C 
ATOM     17  H5  <0> d           2.603   3.973   0.725  0.00  0.00     0.028 H 
ATOM     18  H6  <0> d           1.262   5.102   1.032  0.00  0.00     0.028 H 
ATOM     19  H7  <0> d           1.423   3.624   2.010  0.00  0.00     0.028 H 
ENDBRANCH   1  16
BRANCH   9  20
ATOM     20  O1  <0> d          -3.053   4.160  -0.149  0.00  0.00    -0.395 OA
ATOM     21  H12 <0> d          -3.651   4.511  -0.823  0.00  0.00     0.210 HD
ENDBRANCH   9  20
TORSDOF 2
