REMARK  0 active torsions:
REMARK  status: ('A' for Active; 'I' for Inactive)
ROOT
ATOM      1  C1  <0> d           1.268  -0.445  -0.012  0.00  0.00    -0.054 A 
ATOM      2  C2  <0> d           0.002  -0.004   0.002  0.00  0.00    -0.020 A 
ATOM      3  N1  <0> d          -0.017   1.367   0.010  0.00  0.00    -0.350 N 
ATOM      4  H1  <0> d          -0.819   1.912   0.017  0.00  0.00     0.166 HD
ATOM      5  C3  <0> d           1.270   1.856  -0.000  0.00  0.00     0.140 A 
ATOM      6  C4  <0> d           2.132   0.739  -0.014  0.00  0.00     0.012 A 
ATOM      7  C5  <0> d           3.511   0.931  -0.027  0.00  0.00    -0.056 A 
ATOM      8  C6  <0> d           3.983   2.242  -0.025  0.00  0.00     0.012 A 
ATOM      9  C7  <0> d           5.320   2.844  -0.035  0.00  0.00    -0.054 A 
ATOM     10  C8  <0> d           5.149   4.173  -0.026  0.00  0.00    -0.020 A 
ATOM     11  N2  <0> d           3.811   4.473  -0.011  0.00  0.00    -0.350 N 
ATOM     12  H2  <0> d           3.443   5.371  -0.004  0.00  0.00     0.166 HD
ATOM     13  C9  <0> d           3.068   3.315  -0.010  0.00  0.00     0.140 A 
ATOM     14  N3  <0> d           1.763   3.085   0.002  0.00  0.00    -0.212 NA
ATOM     15  H3  <0> d           1.590  -1.476  -0.021  0.00  0.00     0.087 H 
ATOM     16  H4  <0> d          -0.874  -0.636   0.007  0.00  0.00     0.111 H 
ATOM     17  H5  <0> d           4.192   0.093  -0.037  0.00  0.00     0.086 H 
ATOM     18  H6  <0> d           6.263   2.316  -0.046  0.00  0.00     0.087 H 
ATOM     19  H7  <0> d           5.947   4.901  -0.030  0.00  0.00     0.111 H 
ENDROOT
TORSDOF 0
