REMARK  4 active torsions:
REMARK  status: ('A' for Active; 'I' for Inactive)
REMARK    1  A    between atoms: C1_1  and  C2_2 
REMARK    2  A    between atoms: C5_5  and  O2_10 
REMARK    3  A    between atoms: C7_7  and  O1_8 
REMARK    4  A    between atoms: O1_8  and  C8_9 
ROOT
ATOM      1  C2  <0> d           0.002  -0.004   0.002  0.00  0.00    -0.029 A 
ATOM      2  C3  <0> d           0.006  -0.688  -1.199  0.00  0.00    -0.072 A 
ATOM      3  C4  <0> d           0.024  -2.069  -1.210  0.00  0.00    -0.050 A 
ATOM      4  C5  <0> d           0.040  -2.774  -0.014  0.00  0.00     0.068 A 
ATOM      5  C6  <0> d           0.036  -2.090   1.192  0.00  0.00    -0.018 A 
ATOM      6  C7  <0> d           0.023  -0.704   1.200  0.00  0.00     0.076 A 
ATOM      7  H4  <0> d          -0.006  -0.141  -2.130  0.00  0.00     0.084 H 
ATOM      8  H5  <0> d           0.027  -2.601  -2.150  0.00  0.00     0.087 H 
ATOM      9  H6  <0> d           0.048  -2.636   2.123  0.00  0.00     0.092 H 
ENDROOT
BRANCH   6  10
ATOM     10  O1  <0> d           0.025  -0.030   2.381  0.00  0.00    -0.355 OA
BRANCH  10  11
ATOM     11  C8  <0> d           0.047  -0.815   3.575  0.00  0.00     0.010 C 
ATOM     12  H7  <0> d          -0.834  -1.456   3.605  0.00  0.00     0.066 H 
ATOM     13  H8  <0> d           0.946  -1.432   3.588  0.00  0.00     0.066 H 
ATOM     14  H9  <0> d           0.047  -0.156   4.443  0.00  0.00     0.066 H 
ENDBRANCH  10  11
ENDBRANCH   6  10
BRANCH   1  15
ATOM     15  C1  <0> d          -0.018   1.503   0.010  0.00  0.00    -0.049 C 
ATOM     16  H1  <0> d           1.004   1.880   0.003  0.00  0.00     0.033 H 
ATOM     17  H2  <0> d          -0.545   1.864  -0.873  0.00  0.00     0.033 H 
ATOM     18  H3  <0> d          -0.529   1.854   0.907  0.00  0.00     0.033 H 
ENDBRANCH   1  15
BRANCH   4  19
ATOM     19  O2  <0> d           0.058  -4.133  -0.025  0.00  0.00    -0.361 OA
ATOM     20  H10 <0> d           0.946  -4.514  -0.033  0.00  0.00     0.217 HD
ENDBRANCH   4  19
TORSDOF 4
