REMARK  2 active torsions:
REMARK  status: ('A' for Active; 'I' for Inactive)
REMARK    1  A    between atoms: C1_1  and  C2_2 
REMARK    2  A    between atoms: C6_6  and  O1_10 
ROOT
ATOM      1  C2  <0> d           0.002  -0.004   0.002  0.00  0.00    -0.038 A 
ATOM      2  C3  <0> d           0.006  -0.688  -1.195  0.00  0.00    -0.076 A 
ATOM      3  C4  <0> d           0.025  -2.072  -1.209  0.00  0.00    -0.080 A 
ATOM      4  C5  <0> d           0.040  -2.783  -0.024  0.00  0.00    -0.049 A 
ATOM      5  C6  <0> d           0.036  -2.112   1.189  0.00  0.00     0.086 A 
ATOM      6  C7  <0> d           0.023  -0.710   1.207  0.00  0.00     0.083 A 
ATOM      7  C8  <0> d           0.025  -0.006   2.454  0.00  0.00     0.102 C 
ATOM      8  N1  <0> d           0.026   0.553   3.443  0.00  0.00    -0.191 NA
ATOM      9  H4  <0> d          -0.006  -0.141  -2.127  0.00  0.00     0.084 H 
ATOM     10  H5  <0> d           0.027  -2.600  -2.151  0.00  0.00     0.083 H 
ATOM     11  H6  <0> d           0.054  -3.862  -0.043  0.00  0.00     0.087 H 
ENDROOT
BRANCH   1  12
ATOM     12  C1  <0> d          -0.018   1.503   0.010  0.00  0.00    -0.050 C 
ATOM     13  H1  <0> d           1.004   1.880   0.003  0.00  0.00     0.033 H 
ATOM     14  H2  <0> d          -0.545   1.864  -0.873  0.00  0.00     0.033 H 
ATOM     15  H3  <0> d          -0.529   1.854   0.907  0.00  0.00     0.033 H 
ENDBRANCH   1  12
BRANCH   5  16
ATOM     16  O1  <0> d           0.051  -2.808   2.353  0.00  0.00    -0.359 OA
ATOM     17  H7  <0> d           0.938  -2.999   2.687  0.00  0.00     0.217 HD
ENDBRANCH   5  16
TORSDOF 2
