REMARK  0 active torsions:
REMARK  status: ('A' for Active; 'I' for Inactive)
ROOT
ATOM      1  C1  <0> d          -0.044   1.120  -2.489  0.00  0.00    -0.065 C 
ATOM      2  C2  <0> d           1.393   1.646  -2.500  0.00  0.00    -0.065 C 
ATOM      3  C3  <0> d           2.135   1.131  -1.266  0.00  0.00    -0.059 C 
ATOM      4  C4  <0> d           1.423   1.619  -0.003  0.00  0.00    -0.029 C 
ATOM      5  H1  <0> d           1.407   2.709   0.008  0.00  0.00     0.043 H 
ATOM      6  C5  <0> d           2.164   1.103   1.234  0.00  0.00     0.033 C 
ATOM      7  O1  <0> d           1.450   1.530   2.429  0.00  0.00    -0.321 OA
ATOM      8  C6  <0> d           0.138   1.220   2.469  0.00  0.00     0.259 C 
ATOM      9  O2  <0> d          -0.341   0.669   3.432  0.00  0.00    -0.265 OA
ATOM     10  C7  <0> d          -0.718   1.584   1.276  0.00  0.00     0.019 C 
ATOM     11  C8  <0> d          -0.013   1.086   0.008  0.00  0.00    -0.040 C 
ATOM     12  H2  <0> d           0.002  -0.004   0.002  0.00  0.00     0.041 H 
ATOM     13  C9  <0> d          -0.752   1.596  -1.230  0.00  0.00    -0.061 C 
ATOM     14  H3  <0> d          -0.573   1.489  -3.368  0.00  0.00     0.033 H 
ATOM     15  H4  <0> d          -0.032   0.030  -2.504  0.00  0.00     0.033 H 
ATOM     16  H5  <0> d           1.381   2.736  -2.489  0.00  0.00     0.033 H 
ATOM     17  H6  <0> d           1.900   1.298  -3.400  0.00  0.00     0.033 H 
ATOM     18  H7  <0> d           3.159   1.506  -1.274  0.00  0.00     0.033 H 
ATOM     19  H8  <0> d           2.148   0.041  -1.277  0.00  0.00     0.033 H 
ATOM     20  H9  <0> d           2.207   0.015   1.205  0.00  0.00     0.075 H 
ATOM     21  H10 <0> d           3.175   1.509   1.249  0.00  0.00     0.075 H 
ATOM     22  H11 <0> d          -0.840   2.666   1.227  0.00  0.00     0.048 H 
ATOM     23  H12 <0> d          -1.694   1.107   1.364  0.00  0.00     0.048 H 
ATOM     24  H13 <0> d          -1.776   1.220  -1.222  0.00  0.00     0.033 H 
ATOM     25  H14 <0> d          -0.764   2.686  -1.223  0.00  0.00     0.033 H 
ENDROOT
TORSDOF 0
