REMARK  0 active torsions:
REMARK  status: ('A' for Active; 'I' for Inactive)
ROOT
ATOM      1  C1  <0> d          -0.090   4.161   0.024  0.00  0.00    -0.065 A 
ATOM      2  C2  <0> d           1.149   3.543   0.010  0.00  0.00    -0.059 A 
ATOM      3  C3  <0> d           1.194   2.144   0.002  0.00  0.00     0.084 A 
ATOM      4  C4  <0> d          -0.017   1.428   0.010  0.00  0.00     0.157 A 
ATOM      5  N1  <0> d          -1.177   2.072   0.019  0.00  0.00    -0.248 NA
ATOM      6  C5  <0> d          -1.239   3.387   0.031  0.00  0.00     0.004 A 
ATOM      7  C6  <0> d           0.002  -0.004   0.002  0.00  0.00     0.121 C 
ATOM      8  N2  <0> d           0.018  -1.140  -0.004  0.00  0.00    -0.190 NA
ATOM      9  C7  <0> d           2.449   1.455  -0.013  0.00  0.00     0.102 C 
ATOM     10  N3  <0> d           3.445   0.909  -0.024  0.00  0.00    -0.191 NA
ATOM     11  H1  <0> d          -0.160   5.239   0.030  0.00  0.00     0.085 H 
ATOM     12  H2  <0> d           2.058   4.126   0.004  0.00  0.00     0.086 H 
ATOM     13  H3  <0> d          -2.204   3.871   0.042  0.00  0.00     0.114 H 
ENDROOT
TORSDOF 0
