REMARK  2 active torsions:
REMARK  status: ('A' for Active; 'I' for Inactive)
REMARK    1  A    between atoms: C6_7  and  C10_11 
REMARK    2  A    between atoms: C10_11  and  O1_12 
ROOT
ATOM      1  C1  <0> d          -1.517   7.017   0.056  0.00  0.00    -0.082 A 
ATOM      2  C2  <0> d          -0.351   7.780   0.049  0.00  0.00    -0.082 A 
ATOM      3  C3  <0> d           0.876   7.189   0.033  0.00  0.00    -0.071 A 
ATOM      4  C4  <0> d           0.969   5.788   0.024  0.00  0.00    -0.008 A 
ATOM      5  C5  <0> d           2.205   5.123   0.009  0.00  0.00     0.013 A 
ATOM      6  N1  <0> d           2.242   3.811   0.006  0.00  0.00    -0.262 NA
ATOM      7  C6  <0> d           1.147   3.062   0.008  0.00  0.00     0.058 A 
ATOM      8  C7  <0> d          -0.099   3.611   0.022  0.00  0.00    -0.046 A 
ATOM      9  C8  <0> d          -0.220   5.012   0.031  0.00  0.00    -0.022 A 
ATOM     10  C9  <0> d          -1.466   5.656   0.048  0.00  0.00    -0.072 A 
ATOM     11  H1  <0> d          -2.477   7.513   0.069  0.00  0.00     0.083 H 
ATOM     12  H2  <0> d          -0.421   8.858   0.056  0.00  0.00     0.083 H 
ATOM     13  H3  <0> d           1.771   7.793   0.027  0.00  0.00     0.084 H 
ATOM     14  H4  <0> d           3.124   5.689   0.003  0.00  0.00     0.116 H 
ATOM     15  H5  <0> d          -0.978   2.982   0.028  0.00  0.00     0.088 H 
ATOM     16  H6  <0> d          -2.377   5.077   0.054  0.00  0.00     0.084 H 
ENDROOT
BRANCH   7  17
ATOM     17  C10 <0> d           1.286   1.562  -0.002  0.00  0.00     0.056 C 
ATOM     18  H7  <0> d           1.828   1.250  -0.907  0.00  0.00     0.083 H 
ATOM     19  H8  <0> d           1.845   1.240   0.889  0.00  0.00     0.083 H 
BRANCH  17  20
ATOM     20  O1  <0> d          -0.011   0.963   0.007  0.00  0.00    -0.395 OA
ATOM     21  H9  <0> d          -0.111  -0.133   0.002  0.00  0.00     0.209 HD
ENDBRANCH  17  20
ENDBRANCH   7  17
TORSDOF 2
