REMARK  4 active torsions:
REMARK  status: ('A' for Active; 'I' for Inactive)
REMARK    1  A    between atoms: C1_1  and  C2_2 
REMARK    2  A    between atoms: C2_2  and  C3_3 
REMARK    3  A    between atoms: C3_3  and  C4_4 
REMARK    4  A    between atoms: C7_7  and  O1_10 
ROOT
ATOM      1  C4  <0> d          -0.773   3.123  -1.223  0.00  0.00    -0.054 C 
ATOM      2  C5  <0> d          -0.753   1.593  -1.232  0.00  0.00    -0.059 C 
ATOM      3  C6  <0> d          -0.013   1.086   0.008  0.00  0.00    -0.041 C 
ATOM      4  C7  <0> d          -0.729   1.579   1.267  0.00  0.00     0.035 C 
ATOM      5  C8  <0> d          -0.750   3.109   1.275  0.00  0.00    -0.041 C 
ATOM      6  C9  <0> d          -1.490   3.616   0.036  0.00  0.00    -0.059 C 
ATOM      7  H8  <0> d           0.259   3.503  -1.231  0.00  0.00     0.040 H 
ATOM      8  H9  <0> d          -1.785   1.212  -1.224  0.00  0.00     0.033 H 
ATOM      9  H10 <0> d          -0.238   1.238  -2.136  0.00  0.00     0.033 H 
ATOM     10  H11 <0> d           0.002  -0.014   0.002  0.00  0.00     0.036 H 
ATOM     11  H12 <0> d           1.019   1.466   0.000  0.00  0.00     0.036 H 
ATOM     12  H13 <0> d          -1.746   1.166   1.335  0.00  0.00     0.082 H 
ATOM     13  H14 <0> d          -1.264   3.464   2.180  0.00  0.00     0.036 H 
ATOM     14  H15 <0> d           0.282   3.490   1.267  0.00  0.00     0.036 H 
ATOM     15  H16 <0> d          -1.505   4.716   0.042  0.00  0.00     0.033 H 
ATOM     16  H17 <0> d          -2.522   3.235   0.043  0.00  0.00     0.033 H 
ENDROOT
BRANCH   1  17
ATOM     17  C3  <0> d          -1.513   3.629  -2.463  0.00  0.00    -0.062 C 
ATOM     18  H6  <0> d          -2.569   3.324  -2.410  0.00  0.00     0.033 H 
ATOM     19  H7  <0> d          -1.052   3.202  -3.365  0.00  0.00     0.033 H 
BRANCH  17  20
ATOM     20  C2  <0> d          -1.427   5.156  -2.520  0.00  0.00    -0.068 C 
ATOM     21  H4  <0> d          -0.371   5.462  -2.572  0.00  0.00     0.032 H 
ATOM     22  H5  <0> d          -1.888   5.583  -1.617  0.00  0.00     0.032 H 
BRANCH  20  23
ATOM     23  C1  <0> d          -2.167   5.663  -3.759  0.00  0.00    -0.077 C 
ATOM     24  H1  <0> d          -2.104   6.760  -3.800  0.00  0.00     0.027 H 
ATOM     25  H2  <0> d          -3.222   5.357  -3.707  0.00  0.00     0.027 H 
ATOM     26  H3  <0> d          -1.706   5.235  -4.662  0.00  0.00     0.027 H 
ENDBRANCH  20  23
ENDBRANCH  17  20
ENDBRANCH   1  17
BRANCH   4  27
ATOM     27  O1  <0> d          -0.038   1.106   2.425  0.00  0.00    -0.396 OA
ATOM     28  H18 <0> d          -0.408   1.361   3.429  0.00  0.00     0.210 HD
ENDBRANCH   4  27
TORSDOF 4
