REMARK  2 active torsions:
REMARK  status: ('A' for Active; 'I' for Inactive)
REMARK    1  A    between atoms: C4_4  and  C6_6 
REMARK       I    between atoms: C6_6  and  N1_8 
REMARK    2  A    between atoms: N1_8  and  C7_9 
ROOT
ATOM      1  C1  <0> d          -0.016   1.306   0.009  0.00  0.00    -0.119 C 
ATOM      2  C2  <0> d           0.002  -0.004   0.002  0.00  0.00    -0.088 C 
ATOM      3  C3  <0> d          -1.029  -1.113  -0.001  0.00  0.00    -0.034 C 
ATOM      4  C4  <0> d           0.027  -1.998  -0.682  0.00  0.00     0.030 C 
ATOM      5  C5  <0> d           1.062  -1.085  -0.014  0.00  0.00    -0.034 C 
ATOM      6  H1  <0> d           0.912   1.859   0.003  0.00  0.00     0.067 H 
ATOM      7  H2  <0> d          -0.958   1.833   0.017  0.00  0.00     0.067 H 
ATOM      8  H3  <0> d          -1.305  -1.454   0.997  0.00  0.00     0.040 H 
ATOM      9  H4  <0> d          -1.893  -0.903  -0.631  0.00  0.00     0.040 H 
ATOM     10  H5  <0> d           0.023  -1.930  -1.770  0.00  0.00     0.055 H 
ATOM     11  H6  <0> d           1.913  -0.851  -0.654  0.00  0.00     0.040 H 
ATOM     12  H7  <0> d           1.360  -1.418   0.980  0.00  0.00     0.040 H 
ENDROOT
BRANCH   4  13
ATOM     13  C6  <0> d           0.048  -3.418  -0.178  0.00  0.00     0.222 C 
ATOM     14  O1  <0> d          -0.726  -3.766   0.688  0.00  0.00    -0.273 OA
ATOM     15  N1  <0> d           0.927  -4.302  -0.691  0.00  0.00    -0.356 N 
ATOM     16  H8  <0> d           1.546  -4.024  -1.384  0.00  0.00     0.162 HD
BRANCH  15  17
ATOM     17  C7  <0> d           0.947  -5.683  -0.202  0.00  0.00     0.012 A 
ATOM     18  C9  <0> d           2.255  -6.463  -0.342  0.00  0.00    -0.044 A 
ATOM     19  C8  <0> d           1.064  -6.799  -1.241  0.00  0.00    -0.044 A 
ATOM     20  H12 <0> d           3.101  -5.949  -0.799  0.00  0.00     0.036 H 
ATOM     21  H13 <0> d           2.506  -7.172   0.447  0.00  0.00     0.036 H 
ATOM     22  H10 <0> d           0.531  -7.729  -1.043  0.00  0.00     0.036 H 
ATOM     23  H11 <0> d           1.126  -6.506  -2.289  0.00  0.00     0.036 H 
ATOM     24  H9  <0> d           0.337  -5.878   0.680  0.00  0.00     0.072 H 
ENDBRANCH  15  17
ENDBRANCH   4  13
TORSDOF 2
