REMARK  7 active torsions:
REMARK  status: ('A' for Active; 'I' for Inactive)
REMARK    1  A    between atoms: C1_1  and  C2_2 
REMARK    2  A    between atoms: C2_2  and  C3_4 
REMARK    3  A    between atoms: C2_2  and  C5_7 
REMARK    4  A    between atoms: C3_4  and  C4_5 
REMARK    5  A    between atoms: C5_7  and  C6_8 
REMARK    6  A    between atoms: C5_7  and  C7_9 
REMARK    7  A    between atoms: C5_7  and  C8_10 
ROOT
ATOM      1  C5  <0> d          -0.753   1.593  -1.232  0.00  0.00    -0.048 C 
ENDROOT
BRANCH   1   2
ATOM      2  C2  <0> d          -0.013   1.086   0.008  0.00  0.00    -0.042 C 
ATOM      3  H1  <0> d           0.002  -0.004   0.002  0.00  0.00     0.041 H 
BRANCH   2   4
ATOM      4  C1  <0> d          -0.729   1.579   1.267  0.00  0.00    -0.072 C 
ATOM      5  H2  <0> d          -0.744   2.669   1.273  0.00  0.00     0.028 H 
ATOM      6  H3  <0> d          -1.751   1.202   1.275  0.00  0.00     0.028 H 
ATOM      7  H4  <0> d          -0.202   1.218   2.150  0.00  0.00     0.028 H 
ENDBRANCH   2   4
BRANCH   2   8
ATOM      8  C3  <0> d           1.423   1.615  -0.003  0.00  0.00     0.019 C 
ATOM      9  H5  <0> d           1.905   1.339  -0.940  0.00  0.00     0.049 H 
ATOM     10  H6  <0> d           1.410   2.701   0.093  0.00  0.00     0.049 H 
BRANCH   8  11
ATOM     11  C4  <0> d           2.187   1.018   1.151  0.00  0.00     0.172 C 
ATOM     12  O1  <0> d           1.640   0.248   1.904  0.00  0.00    -0.648 OA
ATOM     13  O2  <0> d           3.476   1.342   1.341  0.00  0.00    -0.648 OA
ENDBRANCH   8  11
ENDBRANCH   2   8
ENDBRANCH   1   2
BRANCH   1  14
ATOM     14  C6  <0> d          -0.037   1.099  -2.490  0.00  0.00    -0.069 C 
ATOM     15  H7  <0> d          -0.022   0.009  -2.496  0.00  0.00     0.028 H 
ATOM     16  H8  <0> d          -0.564   1.460  -3.373  0.00  0.00     0.028 H 
ATOM     17  H9  <0> d           0.986   1.476  -2.498  0.00  0.00     0.028 H 
ENDBRANCH   1  14
BRANCH   1  18
ATOM     18  C7  <0> d          -2.188   1.063  -1.221  0.00  0.00    -0.069 C 
ATOM     19  H10 <0> d          -2.698   1.415  -0.324  0.00  0.00     0.028 H 
ATOM     20  H11 <0> d          -2.715   1.424  -2.104  0.00  0.00     0.028 H 
ATOM     21  H12 <0> d          -2.173  -0.027  -1.227  0.00  0.00     0.028 H 
ENDBRANCH   1  18
BRANCH   1  22
ATOM     22  C8  <0> d          -0.773   3.123  -1.223  0.00  0.00    -0.069 C 
ATOM     23  H13 <0> d           0.249   3.500  -1.231  0.00  0.00     0.028 H 
ATOM     24  H14 <0> d          -1.301   3.484  -2.106  0.00  0.00     0.028 H 
ATOM     25  H15 <0> d          -1.284   3.474  -0.326  0.00  0.00     0.028 H 
ENDBRANCH   1  22
TORSDOF 7
