REMARK  3 active torsions:
REMARK  status: ('A' for Active; 'I' for Inactive)
REMARK    1  A    between atoms: C1_1  and  C2_2 
REMARK       I    between atoms: C2_2  and  N1_4 
REMARK    2  A    between atoms: C6_8  and  C8_11 
REMARK    3  A    between atoms: C8_11  and  O2_12 
ROOT
ATOM      1  C2  <0> d          -1.091   0.697   2.171  0.00  0.00     0.215 C 
ATOM      2  O1  <0> d          -1.574   1.111   3.204  0.00  0.00    -0.274 OA
ATOM      3  N1  <0> d          -0.713   1.562   1.209  0.00  0.00    -0.352 N 
ATOM      4  C3  <0> d          -0.029   1.085   0.000  0.00  0.00    -0.002 C 
ATOM      5  C4  <0> d          -0.784   1.594  -1.231  0.00  0.00    -0.050 C 
ATOM      6  C5  <0> d          -0.923   3.116  -1.147  0.00  0.00    -0.057 C 
ATOM      7  C6  <0> d          -1.726   3.488   0.101  0.00  0.00    -0.018 C 
ATOM      8  H1  <0> d          -2.718   3.015   0.055  0.00  0.00     0.045 H 
ATOM      9  C7  <0> d          -0.982   3.000   1.348  0.00  0.00     0.003 C 
ATOM     10  H5  <0> d           1.003   1.467  -0.012  0.00  0.00     0.064 H 
ATOM     11  H6  <0> d          -0.012  -0.015  -0.002  0.00  0.00     0.064 H 
ATOM     12  H7  <0> d          -0.227   1.325  -2.141  0.00  0.00     0.035 H 
ATOM     13  H8  <0> d          -1.783   1.135  -1.264  0.00  0.00     0.035 H 
ATOM     14  H9  <0> d           0.076   3.572  -1.088  0.00  0.00     0.033 H 
ATOM     15  H10 <0> d          -1.444   3.487  -2.042  0.00  0.00     0.033 H 
ATOM     16  H11 <0> d          -1.599   3.174   2.242  0.00  0.00     0.065 H 
ATOM     17  H12 <0> d          -0.030   3.543   1.449  0.00  0.00     0.065 H 
ENDROOT
BRANCH   1  18
ATOM     18  C1  <0> d          -0.913  -0.785   1.964  0.00  0.00    -0.003 C 
ATOM     19  H2  <0> d          -0.464  -0.966   0.976  0.00  0.00     0.040 H 
ATOM     20  H3  <0> d          -1.893  -1.283   2.017  0.00  0.00     0.040 H 
ATOM     21  H4  <0> d          -0.253  -1.189   2.746  0.00  0.00     0.040 H 
ENDBRANCH   1  18
BRANCH   7  22
ATOM     22  C8  <0> d          -1.893   5.008   0.168  0.00  0.00     0.021 C 
ATOM     23  H13 <0> d          -0.908   5.478   0.305  0.00  0.00     0.074 H 
ATOM     24  H14 <0> d          -2.344   5.368  -0.768  0.00  0.00     0.074 H 
BRANCH  22  25
ATOM     25  O2  <0> d          -2.740   5.347   1.267  0.00  0.00    -0.400 OA
ATOM     26  H15 <0> d          -2.976   6.401   1.475  0.00  0.00     0.209 HD
ENDBRANCH  22  25
ENDBRANCH   7  22
TORSDOF 3
