REMARK  2 active torsions:
REMARK  status: ('A' for Active; 'I' for Inactive)
REMARK    1  A    between atoms: C2_2  and  C3_3 
REMARK    2  A    between atoms: C3_3  and  N1_4 
ROOT
ATOM      1  N1  <0> d           1.367  -1.676   1.111  0.00  0.00    -0.305 N 
ATOM      2  C4  <0> d           1.845  -1.395   2.383  0.00  0.00    -0.001 A 
ATOM      3  C5  <0> d           1.722  -2.496   3.117  0.00  0.00    -0.003 A 
ATOM      4  N2  <0> d           1.166  -3.483   2.317  0.00  0.00    -0.317 N 
ATOM      5  H1  <0> d           0.963  -4.391   2.590  0.00  0.00     0.170 HD
ATOM      6  C6  <0> d           0.953  -2.958   1.095  0.00  0.00     0.326 A 
ATOM      7  O1  <0> d           0.471  -3.541   0.140  0.00  0.00    -0.246 OA
ATOM      8  H7  <0> d           2.245  -0.450   2.718  0.00  0.00     0.114 H 
ATOM      9  H8  <0> d           2.006  -2.603   4.154  0.00  0.00     0.113 H 
ENDROOT
BRANCH   1  10
ATOM     10  C3  <0> d           1.317  -0.740  -0.015  0.00  0.00     0.018 C 
ATOM     11  H5  <0> d           1.413  -1.291  -0.950  0.00  0.00     0.071 H 
ATOM     12  H6  <0> d           2.135  -0.024   0.071  0.00  0.00     0.071 H 
BRANCH  10  13
ATOM     13  C2  <0> d           0.002  -0.004   0.002  0.00  0.00    -0.095 C 
ATOM     14  C1  <0> d          -0.016   1.306   0.009  0.00  0.00    -0.123 C 
ATOM     15  H2  <0> d           0.912   1.859   0.003  0.00  0.00     0.066 H 
ATOM     16  H3  <0> d          -0.958   1.833   0.017  0.00  0.00     0.066 H 
ATOM     17  H4  <0> d          -0.926  -0.557   0.008  0.00  0.00     0.078 H 
ENDBRANCH  10  13
ENDBRANCH   1  10
TORSDOF 2
