REMARK  5 active torsions:
REMARK  status: ('A' for Active; 'I' for Inactive)
REMARK    1  A    between atoms: C1_1  and  C2_2 
REMARK    2  A    between atoms: C2_2  and  C3_3 
REMARK    3  A    between atoms: C3_3  and  N1_4 
REMARK    4  A    between atoms: C4_5  and  C6_10 
REMARK    5  A    between atoms: C5_7  and  N4_9 
ROOT
ATOM      1  N1  <0> d          -1.413  -1.998   0.005  0.00  0.00    -0.240 N 
ATOM      2  C4  <0> d          -1.407  -2.796  -1.076  0.00  0.00     0.138 A 
ATOM      3  N2  <0> d          -1.389  -4.040  -0.666  0.00  0.00    -0.047 NA
ATOM      4  C5  <0> d          -1.382  -4.075   0.670  0.00  0.00     0.738 A 
ATOM      5  N3  <0> d          -1.391  -2.845   1.125  0.00  0.00     0.022 NA
ENDROOT
BRANCH   1   6
ATOM      6  C3  <0> d          -1.433  -0.534   0.013  0.00  0.00     0.019 C 
ATOM      7  H6  <0> d          -1.944  -0.182   0.910  0.00  0.00     0.067 H 
ATOM      8  H7  <0> d          -1.960  -0.173  -0.870  0.00  0.00     0.067 H 
BRANCH   6   9
ATOM      9  C2  <0> d           0.002  -0.004   0.002  0.00  0.00    -0.051 C 
ATOM     10  H4  <0> d           0.512  -0.356  -0.895  0.00  0.00     0.035 H 
ATOM     11  H5  <0> d           0.529  -0.365   0.885  0.00  0.00     0.035 H 
BRANCH   9  12
ATOM     12  C1  <0> d          -0.019   1.526   0.010  0.00  0.00    -0.075 C 
ATOM     13  H1  <0> d           1.004   1.903   0.003  0.00  0.00     0.027 H 
ATOM     14  H2  <0> d          -0.546   1.887  -0.873  0.00  0.00     0.027 H 
ATOM     15  H3  <0> d          -0.529   1.877   0.907  0.00  0.00     0.027 H 
ENDBRANCH   9  12
ENDBRANCH   6   9
ENDBRANCH   1   6
BRANCH   2  16
ATOM     16  C6  <0> d          -1.420  -2.340  -2.512  0.00  0.00    -0.019 C 
ATOM     17  H10 <0> d          -0.396  -2.215  -2.863  0.00  0.00     0.037 H 
ATOM     18  H11 <0> d          -1.927  -3.084  -3.126  0.00  0.00     0.037 H 
ATOM     19  H12 <0> d          -1.948  -1.389  -2.586  0.00  0.00     0.037 H 
ENDBRANCH   2  16
BRANCH   4  20
ATOM     20  N4  <0> d          -1.363  -5.231   1.452  0.00  0.00    -0.230 N 
ATOM     21  H8  <0> d          -1.353  -6.104   1.028  0.00  0.00     0.174 HD
ATOM     22  H9  <0> d          -1.360  -5.163   2.419  0.00  0.00     0.174 HD
ENDBRANCH   4  20
TORSDOF 5
