REMARK  0 active torsions:
REMARK  status: ('A' for Active; 'I' for Inactive)
ROOT
ATOM      1  C1  <0> d          -0.727   1.578   1.269  0.00  0.00    -0.061 C 
ATOM      2  C2  <0> d          -0.013   1.086   0.008  0.00  0.00    -0.060 C 
ATOM      3  C3  <0> d          -0.752   1.593  -1.236  0.00  0.00    -0.022 C 
ATOM      4  C4  <0> d          -0.958   3.082  -1.090  0.00  0.00     0.064 A 
ATOM      5  C5  <0> d          -0.839   3.760   0.128  0.00  0.00     0.007 A 
ATOM      6  C6  <0> d          -1.086   5.090  -0.104  0.00  0.00     0.138 A 
ATOM      7  N1  <0> d          -1.353   5.218  -1.440  0.00  0.00    -0.267 N 
ATOM      8  H1  <0> d          -1.584   6.207  -1.863  0.00  0.00     0.190 HD
ATOM      9  N2  <0> d          -1.263   3.944  -2.019  0.00  0.00    -0.178 NA
ATOM     10  C7  <0> d          -1.068   6.143   0.867  0.00  0.00     0.119 C 
ATOM     11  N3  <0> d          -1.054   6.978   1.637  0.00  0.00    -0.190 NA
ATOM     12  C8  <0> d          -0.500   3.086   1.435  0.00  0.00    -0.036 C 
ATOM     13  H2  <0> d          -0.326   1.049   2.146  0.00  0.00     0.033 H 
ATOM     14  H3  <0> d          -1.805   1.377   1.180  0.00  0.00     0.033 H 
ATOM     15  H4  <0> d           1.019   1.466  -0.001  0.00  0.00     0.033 H 
ATOM     16  H5  <0> d           0.002  -0.014   0.001  0.00  0.00     0.033 H 
ATOM     17  H6  <0> d          -0.150   1.381  -2.132  0.00  0.00     0.042 H 
ATOM     18  H7  <0> d          -1.724   1.083  -1.318  0.00  0.00     0.042 H 
ATOM     19  H8  <0> d          -1.148   3.469   2.237  0.00  0.00     0.040 H 
ATOM     20  H9  <0> d           0.553   3.272   1.694  0.00  0.00     0.040 H 
ENDROOT
TORSDOF 0
