REMARK  2 active torsions:
REMARK  status: ('A' for Active; 'I' for Inactive)
REMARK    1  A    between atoms: C1_1  and  O1_2 
REMARK    2  A    between atoms: O1_2  and  C2_3 
ROOT
ATOM      1  C2  <0> d           0.034   3.798   0.022  0.00  0.00     0.185 A 
ATOM      2  C3  <0> d          -1.193   3.145   0.030  0.00  0.00     0.086 A 
ATOM      3  C4  <0> d          -1.220   1.761   0.017  0.00  0.00    -0.056 A 
ATOM      4  C5  <0> d          -0.013   1.076   0.008  0.00  0.00    -0.064 A 
ATOM      5  C6  <0> d           1.169   1.789   0.001  0.00  0.00     0.005 A 
ATOM      6  N1  <0> d           1.163   3.109   0.008  0.00  0.00    -0.236 NA
ATOM      7 Cl1  <0> d          -2.673   4.054   0.050  0.00  0.00    -0.080 Cl
ATOM      8  H4  <0> d          -2.158   1.226   0.018  0.00  0.00     0.086 H 
ATOM      9  H5  <0> d           0.002  -0.004   0.002  0.00  0.00     0.085 H 
ATOM     10  H6  <0> d           2.111   1.261  -0.012  0.00  0.00     0.114 H 
ENDROOT
BRANCH   1  11
ATOM     11  O1  <0> d           0.074   5.154   0.029  0.00  0.00    -0.338 OA
BRANCH  11  12
ATOM     12  C1  <0> d           1.366   5.765   0.019  0.00  0.00     0.012 C 
ATOM     13  H1  <0> d           1.923   5.451   0.902  0.00  0.00     0.067 H 
ATOM     14  H2  <0> d           1.906   5.460  -0.878  0.00  0.00     0.067 H 
ATOM     15  H3  <0> d           1.256   6.849   0.026  0.00  0.00     0.067 H 
ENDBRANCH  11  12
ENDBRANCH   1  11
TORSDOF 2
