REMARK  2 active torsions:
REMARK  status: ('A' for Active; 'I' for Inactive)
REMARK    1  A    between atoms: C2_2  and  C4_8 
REMARK    2  A    between atoms: C3_4  and  O1_7 
ROOT
ATOM      1  C1  <0> d           1.078   1.785   0.001  0.00  0.00     0.015 A 
ATOM      2  C2  <0> d           0.610   3.066   0.013  0.00  0.00     0.152 A 
ATOM      3  N1  <0> d          -0.750   3.008   0.025  0.00  0.00    -0.201 NA
ATOM      4  C3  <0> d          -1.121   1.755   0.016  0.00  0.00     0.244 A 
ATOM      5  N2  <0> d          -0.011   0.966   0.007  0.00  0.00    -0.328 N 
ATOM      6  H1  <0> d           0.003  -0.034   0.006  0.00  0.00     0.168 HD
ATOM      7  H2  <0> d           2.113   1.479  -0.010  0.00  0.00     0.115 H 
ENDROOT
BRANCH   2   8
ATOM      8  C4  <0> d           1.427   4.289   0.012  0.00  0.00     0.230 C 
ATOM      9  O2  <0> d           2.640   4.210   0.001  0.00  0.00    -0.643 OA
ATOM     10  O3  <0> d           0.830   5.498   0.024  0.00  0.00    -0.643 OA
ENDBRANCH   2   8
BRANCH   4  11
ATOM     11  O1  <0> d          -2.401   1.313   0.019  0.00  0.00    -0.331 OA
ATOM     12  H3  <0> d          -2.770   1.179   0.903  0.00  0.00     0.221 HD
ENDBRANCH   4  11
TORSDOF 2
