REMARK  2 active torsions:
REMARK  status: ('A' for Active; 'I' for Inactive)
REMARK    1  A    between atoms: C1_1  and  O1_2 
REMARK    2  A    between atoms: O1_2  and  C2_3 
ROOT
ATOM      1  C2  <0> d          -0.149   1.183   2.378  0.00  0.00     0.085 A 
ATOM      2  C3  <0> d          -0.745   1.593   3.569  0.00  0.00    -0.046 A 
ATOM      3  C4  <0> d          -0.170   1.199   4.763  0.00  0.00    -0.042 A 
ATOM      4  C5  <0> d           0.980   0.408   4.735  0.00  0.00     0.136 A 
ATOM      5  N1  <0> d           1.519   0.037   3.579  0.00  0.00    -0.247 NA
ATOM      6  C6  <0> d           0.993   0.391   2.427  0.00  0.00     0.036 A 
ATOM      7  C7  <0> d           1.586  -0.006   5.965  0.00  0.00     0.119 C 
ATOM      8  N2  <0> d           2.066  -0.335   6.941  0.00  0.00    -0.190 NA
ATOM      9  H4  <0> d          -1.635   2.204   3.559  0.00  0.00     0.087 H 
ATOM     10  H5  <0> d          -0.605   1.498   5.705  0.00  0.00     0.088 H 
ATOM     11  H6  <0> d           1.457   0.066   1.507  0.00  0.00     0.119 H 
ENDROOT
BRANCH   1  12
ATOM     12  O1  <0> d          -0.682   1.547   1.184  0.00  0.00    -0.355 OA
BRANCH  12  13
ATOM     13  C1  <0> d          -0.013   1.086   0.008  0.00  0.00     0.010 C 
ATOM     14  H1  <0> d           0.002  -0.004   0.002  0.00  0.00     0.066 H 
ATOM     15  H2  <0> d           1.010   1.463   0.000  0.00  0.00     0.066 H 
ATOM     16  H3  <0> d          -0.540   1.447  -0.875  0.00  0.00     0.066 H 
ENDBRANCH  12  13
ENDBRANCH   1  12
TORSDOF 2
