REMARK  5 active torsions:
REMARK  status: ('A' for Active; 'I' for Inactive)
REMARK    1  A    between atoms: C2_2  and  C3_3 
REMARK    2  A    between atoms: C3_3  and  C4_5 
REMARK    3  A    between atoms: C3_3  and  O2_10 
REMARK    4  A    between atoms: C4_5  and  C5_7 
REMARK    5  A    between atoms: C4_5  and  O1_9 
ROOT
ATOM      1  C3  <0> d          -2.451   0.944   0.019  0.00  0.00     0.079 C 
ATOM      2  H1  <0> d          -2.989   1.136  -0.909  0.00  0.00     0.093 H 
ENDROOT
BRANCH   1   3
ATOM      3  C2  <0> d          -1.156   1.715   0.017  0.00  0.00    -0.082 C 
ATOM      4  C1  <0> d          -0.013   1.076   0.008  0.00  0.00    -0.122 C 
ATOM      5  H3  <0> d           0.002  -0.004   0.002  0.00  0.00     0.066 H 
ATOM      6  H4  <0> d           0.915   1.629   0.002  0.00  0.00     0.066 H 
ATOM      7  H5  <0> d          -1.171   2.795   0.023  0.00  0.00     0.079 H 
ENDBRANCH   1   3
BRANCH   1   8
ATOM      8  C4  <0> d          -3.307   1.388   1.207  0.00  0.00     0.079 C 
ATOM      9  H2  <0> d          -3.593   2.432   1.079  0.00  0.00     0.093 H 
BRANCH   8  10
ATOM     10  C5  <0> d          -4.545   0.532   1.281  0.00  0.00    -0.082 C 
ATOM     11  C6  <0> d          -4.832  -0.111   2.385  0.00  0.00    -0.122 C 
ATOM     12  H7  <0> d          -4.181  -0.028   3.243  0.00  0.00     0.066 H 
ATOM     13  H8  <0> d          -5.720  -0.724   2.438  0.00  0.00     0.066 H 
ATOM     14  H6  <0> d          -5.196   0.450   0.423  0.00  0.00     0.079 H 
ENDBRANCH   8  10
BRANCH   8  15
ATOM     15  O1  <0> d          -2.556   1.244   2.414  0.00  0.00    -0.389 OA
ATOM     16  H9  <0> d          -2.267   0.339   2.593  0.00  0.00     0.210 HD
ENDBRANCH   8  15
ENDBRANCH   1   8
BRANCH   1  17
ATOM     17  O2  <0> d          -2.172  -0.453   0.127  0.00  0.00    -0.389 OA
ATOM     18  H10 <0> d          -1.694  -0.698   0.931  0.00  0.00     0.210 HD
ENDBRANCH   1  17
TORSDOF 5
