REMARK  1 active torsions:
REMARK  status: ('A' for Active; 'I' for Inactive)
REMARK    1  A    between atoms: C3_3  and  O2_9 
ROOT
ATOM      1  C1  <0> d          -1.401  -2.039  -0.262  0.00  0.00    -0.048 C 
ATOM      2  C2  <0> d          -1.435  -0.532   0.024  0.00  0.00    -0.031 C 
ATOM      3  C3  <0> d           0.002  -0.004   0.002  0.00  0.00     0.112 C 
ATOM      4  H1  <0> d           0.532  -0.364   0.884  0.00  0.00     0.098 H 
ATOM      5  C4  <0> d           0.705  -0.487  -1.234  0.00  0.00     0.246 C 
ATOM      6  O1  <0> d           1.719   0.084  -1.577  0.00  0.00    -0.271 OA
ATOM      7  N1  <0> d           0.275  -1.509  -1.975  0.00  0.00    -0.359 N 
ATOM      8  C5  <0> d          -0.950  -2.253  -1.707  0.00  0.00    -0.005 C 
ATOM      9  H2  <0> d          -2.398  -2.459  -0.124  0.00  0.00     0.035 H 
ATOM     10  H3  <0> d          -0.700  -2.524   0.416  0.00  0.00     0.035 H 
ATOM     11  H4  <0> d          -1.876  -0.354   1.004  0.00  0.00     0.037 H 
ATOM     12  H5  <0> d          -2.023  -0.026  -0.742  0.00  0.00     0.037 H 
ATOM     13  H6  <0> d           0.810  -1.774  -2.739  0.00  0.00     0.162 HD
ATOM     14  H7  <0> d          -1.734  -1.913  -2.384  0.00  0.00     0.064 H 
ATOM     15  H8  <0> d          -0.770  -3.315  -1.874  0.00  0.00     0.064 H 
ENDROOT
BRANCH   3  16
ATOM     16  O2  <0> d          -0.017   1.425   0.010  0.00  0.00    -0.386 OA
ATOM     17  H9  <0> d           0.861   1.830   0.004  0.00  0.00     0.210 HD
ENDBRANCH   3  16
TORSDOF 1
