REMARK  2 active torsions:
REMARK  status: ('A' for Active; 'I' for Inactive)
REMARK    1  A    between atoms: C1_1  and  C2_2 
REMARK    2  A    between atoms: C7_8  and  N1_10 
REMARK       I    between atoms: N1_10  and  C8_11 
REMARK       I    between atoms: C8_11  and  N2_13 
ROOT
ATOM      1  C2  <0> d          -0.729   1.579   1.267  0.00  0.00    -0.038 C 
ATOM      2  H1  <0> d          -1.751   1.202   1.275  0.00  0.00     0.042 H 
ATOM      3  C3  <0> d           0.011   1.072   2.506  0.00  0.00    -0.060 C 
ATOM      4  C4  <0> d          -0.705   1.566   3.765  0.00  0.00    -0.065 C 
ATOM      5  C5  <0> d          -0.726   3.096   3.774  0.00  0.00    -0.063 C 
ATOM      6  C6  <0> d          -1.466   3.603   2.534  0.00  0.00    -0.046 C 
ATOM      7  C7  <0> d          -0.750   3.109   1.275  0.00  0.00     0.017 C 
ATOM      8  H2  <0> d           0.273   3.486   1.268  0.00  0.00     0.073 H 
ATOM      9  H6  <0> d           0.026  -0.018   2.500  0.00  0.00     0.033 H 
ATOM     10  H7  <0> d           1.034   1.450   2.499  0.00  0.00     0.033 H 
ATOM     11  H8  <0> d          -1.728   1.188   3.773  0.00  0.00     0.033 H 
ATOM     12  H9  <0> d          -0.178   1.205   4.648  0.00  0.00     0.033 H 
ATOM     13  H10 <0> d          -1.236   3.447   4.670  0.00  0.00     0.033 H 
ATOM     14  H11 <0> d           0.297   3.473   3.766  0.00  0.00     0.033 H 
ATOM     15  H12 <0> d          -2.488   3.225   2.542  0.00  0.00     0.036 H 
ATOM     16  H13 <0> d          -1.480   4.692   2.540  0.00  0.00     0.036 H 
ENDROOT
BRANCH   7  17
ATOM     17  N1  <0> d          -1.458   3.594   0.088  0.00  0.00    -0.338 N 
ATOM     18  C8  <0> d          -1.194   4.823  -0.399  0.00  0.00     0.314 C 
ATOM     19  O1  <0> d          -0.367   5.528   0.146  0.00  0.00    -0.248 OA
ATOM     20  N2  <0> d          -1.845   5.269  -1.491  0.00  0.00    -0.352 N 
ATOM     21  H15 <0> d          -2.505   4.707  -1.926  0.00  0.00     0.160 HD
ATOM     22  H16 <0> d          -1.655   6.153  -1.842  0.00  0.00     0.160 HD
ATOM     23  H14 <0> d          -2.118   3.032  -0.347  0.00  0.00     0.164 HD
ENDBRANCH   7  17
BRANCH   1  24
ATOM     24  C1  <0> d          -0.013   1.086   0.008  0.00  0.00    -0.071 C 
ATOM     25  H3  <0> d           0.002  -0.004   0.002  0.00  0.00     0.028 H 
ATOM     26  H4  <0> d           1.010   1.463   0.000  0.00  0.00     0.028 H 
ATOM     27  H5  <0> d          -0.540   1.447  -0.875  0.00  0.00     0.028 H 
ENDBRANCH   1  24
TORSDOF 2
