REMARK  3 active torsions:
REMARK  status: ('A' for Active; 'I' for Inactive)
REMARK    1  A    between atoms: C1_1  and  O1_2 
REMARK    2  A    between atoms: O1_2  and  C2_3 
REMARK    3  A    between atoms: C5_6  and  O2_9 
ROOT
ATOM      1  C2  <0> d           3.696   2.673   0.063  0.00  0.00     0.163 A 
ATOM      2  C3  <0> d           3.108   2.414  -1.168  0.00  0.00    -0.029 A 
ATOM      3  C4  <0> d           1.852   1.835  -1.207  0.00  0.00    -0.045 A 
ATOM      4  C5  <0> d           1.224   1.533  -0.001  0.00  0.00     0.083 A 
ATOM      5  C6  <0> d           1.869   1.825   1.189  0.00  0.00     0.037 A 
ATOM      6  N1  <0> d           3.070   2.373   1.188  0.00  0.00    -0.234 NA
ATOM      7  H4  <0> d           3.624   2.662  -2.084  0.00  0.00     0.090 H 
ATOM      8  H5  <0> d           1.370   1.622  -2.150  0.00  0.00     0.088 H 
ATOM      9  H6  <0> d           1.386   1.599   2.128  0.00  0.00     0.119 H 
ENDROOT
BRANCH   1  10
ATOM     10  O1  <0> d           4.928   3.241   0.112  0.00  0.00    -0.339 OA
BRANCH  10  11
ATOM     11  C1  <0> d           5.480   3.483   1.408  0.00  0.00     0.012 C 
ATOM     12  H1  <0> d           4.825   4.156   1.962  0.00  0.00     0.067 H 
ATOM     13  H2  <0> d           5.571   2.540   1.946  0.00  0.00     0.067 H 
ATOM     14  H3  <0> d           6.465   3.939   1.304  0.00  0.00     0.067 H 
ENDBRANCH  10  11
ENDBRANCH   1  10
BRANCH   4  15
ATOM     15  O2  <0> d          -0.011   0.963   0.007  0.00  0.00    -0.359 OA
ATOM     16  H7  <0> d           0.002  -0.004   0.002  0.00  0.00     0.217 HD
ENDBRANCH   4  15
TORSDOF 3
