REMARK  5 active torsions:
REMARK  status: ('A' for Active; 'I' for Inactive)
REMARK    1  A    between atoms: C1_1  and  C2_2 
REMARK    2  A    between atoms: C2_2  and  C3_3 
REMARK    3  A    between atoms: C3_3  and  C6_6 
REMARK    4  A    between atoms: C4_4  and  C5_5 
REMARK    5  A    between atoms: C6_6  and  C7_7 
ROOT
ATOM      1  C3  <0> d           0.707  -0.490  -1.238  0.00  0.00    -0.085 C 
ATOM      2  C4  <0> d           1.983  -0.785  -1.193  0.00  0.00    -0.104 C 
ATOM      3  H6  <0> d           2.529  -0.679  -0.267  0.00  0.00     0.076 H 
ENDROOT
BRANCH   1   4
ATOM      4  C2  <0> d           0.002  -0.004   0.002  0.00  0.00    -0.048 C 
ATOM      5  H4  <0> d           0.529  -0.365   0.885  0.00  0.00     0.039 H 
ATOM      6  H5  <0> d          -1.020  -0.381   0.010  0.00  0.00     0.039 H 
BRANCH   4   7
ATOM      7  C1  <0> d          -0.019   1.526   0.010  0.00  0.00    -0.073 C 
ATOM      8  H1  <0> d           1.004   1.903   0.003  0.00  0.00     0.028 H 
ATOM      9  H2  <0> d          -0.546   1.887  -0.873  0.00  0.00     0.028 H 
ATOM     10  H3  <0> d          -0.529   1.877   0.907  0.00  0.00     0.028 H 
ENDBRANCH   4   7
ENDBRANCH   1   4
BRANCH   1  11
ATOM     11  C6  <0> d          -0.055  -0.637  -2.530  0.00  0.00    -0.048 C 
ATOM     12  H10 <0> d          -0.806   0.150  -2.600  0.00  0.00     0.039 H 
ATOM     13  H11 <0> d           0.635  -0.557  -3.370  0.00  0.00     0.039 H 
BRANCH  11  14
ATOM     14  C7  <0> d          -0.743  -2.003  -2.563  0.00  0.00    -0.073 C 
ATOM     15  H12 <0> d           0.008  -2.790  -2.493  0.00  0.00     0.028 H 
ATOM     16  H13 <0> d          -1.433  -2.083  -1.723  0.00  0.00     0.028 H 
ATOM     17  H14 <0> d          -1.294  -2.110  -3.497  0.00  0.00     0.028 H 
ENDBRANCH  11  14
ENDBRANCH   1  11
BRANCH   2  18
ATOM     18  C5  <0> d           2.688  -1.271  -2.433  0.00  0.00    -0.059 C 
ATOM     19  H7  <0> d           2.218  -2.190  -2.781  0.00  0.00     0.032 H 
ATOM     20  H8  <0> d           2.621  -0.510  -3.211  0.00  0.00     0.032 H 
ATOM     21  H9  <0> d           3.736  -1.463  -2.203  0.00  0.00     0.032 H 
ENDBRANCH   2  18
TORSDOF 5
