REMARK  2 active torsions:
REMARK  status: ('A' for Active; 'I' for Inactive)
REMARK    1  A    between atoms: C1_1  and  C2_2 
REMARK    2  A    between atoms: C8_9  and  O1_12 
ROOT
ATOM      1  C2  <0> d          -2.463   1.078   0.031  0.00  0.00    -0.048 A 
ATOM      2  C3  <0> d          -3.614   1.814   0.045  0.00  0.00    -0.059 A 
ATOM      3  C4  <0> d          -3.549   3.205   0.052  0.00  0.00     0.003 A 
ATOM      4  N1  <0> d          -2.403   3.843   0.044  0.00  0.00    -0.260 NA
ATOM      5  C5  <0> d          -1.241   3.183   0.030  0.00  0.00     0.067 A 
ATOM      6  C6  <0> d          -1.235   1.766   0.018  0.00  0.00     0.001 A 
ATOM      7  C7  <0> d          -0.013   1.076   0.008  0.00  0.00    -0.038 A 
ATOM      8  C8  <0> d           1.158   1.779   0.001  0.00  0.00     0.066 A 
ATOM      9  C9  <0> d           1.153   3.178   0.008  0.00  0.00    -0.049 A 
ATOM     10  C10 <0> d          -0.015   3.873   0.022  0.00  0.00    -0.052 A 
ATOM     11  H4  <0> d          -4.573   1.318   0.052  0.00  0.00     0.086 H 
ATOM     12  H5  <0> d          -4.466   3.775   0.064  0.00  0.00     0.114 H 
ATOM     13  H6  <0> d           0.002  -0.004   0.002  0.00  0.00     0.089 H 
ATOM     14  H7  <0> d           2.091   3.713   0.002  0.00  0.00     0.087 H 
ATOM     15  H8  <0> d          -0.002   4.953   0.028  0.00  0.00     0.087 H 
ENDROOT
BRANCH   1  16
ATOM     16  C1  <0> d          -2.508  -0.428   0.023  0.00  0.00    -0.050 C 
ATOM     17  H1  <0> d          -2.528  -0.786  -1.006  0.00  0.00     0.033 H 
ATOM     18  H2  <0> d          -1.624  -0.820   0.527  0.00  0.00     0.033 H 
ATOM     19  H3  <0> d          -3.403  -0.768   0.544  0.00  0.00     0.033 H 
ENDBRANCH   1  16
BRANCH   8  20
ATOM     20  O1  <0> d           2.342   1.112  -0.014  0.00  0.00    -0.361 OA
ATOM     21  H9  <0> d           2.677   0.924  -0.902  0.00  0.00     0.217 HD
ENDBRANCH   8  20
TORSDOF 2
