REMARK  7 active torsions:
REMARK  status: ('A' for Active; 'I' for Inactive)
REMARK    1  A    between atoms: C1_1  and  C2_2 
REMARK    2  A    between atoms: C2_2  and  C3_3 
REMARK    3  A    between atoms: C3_3  and  C4_4 
REMARK       I    between atoms: C4_4  and  N1_6 
REMARK    4  A    between atoms: N1_6  and  C5_7 
REMARK    5  A    between atoms: C5_7  and  C6_8 
REMARK    6  A    between atoms: C5_7  and  C7_9 
REMARK    7  A    between atoms: C5_7  and  C8_10 
ROOT
ATOM      1  C4  <0> d           1.147   1.655  -0.000  0.00  0.00     0.218 C 
ATOM      2  O1  <0> d           1.130   2.868   0.007  0.00  0.00    -0.274 OA
ATOM      3  N1  <0> d          -0.011   0.966   0.007  0.00  0.00    -0.353 N 
ATOM      4  H8  <0> d           0.002  -0.004   0.002  0.00  0.00     0.163 HD
ENDROOT
BRANCH   3   5
ATOM      5  C5  <0> d          -1.290   1.681   0.017  0.00  0.00     0.022 C 
BRANCH   5   6
ATOM      6  C6  <0> d          -1.389   2.566  -1.227  0.00  0.00    -0.054 C 
ATOM      7  H9  <0> d          -1.327   1.945  -2.120  0.00  0.00     0.030 H 
ATOM      8  H10 <0> d          -2.340   3.098  -1.219  0.00  0.00     0.030 H 
ATOM      9  H11 <0> d          -0.570   3.286  -1.227  0.00  0.00     0.030 H 
ENDBRANCH   5   6
BRANCH   5  10
ATOM     10  C7  <0> d          -2.439   0.671   0.017  0.00  0.00    -0.054 C 
ATOM     11  H12 <0> d          -2.369   0.040   0.903  0.00  0.00     0.030 H 
ATOM     12  H13 <0> d          -3.390   1.203   0.025  0.00  0.00     0.030 H 
ATOM     13  H14 <0> d          -2.377   0.050  -0.876  0.00  0.00     0.030 H 
ENDBRANCH   5  10
BRANCH   5  14
ATOM     14  C8  <0> d          -1.377   2.553   1.272  0.00  0.00    -0.054 C 
ATOM     15  H15 <0> d          -0.558   3.272   1.272  0.00  0.00     0.030 H 
ATOM     16  H16 <0> d          -2.328   3.085   1.279  0.00  0.00     0.030 H 
ATOM     17  H17 <0> d          -1.306   1.922   2.158  0.00  0.00     0.030 H 
ENDBRANCH   5  14
ENDBRANCH   3   5
BRANCH   1  18
ATOM     18  C3  <0> d           2.462   0.920  -0.017  0.00  0.00     0.009 C 
ATOM     19  H6  <0> d           2.537   0.289   0.869  0.00  0.00     0.047 H 
ATOM     20  H7  <0> d           2.520   0.299  -0.910  0.00  0.00     0.047 H 
BRANCH  18  21
ATOM     21  C2  <0> d           3.611   1.930  -0.022  0.00  0.00    -0.061 C 
ATOM     22  H4  <0> d           3.537   2.560  -0.908  0.00  0.00     0.033 H 
ATOM     23  H5  <0> d           3.554   2.551   0.872  0.00  0.00     0.033 H 
BRANCH  21  24
ATOM     24  C1  <0> d           4.946   1.183  -0.039  0.00  0.00    -0.076 C 
ATOM     25  H1  <0> d           5.004   0.562  -0.933  0.00  0.00     0.027 H 
ATOM     26  H2  <0> d           5.765   1.903  -0.043  0.00  0.00     0.027 H 
ATOM     27  H3  <0> d           5.021   0.552   0.847  0.00  0.00     0.027 H 
ENDBRANCH  21  24
ENDBRANCH  18  21
ENDBRANCH   1  18
TORSDOF 7
