REMARK  4 active torsions:
REMARK  status: ('A' for Active; 'I' for Inactive)
REMARK    1  A    between atoms: C1_1  and  C2_2 
REMARK    2  A    between atoms: C2_2  and  C3_3 
REMARK    3  A    between atoms: C3_3  and  C4_4 
REMARK    4  A    between atoms: C6_6  and  C7_10 
ROOT
ATOM      1  C4  <0> d          -0.642   3.588   0.028  0.00  0.00     0.057 A 
ATOM      2  C5  <0> d          -1.137   2.282   0.019  0.00  0.00    -0.024 A 
ATOM      3  C6  <0> d          -0.018   1.466   0.010  0.00  0.00     0.128 A 
ATOM      4  N1  <0> d           1.064   2.301   0.004  0.00  0.00    -0.271 N 
ATOM      5  H1  <0> d           2.019   2.006  -0.006  0.00  0.00     0.189 HD
ATOM      6  N2  <0> d           0.665   3.522   0.015  0.00  0.00    -0.179 NA
ATOM      7  H9  <0> d          -2.172   1.974   0.021  0.00  0.00     0.090 H 
ENDROOT
BRANCH   1   8
ATOM      8  C3  <0> d          -1.466   4.849   0.042  0.00  0.00    -0.023 C 
ATOM      9  H7  <0> d          -1.310   5.396  -0.888  0.00  0.00     0.042 H 
ATOM     10  H8  <0> d          -2.521   4.592   0.140  0.00  0.00     0.042 H 
BRANCH   8  11
ATOM     11  C2  <0> d          -1.042   5.722   1.225  0.00  0.00    -0.063 C 
ATOM     12  H5  <0> d          -1.198   5.175   2.155  0.00  0.00     0.033 H 
ATOM     13  H6  <0> d           0.013   5.979   1.127  0.00  0.00     0.033 H 
BRANCH  11  14
ATOM     14  C1  <0> d          -1.879   7.003   1.240  0.00  0.00    -0.076 C 
ATOM     15  H2  <0> d          -2.934   6.746   1.338  0.00  0.00     0.027 H 
ATOM     16  H3  <0> d          -1.577   7.625   2.082  0.00  0.00     0.027 H 
ATOM     17  H4  <0> d          -1.723   7.550   0.310  0.00  0.00     0.027 H 
ENDBRANCH  11  14
ENDBRANCH   8  11
ENDBRANCH   1   8
BRANCH   3  18
ATOM     18  C7  <0> d           0.002  -0.004   0.002  0.00  0.00     0.228 C 
ATOM     19  O1  <0> d          -1.042  -0.626   0.008  0.00  0.00    -0.643 OA
ATOM     20  O2  <0> d           1.179  -0.662  -0.012  0.00  0.00    -0.643 OA
ENDBRANCH   3  18
TORSDOF 4
