REMARK  5 active torsions:
REMARK  status: ('A' for Active; 'I' for Inactive)
REMARK    1  A    between atoms: C1_1  and  C2_2 
REMARK    2  A    between atoms: C2_2  and  C3_4 
REMARK    3  A    between atoms: C2_2  and  C6_9 
REMARK    4  A    between atoms: C3_4  and  C4_6 
REMARK    5  A    between atoms: C3_4  and  C5_7 
ROOT
ATOM      1  C2  <0> d           2.696   3.548  -0.005  0.00  0.00     0.039 C 
ATOM      2  H1  <0> d           3.204   3.160   0.878  0.00  0.00     0.057 H 
ENDROOT
BRANCH   1   3
ATOM      3  C1  <0> d           2.755   5.077   0.003  0.00  0.00    -0.063 C 
ATOM      4  H3  <0> d           2.265   5.455   0.900  0.00  0.00     0.028 H 
ATOM      5  H4  <0> d           3.796   5.400  -0.005  0.00  0.00     0.028 H 
ATOM      6  H5  <0> d           2.248   5.465  -0.880  0.00  0.00     0.028 H 
ENDBRANCH   1   3
BRANCH   1   7
ATOM      7  C3  <0> d           1.235   3.094   0.007  0.00  0.00     0.039 C 
ATOM      8  H2  <0> d           0.727   3.482  -0.876  0.00  0.00     0.057 H 
BRANCH   7   9
ATOM      9  C4  <0> d           0.546   3.625   1.266  0.00  0.00    -0.063 C 
ATOM     10  H6  <0> d          -0.495   3.302   1.274  0.00  0.00     0.028 H 
ATOM     11  H7  <0> d           1.054   3.237   2.149  0.00  0.00     0.028 H 
ATOM     12  H8  <0> d           0.588   4.714   1.271  0.00  0.00     0.028 H 
ENDBRANCH   7   9
BRANCH   7  13
ATOM     13  C5  <0> d           1.177   1.588  -0.001  0.00  0.00     0.177 C 
ATOM     14  O1  <0> d           2.199   0.944  -0.014  0.00  0.00    -0.648 OA
ATOM     15  O3  <0> d          -0.011   0.963   0.007  0.00  0.00    -0.648 OA
ENDBRANCH   7  13
ENDBRANCH   1   7
BRANCH   1  16
ATOM     16  C6  <0> d           3.375   3.025  -1.244  0.00  0.00     0.177 C 
ATOM     17  O2  <0> d           2.753   2.358  -2.038  0.00  0.00    -0.648 OA
ATOM     18  O4  <0> d           4.669   3.300  -1.468  0.00  0.00    -0.648 OA
ENDBRANCH   1  16
TORSDOF 5
