REMARK  1 active torsions:
REMARK  status: ('A' for Active; 'I' for Inactive)
REMARK    1  A    between atoms: C1_1  and  C2_2 
ROOT
ATOM      1  C2  <0> d           2.025   2.729  -0.003  0.00  0.00    -0.054 A 
ATOM      2  C3  <0> d           1.296   3.904   0.010  0.00  0.00    -0.077 A 
ATOM      3  C4  <0> d          -0.087   3.870   0.023  0.00  0.00    -0.082 A 
ATOM      4  C5  <0> d          -0.748   2.660   0.028  0.00  0.00    -0.069 A 
ATOM      5  C6  <0> d          -0.018   1.467   0.010  0.00  0.00     0.017 A 
ATOM      6  C7  <0> d           1.379   1.506  -0.003  0.00  0.00    -0.031 A 
ATOM      7  C8  <0> d           1.507   0.001  -0.012  0.00  0.00     0.020 A 
ATOM      8  C9  <0> d           0.002  -0.004   0.002  0.00  0.00     0.164 A 
ATOM      9  O1  <0> d          -0.848  -0.869   0.006  0.00  0.00    -0.292 OA
ATOM     10  H4  <0> d           1.809   4.854   0.010  0.00  0.00     0.084 H 
ATOM     11  H5  <0> d          -0.650   4.792   0.033  0.00  0.00     0.083 H 
ATOM     12  H6  <0> d          -1.828   2.633   0.044  0.00  0.00     0.085 H 
ATOM     13  H7  <0> d           2.053  -0.292   0.772  0.00  0.00     0.052 H 
ATOM     14  H8  <0> d           1.941  -0.401  -0.927  0.00  0.00     0.052 H 
ENDROOT
BRANCH   1  15
ATOM     15  C1  <0> d           3.531   2.782  -0.018  0.00  0.00    -0.051 C 
ATOM     16  H1  <0> d           3.884   2.800  -1.049  0.00  0.00     0.033 H 
ATOM     17  H2  <0> d           3.869   3.681   0.498  0.00  0.00     0.033 H 
ATOM     18  H3  <0> d           3.931   1.902   0.488  0.00  0.00     0.033 H 
ENDBRANCH   1  15
TORSDOF 1
