REMARK  2 active torsions:
REMARK  status: ('A' for Active; 'I' for Inactive)
REMARK    1  A    between atoms: C1_1  and  N1_2 
REMARK       I    between atoms: N1_2  and  C2_3 
REMARK    2  A    between atoms: C2_3  and  C3_5 
ROOT
ATOM      1  C3  <0> d          -0.077   3.954   0.024  0.00  0.00     0.047 A 
ATOM      2  C4  <0> d           1.174   3.290   0.009  0.00  0.00    -0.061 A 
ATOM      3  C5  <0> d           1.198   1.930   0.001  0.00  0.00    -0.016 A 
ATOM      4  C6  <0> d          -0.015   1.215   0.009  0.00  0.00     0.245 A 
ATOM      5  O2  <0> d           0.002  -0.004   0.002  0.00  0.00    -0.268 OA
ATOM      6  N2  <0> d          -1.192   1.867   0.018  0.00  0.00    -0.333 N 
ATOM      7  H1  <0> d          -2.044   1.344   0.015  0.00  0.00     0.168 HD
ATOM      8  C7  <0> d          -1.240   3.212   0.031  0.00  0.00    -0.004 A 
ATOM      9  H6  <0> d           2.094   3.855   0.002  0.00  0.00     0.085 H 
ATOM     10  H7  <0> d           2.140   1.403  -0.011  0.00  0.00     0.092 H 
ATOM     11  H8  <0> d          -2.196   3.714   0.043  0.00  0.00     0.113 H 
ENDROOT
BRANCH   1  12
ATOM     12  C2  <0> d          -0.135   5.428   0.032  0.00  0.00     0.252 C 
ATOM     13  N1  <0> d           1.004   6.147   0.025  0.00  0.00    -0.361 N 
ATOM     14  H5  <0> d           1.863   5.696   0.014  0.00  0.00     0.162 HD
ATOM     15  O1  <0> d          -1.212   5.993   0.045  0.00  0.00    -0.268 OA
BRANCH  13  16
ATOM     16  C1  <0> d           0.946   7.611   0.033  0.00  0.00    -0.018 C 
ATOM     17  H2  <0> d           0.410   7.958  -0.851  0.00  0.00     0.056 H 
ATOM     18  H3  <0> d           0.427   7.949   0.929  0.00  0.00     0.056 H 
ATOM     19  H4  <0> d           1.958   8.015   0.025  0.00  0.00     0.056 H 
ENDBRANCH  13  16
ENDBRANCH   1  12
TORSDOF 2
