REMARK  3 active torsions:
REMARK  status: ('A' for Active; 'I' for Inactive)
REMARK    1  A    between atoms: C1_1  and  C2_2 
REMARK    2  A    between atoms: C2_2  and  C3_3 
REMARK    3  A    between atoms: C6_6  and  C7_8 
ROOT
ATOM      1  C3  <0> d          -2.143   1.058   1.278  0.00  0.00    -0.017 A 
ATOM      2  C4  <0> d          -2.623  -0.096   1.802  0.00  0.00    -0.069 A 
ATOM      3  C5  <0> d          -3.973  -0.371   1.694  0.00  0.00    -0.070 A 
ATOM      4  C6  <0> d          -4.777   0.522   1.066  0.00  0.00    -0.021 A 
ATOM      5  S1  <0> d          -3.621   1.803   0.609  0.00  0.00    -0.100 SA
ATOM      6  H6  <0> d          -1.960  -0.791   2.297  0.00  0.00     0.085 H 
ATOM      7  H7  <0> d          -4.381  -1.283   2.103  0.00  0.00     0.085 H 
ENDROOT
BRANCH   1   8
ATOM      8  C2  <0> d          -0.729   1.579   1.267  0.00  0.00    -0.038 C 
ATOM      9  H4  <0> d          -0.202   1.218   2.150  0.00  0.00     0.040 H 
ATOM     10  H5  <0> d          -0.744   2.669   1.273  0.00  0.00     0.040 H 
BRANCH   8  11
ATOM     11  C1  <0> d          -0.013   1.086   0.008  0.00  0.00    -0.072 C 
ATOM     12  H1  <0> d           0.002  -0.004   0.002  0.00  0.00     0.028 H 
ATOM     13  H2  <0> d           1.010   1.463   0.000  0.00  0.00     0.028 H 
ATOM     14  H3  <0> d          -0.540   1.447  -0.875  0.00  0.00     0.028 H 
ENDBRANCH   8  11
ENDBRANCH   1   8
BRANCH   4  15
ATOM     15  C7  <0> d          -6.263   0.453   0.823  0.00  0.00    -0.045 C 
ATOM     16  H8  <0> d          -6.790   0.914   1.658  0.00  0.00     0.034 H 
ATOM     17  H9  <0> d          -6.505   0.985  -0.097  0.00  0.00     0.034 H 
ATOM     18  H10 <0> d          -6.568  -0.589   0.731  0.00  0.00     0.034 H 
ENDBRANCH   4  15
TORSDOF 3
