REMARK  2 active torsions:
REMARK  status: ('A' for Active; 'I' for Inactive)
REMARK    1  A    between atoms: C2_2  and  C4_8 
REMARK    2  A    between atoms: C3_6  and  N3_7 
ROOT
ATOM      1  C4  <0> d           1.651   3.270   0.003  0.00  0.00    -0.012 C 
ATOM      2  C5  <0> d           2.961   3.431  -0.796  0.00  0.00    -0.057 C 
ATOM      3  C6  <0> d           3.757   4.501  -0.007  0.00  0.00    -0.064 C 
ATOM      4  C7  <0> d           3.437   4.149   1.467  0.00  0.00    -0.064 C 
ATOM      5  C8  <0> d           1.954   3.726   1.441  0.00  0.00    -0.057 C 
ATOM      6  H5  <0> d           0.827   3.847  -0.441  0.00  0.00     0.049 H 
ATOM      7  H6  <0> d           3.489   2.467  -0.833  0.00  0.00     0.034 H 
ATOM      8  H7  <0> d           2.727   3.761  -1.819  0.00  0.00     0.034 H 
ATOM      9  H8  <0> d           4.827   4.409  -0.243  0.00  0.00     0.033 H 
ATOM     10  H9  <0> d           3.404   5.504  -0.290  0.00  0.00     0.033 H 
ATOM     11  H10 <0> d           4.094   3.331   1.799  0.00  0.00     0.033 H 
ATOM     12  H11 <0> d           3.604   5.033   2.099  0.00  0.00     0.033 H 
ATOM     13  H12 <0> d           1.301   4.572   1.703  0.00  0.00     0.034 H 
ATOM     14  H13 <0> d           1.771   2.893   2.136  0.00  0.00     0.034 H 
ENDROOT
BRANCH   1  15
ATOM     15  C2  <0> d           1.219   1.826   0.000  0.00  0.00     0.033 A 
ATOM     16  C1  <0> d           2.070   0.717  -0.014  0.00  0.00    -0.016 A 
ATOM     17  C3  <0> d           1.294  -0.403  -0.013  0.00  0.00     0.115 A 
ATOM     18  H2  <0> d           3.149   0.743  -0.024  0.00  0.00     0.092 H 
ATOM     19  N2  <0> d           0.002  -0.004   0.002  0.00  0.00    -0.286 N 
ATOM     20  N1  <0> d          -0.017   1.396   0.010  0.00  0.00    -0.303 N 
ATOM     21  H1  <0> d          -0.943  -0.567   0.008  0.00  0.00     0.188 HD
ATOM     22  H14 <0> d          -0.849   2.116   0.021  0.00  0.00     0.186 HD
BRANCH  17  23
ATOM     23  N3  <0> d           1.750  -1.718  -0.023  0.00  0.00    -0.384 N 
ATOM     24  H3  <0> d           1.029  -2.549  -0.021  0.00  0.00     0.157 HD
ATOM     25  H4  <0> d           2.830  -1.926  -0.034  0.00  0.00     0.157 HD
ENDBRANCH  17  23
ENDBRANCH   1  15
TORSDOF 2
