REMARK  2 active torsions:
REMARK  status: ('A' for Active; 'I' for Inactive)
REMARK    1  A    between atoms: C3_3  and  C6_9 
REMARK    2  A    between atoms: C6_9  and  C7_10 
ROOT
ATOM      1  C1  <0> d          -4.080  -0.351   1.199  0.00  0.00    -0.076 A 
ATOM      2  C2  <0> d          -3.023   0.570   1.192  0.00  0.00    -0.060 A 
ATOM      3  C3  <0> d          -2.462   0.945   0.019  0.00  0.00     0.022 A 
ATOM      4  N1  <0> d          -2.904   0.431  -1.157  0.00  0.00    -0.327 N 
ATOM      5  H1  <0> d          -2.436   0.741  -2.103  0.00  0.00     0.169 HD
ATOM      6  C4  <0> d          -3.913  -0.460  -1.183  0.00  0.00     0.245 A 
ATOM      7  O1  <0> d          -4.300  -0.913  -2.248  0.00  0.00    -0.268 OA
ATOM      8  C5  <0> d          -4.523  -0.867   0.016  0.00  0.00    -0.017 A 
ATOM      9  H2  <0> d          -4.536  -0.652   2.130  0.00  0.00     0.083 H 
ATOM     10  H3  <0> d          -2.659   0.982   2.121  0.00  0.00     0.086 H 
ATOM     11  H4  <0> d          -5.334  -1.580   0.001  0.00  0.00     0.092 H 
ENDROOT
BRANCH   3  12
ATOM     12  C6  <0> d          -1.329   1.940   0.019  0.00  0.00     0.053 C 
ATOM     13  H5  <0> d          -1.401   2.576  -0.875  0.00  0.00     0.058 H 
ATOM     14  H6  <0> d          -1.392   2.566   0.921  0.00  0.00     0.058 H 
BRANCH  12  15
ATOM     15  C7  <0> d          -0.014   1.204   0.009  0.00  0.00     0.178 C 
ATOM     16  O2  <0> d           0.002  -0.004   0.002  0.00  0.00    -0.648 OA
ATOM     17  O3  <0> d           1.139   1.891   0.001  0.00  0.00    -0.648 OA
ENDBRANCH  12  15
ENDBRANCH   3  12
TORSDOF 2
