REMARK  5 active torsions:
REMARK  status: ('A' for Active; 'I' for Inactive)
REMARK    1  A    between atoms: C1_1  and  C2_2 
REMARK    2  A    between atoms: C3_3  and  C7_10 
REMARK    3  A    between atoms: C4_4  and  C6_9 
REMARK    4  A    between atoms: C5_7  and  N2_8 
REMARK    5  A    between atoms: C7_10  and  C8_12 
ROOT
ATOM      1  C2  <0> d          -0.140  -0.036   0.200  0.00  0.00    -0.003 A 
ATOM      2  C3  <0> d           0.128  -0.681  -1.094  0.00  0.00     0.041 A 
ATOM      3  C4  <0> d           0.207  -2.035  -0.835  0.00  0.00     0.021 A 
ATOM      4  N1  <0> d           0.009  -2.225   0.492  0.00  0.00    -0.345 N 
ATOM      5  H1  <0> d           0.015  -3.088   0.935  0.00  0.00     0.167 HD
ATOM      6  C5  <0> d          -0.194  -1.028   1.117  0.00  0.00     0.106 A 
ENDROOT
BRANCH   2   7
ATOM      7  C7  <0> d           0.279  -0.021  -2.392  0.00  0.00     0.158 C 
ATOM      8  O1  <0> d          -0.700   0.217  -3.069  0.00  0.00    -0.293 OA
BRANCH   7   9
ATOM      9  C8  <0> d           1.649   0.362  -2.888  0.00  0.00    -0.017 C 
ATOM     10  H10 <0> d           2.404  -0.010  -2.194  0.00  0.00     0.038 H 
ATOM     11  H11 <0> d           1.815  -0.075  -3.873  0.00  0.00     0.038 H 
ATOM     12  H12 <0> d           1.721   1.447  -2.955  0.00  0.00     0.038 H 
ENDBRANCH   7   9
ENDBRANCH   2   7
BRANCH   1  13
ATOM     13  C1  <0> d          -0.313   1.439   0.455  0.00  0.00    -0.047 C 
ATOM     14  H2  <0> d           0.656   1.886   0.675  0.00  0.00     0.033 H 
ATOM     15  H3  <0> d          -0.739   1.912  -0.430  0.00  0.00     0.033 H 
ATOM     16  H4  <0> d          -0.982   1.585   1.303  0.00  0.00     0.033 H 
ENDBRANCH   1  13
BRANCH   3  17
ATOM     17  C6  <0> d           0.469  -3.115  -1.853  0.00  0.00    -0.036 C 
ATOM     18  H7  <0> d           1.544  -3.260  -1.961  0.00  0.00     0.035 H 
ATOM     19  H8  <0> d           0.008  -4.046  -1.522  0.00  0.00     0.035 H 
ATOM     20  H9  <0> d           0.044  -2.821  -2.813  0.00  0.00     0.035 H 
ENDBRANCH   3  17
BRANCH   6  21
ATOM     21  N2  <0> d          -0.423  -0.856   2.482  0.00  0.00    -0.385 N 
ATOM     22  H5  <0> d          -0.560   0.034   2.842  0.00  0.00     0.157 HD
ATOM     23  H6  <0> d          -0.445  -1.626   3.071  0.00  0.00     0.157 HD
ENDBRANCH   6  21
TORSDOF 5
