REMARK  3 active torsions:
REMARK  status: ('A' for Active; 'I' for Inactive)
REMARK    1  A    between atoms: C3_4  and  C4_7 
REMARK    2  A    between atoms: C4_7  and  C5_8 
REMARK    3  A    between atoms: C5_8  and  C6_9 
ROOT
ATOM      1  C4  <0> d           2.505   1.337  -0.014  0.00  0.00    -0.001 C 
ATOM      2  H4  <0> d           2.989   1.640   0.914  0.00  0.00     0.045 H 
ATOM      3  H5  <0> d           2.549   0.252  -0.109  0.00  0.00     0.045 H 
ENDROOT
BRANCH   1   4
ATOM      4  C3  <0> d           1.065   1.782   0.002  0.00  0.00     0.103 A 
ATOM      5  N1  <0> d           0.651   3.020   0.012  0.00  0.00    -0.246 NA
ATOM      6  C2  <0> d          -0.690   3.038   0.025  0.00  0.00     0.019 A 
ATOM      7  C1  <0> d          -1.124   1.763   0.016  0.00  0.00    -0.005 A 
ATOM      8  H3  <0> d          -1.312   3.920   0.035  0.00  0.00     0.117 H 
ATOM      9  N2  <0> d          -0.011   0.966   0.007  0.00  0.00    -0.353 N 
ATOM     10  H2  <0> d          -2.152   1.433   0.018  0.00  0.00     0.113 H 
ATOM     11  H1  <0> d           0.003  -0.034   0.006  0.00  0.00     0.166 HD
ENDBRANCH   1   4
BRANCH   1  12
ATOM     12  C5  <0> d           3.225   1.983  -1.199  0.00  0.00     0.022 C 
ATOM     13  H6  <0> d           2.741   1.679  -2.127  0.00  0.00     0.049 H 
ATOM     14  H7  <0> d           3.181   3.067  -1.104  0.00  0.00     0.049 H 
BRANCH  12  15
ATOM     15  C6  <0> d           4.665   1.538  -1.214  0.00  0.00     0.172 C 
ATOM     16  O1  <0> d           5.073   0.782  -0.365  0.00  0.00    -0.648 OA
ATOM     17  O2  <0> d           5.494   1.981  -2.172  0.00  0.00    -0.648 OA
ENDBRANCH  12  15
ENDBRANCH   1  12
TORSDOF 3
