REMARK  0 active torsions:
REMARK  status: ('A' for Active; 'I' for Inactive)
ROOT
ATOM      1  C1  <0> d          -0.013   1.076   0.008  0.00  0.00    -0.056 A 
ATOM      2  C2  <0> d          -1.103   1.859   0.017  0.00  0.00    -0.022 A 
ATOM      3  N1  <0> d          -0.731   3.176   0.025  0.00  0.00    -0.363 N 
ATOM      4  H1  <0> d          -1.343   3.928   0.034  0.00  0.00     0.165 HD
ATOM      5  C3  <0> d           0.645   3.273   0.013  0.00  0.00     0.081 A 
ATOM      6  C4  <0> d           1.153   1.963   0.002  0.00  0.00    -0.002 A 
ATOM      7  C5  <0> d           2.534   1.750  -0.012  0.00  0.00    -0.033 A 
ATOM      8  C6  <0> d           3.391   2.829  -0.014  0.00  0.00     0.120 A 
ATOM      9  C7  <0> d           2.888   4.125  -0.004  0.00  0.00    -0.006 A 
ATOM     10  C8  <0> d           1.527   4.351   0.010  0.00  0.00     0.146 A 
ATOM     11  F1  <0> d           1.052   5.615   0.020  0.00  0.00    -0.204 F 
ATOM     12  F2  <0> d           4.726   2.626  -0.027  0.00  0.00    -0.206 F 
ATOM     13  H2  <0> d           0.002  -0.004   0.002  0.00  0.00     0.086 H 
ATOM     14  H3  <0> d          -2.122   1.503   0.019  0.00  0.00     0.111 H 
ATOM     15  H4  <0> d           2.928   0.744  -0.020  0.00  0.00     0.089 H 
ATOM     16  H5  <0> d           3.569   4.963  -0.006  0.00  0.00     0.093 H 
ENDROOT
TORSDOF 0
