REMARK  4 active torsions:
REMARK  status: ('A' for Active; 'I' for Inactive)
REMARK    1  A    between atoms: C3_3  and  C5_6 
REMARK    2  A    between atoms: C5_6  and  O2_7 
REMARK    3  A    between atoms: O2_7  and  C6_8 
REMARK    4  A    between atoms: C6_8  and  C7_9 
ROOT
ATOM      1  C7  <0> d           1.139   3.547   0.010  0.00  0.00     0.034 C 
ATOM      2  C8  <0> d           2.475   4.164   0.001  0.00  0.00     0.061 C 
ATOM      3  N1  <0> d           3.506   4.640  -0.006  0.00  0.00    -0.197 NA
ATOM      4  H8  <0> d           0.580   3.869  -0.881  0.00  0.00     0.058 H 
ATOM      5  H9  <0> d           0.597   3.859   0.915  0.00  0.00     0.058 H 
ENDROOT
BRANCH   1   6
ATOM      6  C6  <0> d           1.280   2.024   0.001  0.00  0.00     0.031 C 
ATOM      7  H6  <0> d           1.839   1.702   0.892  0.00  0.00     0.075 H 
ATOM      8  H7  <0> d           1.822   1.711  -0.904  0.00  0.00     0.075 H 
BRANCH   6   9
ATOM      9  O2  <0> d          -0.017   1.425   0.010  0.00  0.00    -0.384 OA
BRANCH   9  10
ATOM     10  C5  <0> d           0.002  -0.004   0.002  0.00  0.00     0.063 C 
ATOM     11  H4  <0> d           0.534  -0.368   0.893  0.00  0.00     0.084 H 
ATOM     12  H5  <0> d           0.517  -0.359  -0.903  0.00  0.00     0.084 H 
BRANCH  10  13
ATOM     13  C3  <0> d          -1.412  -0.526   0.013  0.00  0.00     0.076 A 
ATOM     14  C2  <0> d          -2.160  -0.792  -1.073  0.00  0.00    -0.050 A 
ATOM     15  C1  <0> d          -3.410  -1.257  -0.604  0.00  0.00    -0.059 A 
ATOM     16  H2  <0> d          -1.863  -0.673  -2.104  0.00  0.00     0.087 H 
ATOM     17  C4  <0> d          -3.351  -1.248   0.740  0.00  0.00     0.019 A 
ATOM     18  H1  <0> d          -4.252  -1.562  -1.209  0.00  0.00     0.086 H 
ATOM     19  O1  <0> d          -2.136  -0.809   1.108  0.00  0.00    -0.325 OA
ATOM     20  H3  <0> d          -4.144  -1.546   1.409  0.00  0.00     0.123 H 
ENDBRANCH  10  13
ENDBRANCH   9  10
ENDBRANCH   6   9
ENDBRANCH   1   6
TORSDOF 4
