REMARK  2 active torsions:
REMARK  status: ('A' for Active; 'I' for Inactive)
REMARK    1  A    between atoms: C1_1  and  C2_2 
REMARK    2  A    between atoms: C7_8  and  C8_10 
ROOT
ATOM      1  C2  <0> d          -1.490   3.616   0.036  0.00  0.00    -0.045 C 
ATOM      2  H1  <0> d          -1.504   4.706   0.042  0.00  0.00     0.040 H 
ATOM      3  C3  <0> d          -0.750   3.109   1.275  0.00  0.00    -0.061 C 
ATOM      4  C4  <0> d          -0.729   1.579   1.267  0.00  0.00    -0.065 C 
ATOM      5  C5  <0> d          -0.013   1.086   0.008  0.00  0.00    -0.064 C 
ATOM      6  C6  <0> d          -0.753   1.593  -1.232  0.00  0.00    -0.052 C 
ATOM      7  C7  <0> d          -0.773   3.123  -1.223  0.00  0.00     0.034 C 
ATOM      8  H2  <0> d           0.249   3.500  -1.231  0.00  0.00     0.057 H 
ATOM      9  H6  <0> d           0.273   3.486   1.268  0.00  0.00     0.033 H 
ATOM     10  H7  <0> d          -1.260   3.461   2.172  0.00  0.00     0.033 H 
ATOM     11  H8  <0> d          -1.751   1.202   1.275  0.00  0.00     0.033 H 
ATOM     12  H9  <0> d          -0.202   1.218   2.150  0.00  0.00     0.033 H 
ATOM     13  H10 <0> d           0.002  -0.004   0.002  0.00  0.00     0.033 H 
ATOM     14  H11 <0> d           1.010   1.463   0.000  0.00  0.00     0.033 H 
ATOM     15  H12 <0> d          -0.242   1.241  -2.128  0.00  0.00     0.034 H 
ATOM     16  H13 <0> d          -1.775   1.215  -1.224  0.00  0.00     0.034 H 
ENDROOT
BRANCH   1  17
ATOM     17  C1  <0> d          -2.925   3.086   0.047  0.00  0.00    -0.072 C 
ATOM     18  H3  <0> d          -2.910   1.996   0.041  0.00  0.00     0.028 H 
ATOM     19  H4  <0> d          -3.435   3.438   0.943  0.00  0.00     0.028 H 
ATOM     20  H5  <0> d          -3.452   3.447  -0.837  0.00  0.00     0.028 H 
ENDBRANCH   1  17
BRANCH   7  21
ATOM     21  C8  <0> d          -1.502   3.622  -2.444  0.00  0.00     0.177 C 
ATOM     22  O1  <0> d          -2.493   4.302  -2.320  0.00  0.00    -0.648 OA
ATOM     23  O2  <0> d          -1.051   3.310  -3.669  0.00  0.00    -0.648 OA
ENDBRANCH   7  21
TORSDOF 2
