REMARK  3 active torsions:
REMARK  status: ('A' for Active; 'I' for Inactive)
REMARK    1  A    between atoms: C3_3  and  N1_9 
REMARK    2  A    between atoms: C4_4  and  O2_8 
REMARK    3  A    between atoms: C6_6  and  O1_7 
ROOT
ATOM      1  C1  <0> d           1.230  -2.064  -0.020  0.00  0.00    -0.049 A 
ATOM      2  C2  <0> d           1.212  -0.682  -0.013  0.00  0.00    -0.052 A 
ATOM      3  C3  <0> d           0.002  -0.004   0.002  0.00  0.00     0.059 A 
ATOM      4  C4  <0> d          -1.194  -0.718   0.015  0.00  0.00     0.094 A 
ATOM      5  C5  <0> d          -1.172  -2.102   0.002  0.00  0.00    -0.017 A 
ATOM      6  C6  <0> d           0.040  -2.776  -0.012  0.00  0.00     0.068 A 
ATOM      7  H1  <0> d           2.173  -2.591  -0.032  0.00  0.00     0.087 H 
ATOM      8  H2  <0> d           2.140  -0.129  -0.019  0.00  0.00     0.087 H 
ATOM      9  H3  <0> d          -2.099  -2.657   0.009  0.00  0.00     0.092 H 
ENDROOT
BRANCH   3  10
ATOM     10  N1  <0> d          -0.017   1.398   0.010  0.00  0.00    -0.397 N 
ATOM     11  H6  <0> d           0.816   1.894   0.004  0.00  0.00     0.156 HD
ATOM     12  H7  <0> d          -0.864   1.872   0.016  0.00  0.00     0.156 HD
ENDBRANCH   3  10
BRANCH   4  13
ATOM     13  O2  <0> d          -2.382  -0.056   0.036  0.00  0.00    -0.358 OA
ATOM     14  H5  <0> d          -2.738   0.141  -0.841  0.00  0.00     0.217 HD
ENDBRANCH   4  13
BRANCH   6  15
ATOM     15  O1  <0> d           0.062  -4.136  -0.019  0.00  0.00    -0.361 OA
ATOM     16  H4  <0> d           0.076  -4.533   0.863  0.00  0.00     0.217 HD
ENDBRANCH   6  15
TORSDOF 3
