REMARK  4 active torsions:
REMARK  status: ('A' for Active; 'I' for Inactive)
REMARK    1  A    between atoms: C3_3  and  C5_5 
REMARK    2  A    between atoms: C5_5  and  C6_7 
REMARK    3  A    between atoms: C6_7  and  C7_8 
REMARK    4  A    between atoms: C7_8  and  C8_9 
ROOT
ATOM      1  C1  <0> d          -0.019   1.534   0.011  0.00  0.00    -0.064 C 
ATOM      2  C2  <0> d           1.518   1.476  -0.004  0.00  0.00    -0.055 C 
ATOM      3  C3  <0> d           1.394   0.090   0.649  0.00  0.00     0.004 C 
ATOM      4  C4  <0> d           0.002  -0.004   0.002  0.00  0.00    -0.055 C 
ATOM      5  H1  <0> d          -0.431   1.960   0.925  0.00  0.00     0.033 H 
ATOM      6  H2  <0> d          -0.448   1.969  -0.892  0.00  0.00     0.033 H 
ATOM      7  H3  <0> d           1.944   1.450  -1.007  0.00  0.00     0.034 H 
ATOM      8  H4  <0> d           1.989   2.221   0.637  0.00  0.00     0.034 H 
ATOM      9  H5  <0> d           1.368   0.121   1.738  0.00  0.00     0.051 H 
ATOM     10  H6  <0> d          -0.751  -0.455   0.649  0.00  0.00     0.034 H 
ATOM     11  H7  <0> d           0.014  -0.435  -0.999  0.00  0.00     0.034 H 
ENDROOT
BRANCH   3  12
ATOM     12  C5  <0> d           2.377  -0.920   0.114  0.00  0.00     0.131 C 
ATOM     13  O1  <0> d           2.833  -0.789  -0.996  0.00  0.00    -0.298 OA
BRANCH  12  14
ATOM     14  C6  <0> d           2.792  -2.092   0.965  0.00  0.00    -0.000 C 
ATOM     15  H8  <0> d           3.258  -1.730   1.881  0.00  0.00     0.045 H 
ATOM     16  H9  <0> d           1.913  -2.687   1.216  0.00  0.00     0.045 H 
BRANCH  14  17
ATOM     17  C7  <0> d           3.789  -2.957   0.192  0.00  0.00     0.022 C 
ATOM     18  H10 <0> d           3.323  -3.319  -0.724  0.00  0.00     0.049 H 
ATOM     19  H11 <0> d           4.668  -2.361  -0.059  0.00  0.00     0.049 H 
BRANCH  17  20
ATOM     20  C8  <0> d           4.204  -4.129   1.043  0.00  0.00     0.172 C 
ATOM     21  O2  <0> d           3.743  -4.261   2.164  0.00  0.00    -0.648 OA
ATOM     22  O3  <0> d           4.999  -4.946   0.611  0.00  0.00    -0.648 OA
ENDBRANCH  17  20
ENDBRANCH  14  17
ENDBRANCH  12  14
ENDBRANCH   3  12
TORSDOF 4
