REMARK  1 active torsions:
REMARK  status: ('A' for Active; 'I' for Inactive)
REMARK    1  A    between atoms: C1_1  and  C2_2 
ROOT
ATOM      1  C2  <0> d           1.177   1.786   0.000  0.00  0.00    -0.040 A 
ATOM      2  C3  <0> d           1.108   3.173   0.009  0.00  0.00    -0.035 A 
ATOM      3  C4  <0> d          -0.148   3.762   0.024  0.00  0.00     0.148 A 
ATOM      4  N1  <0> d          -1.228   3.003   0.030  0.00  0.00    -0.138 NA
ATOM      5  N2  <0> d          -1.163   1.721   0.017  0.00  0.00    -0.161 NA
ATOM      6  C5  <0> d          -0.013   1.076   0.008  0.00  0.00     0.029 A 
ATOM      7 Cl1  <0> d          -0.299   5.491   0.035  0.00  0.00    -0.060 Cl
ATOM      8  H4  <0> d           2.005   3.775   0.003  0.00  0.00     0.089 H 
ATOM      9  H5  <0> d           0.002  -0.004   0.002  0.00  0.00     0.118 H 
ENDROOT
BRANCH   1  10
ATOM     10  C1  <0> d           2.506   1.075  -0.017  0.00  0.00    -0.050 C 
ATOM     11  H1  <0> d           2.816   0.910  -1.048  0.00  0.00     0.033 H 
ATOM     12  H2  <0> d           3.251   1.686   0.493  0.00  0.00     0.033 H 
ATOM     13  H3  <0> d           2.412   0.116   0.493  0.00  0.00     0.033 H 
ENDBRANCH   1  10
TORSDOF 1
