REMARK  1 active torsions:
REMARK  status: ('A' for Active; 'I' for Inactive)
REMARK    1  A    between atoms: C1_1  and  C2_2 
ROOT
ATOM      1  C2  <0> d           0.002  -0.004   0.002  0.00  0.00     0.123 A 
ATOM      2  N1  <0> d          -0.006  -0.639  -1.153  0.00  0.00    -0.246 NA
ATOM      3  C3  <0> d           0.017  -1.962  -1.200  0.00  0.00     0.007 A 
ATOM      4  C4  <0> d           0.038  -2.679  -0.015  0.00  0.00    -0.027 A 
ATOM      5  C5  <0> d           0.040  -1.976   1.181  0.00  0.00     0.129 A 
ATOM      6  N2  <0> d           0.022  -0.651   1.150  0.00  0.00    -0.222 NA
ATOM      7 Cl1  <0> d           0.067  -2.820   2.698  0.00  0.00    -0.062 Cl
ATOM      8  H4  <0> d           0.015  -2.475  -2.150  0.00  0.00     0.115 H 
ATOM      9  H5  <0> d           0.053  -3.759  -0.022  0.00  0.00     0.090 H 
ENDROOT
BRANCH   1  10
ATOM     10  C1  <0> d          -0.018   1.503   0.010  0.00  0.00    -0.019 C 
ATOM     11  H1  <0> d           1.004   1.880   0.003  0.00  0.00     0.037 H 
ATOM     12  H2  <0> d          -0.545   1.864  -0.873  0.00  0.00     0.037 H 
ATOM     13  H3  <0> d          -0.529   1.854   0.907  0.00  0.00     0.037 H 
ENDBRANCH   1  10
TORSDOF 1
