REMARK  5 active torsions:
REMARK  status: ('A' for Active; 'I' for Inactive)
REMARK    1  A    between atoms: C1_1  and  C2_2 
REMARK    2  A    between atoms: C2_2  and  C3_4 
REMARK    3  A    between atoms: C2_2  and  C9_10 
REMARK    4  A    between atoms: C9_10  and  C10_12 
REMARK    5  A    between atoms: C9_10  and  O1_13 
ROOT
ATOM      1  C2  <0> d          -0.729   1.579   1.267  0.00  0.00    -0.008 C 
ATOM      2  H1  <0> d          -0.744   2.669   1.273  0.00  0.00     0.050 H 
ENDROOT
BRANCH   1   3
ATOM      3  C1  <0> d          -0.013   1.086   0.008  0.00  0.00    -0.067 C 
ATOM      4  H3  <0> d           0.002  -0.004   0.002  0.00  0.00     0.028 H 
ATOM      5  H4  <0> d           1.010   1.463   0.000  0.00  0.00     0.028 H 
ATOM      6  H5  <0> d          -0.540   1.447  -0.875  0.00  0.00     0.028 H 
ENDBRANCH   1   3
BRANCH   1   7
ATOM      7  C3  <0> d           0.000   1.080   2.488  0.00  0.00    -0.052 A 
ATOM      8  C8  <0> d           0.522   1.980   3.397  0.00  0.00    -0.076 A 
ATOM      9  C7  <0> d           1.190   1.523   4.517  0.00  0.00    -0.082 A 
ATOM     10  H10 <0> d           0.407   3.042   3.233  0.00  0.00     0.084 H 
ATOM     11  C6  <0> d           1.337   0.164   4.728  0.00  0.00    -0.083 A 
ATOM     12  H9  <0> d           1.598   2.226   5.228  0.00  0.00     0.083 H 
ATOM     13  C5  <0> d           0.814  -0.736   3.818  0.00  0.00    -0.082 A 
ATOM     14  H8  <0> d           1.859  -0.194   5.603  0.00  0.00     0.083 H 
ATOM     15  C4  <0> d           0.142  -0.278   2.701  0.00  0.00    -0.076 A 
ATOM     16  H7  <0> d           0.929  -1.798   3.983  0.00  0.00     0.083 H 
ATOM     17  H6  <0> d          -0.270  -0.982   1.992  0.00  0.00     0.084 H 
ENDBRANCH   1   7
BRANCH   1  18
ATOM     18  C9  <0> d          -2.164   1.050   1.278  0.00  0.00     0.039 C 
ATOM     19  H2  <0> d          -2.149  -0.040   1.272  0.00  0.00     0.083 H 
BRANCH  18  20
ATOM     20  C10 <0> d          -2.880   1.543   2.537  0.00  0.00    -0.052 C 
ATOM     21  H11 <0> d          -2.895   2.633   2.542  0.00  0.00     0.030 H 
ATOM     22  H12 <0> d          -3.903   1.166   2.544  0.00  0.00     0.030 H 
ATOM     23  H13 <0> d          -2.353   1.182   3.420  0.00  0.00     0.030 H 
ENDBRANCH  18  20
BRANCH  18  24
ATOM     24  O1  <0> d          -2.855   1.523   0.120  0.00  0.00    -0.395 OA
ATOM     25  H14 <0> d          -3.774   1.226   0.061  0.00  0.00     0.210 HD
ENDBRANCH  18  24
ENDBRANCH   1  18
TORSDOF 5
