REMARK  2 active torsions:
REMARK  status: ('A' for Active; 'I' for Inactive)
REMARK    1  A    between atoms: C3_3  and  O2_15 
REMARK    2  A    between atoms: C7_9  and  O1_14 
ROOT
ATOM      1  C1  <0> d          -0.660   3.067  -1.456  0.00  0.00    -0.057 C 
ATOM      2  C2  <0> d          -0.821   1.580  -1.185  0.00  0.00    -0.040 C 
ATOM      3  C3  <0> d          -0.013   1.095   0.008  0.00  0.00     0.039 C 
ATOM      4  H1  <0> d           0.002  -0.004   0.002  0.00  0.00     0.083 H 
ATOM      5  C4  <0> d           1.423   1.601  -0.003  0.00  0.00    -0.029 C 
ATOM      6  H2  <0> d           1.896   1.321   0.952  0.00  0.00     0.043 H 
ATOM      7  C5  <0> d           2.231   0.984  -1.136  0.00  0.00    -0.057 C 
ATOM      8  C6  <0> d           1.765   1.442  -2.509  0.00  0.00    -0.040 C 
ATOM      9  C7  <0> d           1.581   2.949  -2.604  0.00  0.00     0.039 C 
ATOM     10  H3  <0> d           1.049   3.183  -3.536  0.00  0.00     0.083 H 
ATOM     11  C8  <0> d           0.792   3.521  -1.434  0.00  0.00    -0.029 C 
ATOM     12  H4  <0> d           0.813   4.620  -1.508  0.00  0.00     0.043 H 
ATOM     13  C9  <0> d           1.446   3.126  -0.111  0.00  0.00    -0.054 C 
ATOM     14  H5  <0> d          -1.224   3.634  -0.705  0.00  0.00     0.033 H 
ATOM     15  H6  <0> d          -1.093   3.303  -2.437  0.00  0.00     0.033 H 
ATOM     16  H7  <0> d          -0.595   0.995  -2.072  0.00  0.00     0.036 H 
ATOM     17  H8  <0> d          -1.890   1.392  -0.965  0.00  0.00     0.036 H 
ATOM     18  H9  <0> d           3.288   1.248  -1.007  0.00  0.00     0.033 H 
ATOM     19  H10 <0> d           2.154  -0.108  -1.076  0.00  0.00     0.033 H 
ATOM     20  H11 <0> d           0.860   0.920  -2.808  0.00  0.00     0.036 H 
ATOM     21  H12 <0> d           2.540   1.150  -3.243  0.00  0.00     0.036 H 
ATOM     22  H13 <0> d           0.891   3.562   0.718  0.00  0.00     0.034 H 
ATOM     23  H14 <0> d           2.476   3.480  -0.087  0.00  0.00     0.034 H 
ENDROOT
BRANCH   3  24
ATOM     24  O2  <0> d          -0.654   1.516   1.220  0.00  0.00    -0.395 OA
ATOM     25  H16 <0> d          -1.564   1.202   1.312  0.00  0.00     0.210 HD
ENDBRANCH   3  24
BRANCH   9  26
ATOM     26  O1  <0> d           2.867   3.581  -2.663  0.00  0.00    -0.395 OA
ATOM     27  H15 <0> d           3.427   3.267  -3.386  0.00  0.00     0.210 HD
ENDBRANCH   9  26
TORSDOF 2
