REMARK  3 active torsions:
REMARK  status: ('A' for Active; 'I' for Inactive)
REMARK    1  A    between atoms: C1_1  and  C2_2 
REMARK    2  A    between atoms: C2_2  and  C3_3 
REMARK    3  A    between atoms: C4_4  and  N3_8 
ROOT
ATOM      1  C3  <0> d          -0.742   1.585  -1.213  0.00  0.00     0.111 A 
ATOM      2  C4  <0> d          -0.483   2.845  -1.905  0.00  0.00     0.178 A 
ATOM      3  N1  <0> d          -1.306   2.936  -2.915  0.00  0.00    -0.085 NA
ATOM      4  O1  <0> d          -2.112   1.771  -2.920  0.00  0.00    -0.105 OA
ATOM      5  N2  <0> d          -1.701   0.965  -1.829  0.00  0.00    -0.106 NA
ENDROOT
BRANCH   1   6
ATOM      6  C2  <0> d          -0.013   1.086   0.008  0.00  0.00    -0.022 C 
ATOM      7  H4  <0> d           0.002  -0.004   0.002  0.00  0.00     0.042 H 
ATOM      8  H5  <0> d           1.010   1.463   0.000  0.00  0.00     0.042 H 
BRANCH   6   9
ATOM      9  C1  <0> d          -0.729   1.579   1.267  0.00  0.00    -0.071 C 
ATOM     10  H1  <0> d          -0.202   1.218   2.150  0.00  0.00     0.028 H 
ATOM     11  H2  <0> d          -0.744   2.669   1.273  0.00  0.00     0.028 H 
ATOM     12  H3  <0> d          -1.751   1.202   1.275  0.00  0.00     0.028 H 
ENDBRANCH   6   9
ENDBRANCH   1   6
BRANCH   2  13
ATOM     13  N3  <0> d           0.477   3.787  -1.550  0.00  0.00    -0.380 N 
ATOM     14  H6  <0> d           1.047   3.632  -0.780  0.00  0.00     0.157 HD
ATOM     15  H7  <0> d           0.577   4.598  -2.072  0.00  0.00     0.157 HD
ENDBRANCH   2  13
TORSDOF 3
