REMARK  9 active torsions:
REMARK  status: ('A' for Active; 'I' for Inactive)
REMARK    1  A    between atoms: C1_1  and  C2_2 
REMARK    2  A    between atoms: C2_2  and  C3_4 
REMARK    3  A    between atoms: C2_2  and  C4_6 
REMARK    4  A    between atoms: C3_4  and  O1_5 
REMARK    5  A    between atoms: C4_6  and  C5_8 
REMARK    6  A    between atoms: C4_6  and  O2_12 
REMARK    7  A    between atoms: C5_8  and  C6_9 
REMARK    8  A    between atoms: C5_8  and  C7_10 
REMARK    9  A    between atoms: C5_8  and  C8_11 
ROOT
ATOM      1  C4  <0> d           1.553  -0.411   1.890  0.00  0.00     0.047 C 
ATOM      2  H2  <0> d           2.304   0.202   2.389  0.00  0.00     0.084 H 
ENDROOT
BRANCH   1   3
ATOM      3  C2  <0> d           1.536  -0.082   0.396  0.00  0.00    -0.012 C 
ATOM      4  H1  <0> d           0.693  -0.584  -0.077  0.00  0.00     0.046 H 
BRANCH   3   5
ATOM      5  C1  <0> d           1.400   1.431   0.208  0.00  0.00    -0.069 C 
ATOM      6  H3  <0> d           2.066   1.944   0.901  0.00  0.00     0.028 H 
ATOM      7  H4  <0> d           1.665   1.695  -0.815  0.00  0.00     0.028 H 
ATOM      8  H5  <0> d           0.370   1.730   0.406  0.00  0.00     0.028 H 
ENDBRANCH   3   5
BRANCH   3   9
ATOM      9  C3  <0> d           2.840  -0.560  -0.246  0.00  0.00     0.022 C 
ATOM     10  H6  <0> d           3.676   0.006   0.165  0.00  0.00     0.074 H 
ATOM     11  H7  <0> d           2.981  -1.620  -0.036  0.00  0.00     0.074 H 
BRANCH   9  12
ATOM     12  O1  <0> d           2.777  -0.359  -1.659  0.00  0.00    -0.400 OA
ATOM     13  H8  <0> d           3.572  -0.640  -2.132  0.00  0.00     0.209 HD
ENDBRANCH   9  12
ENDBRANCH   3   9
ENDBRANCH   1   3
BRANCH   1  14
ATOM     14  C5  <0> d           0.176  -0.121   2.492  0.00  0.00    -0.025 C 
BRANCH  14  15
ATOM     15  C6  <0> d          -0.904  -0.792   1.641  0.00  0.00    -0.067 C 
ATOM     16  H9  <0> d          -0.735  -1.869   1.622  0.00  0.00     0.028 H 
ATOM     17  H10 <0> d          -1.885  -0.585   2.069  0.00  0.00     0.028 H 
ATOM     18  H11 <0> d          -0.862  -0.400   0.625  0.00  0.00     0.028 H 
ENDBRANCH  14  15
BRANCH  14  19
ATOM     19  C7  <0> d           0.117  -0.671   3.918  0.00  0.00    -0.067 C 
ATOM     20  H12 <0> d           0.886  -0.193   4.524  0.00  0.00     0.028 H 
ATOM     21  H13 <0> d          -0.864  -0.464   4.347  0.00  0.00     0.028 H 
ATOM     22  H14 <0> d           0.285  -1.747   3.900  0.00  0.00     0.028 H 
ENDBRANCH  14  19
BRANCH  14  23
ATOM     23  C8  <0> d          -0.061   1.391   2.518  0.00  0.00    -0.067 C 
ATOM     24  H15 <0> d          -0.631   1.684   1.636  0.00  0.00     0.028 H 
ATOM     25  H16 <0> d          -0.618   1.656   3.416  0.00  0.00     0.028 H 
ATOM     26  H17 <0> d           0.898   1.909   2.519  0.00  0.00     0.028 H 
ENDBRANCH  14  23
ENDBRANCH   1  14
BRANCH   1  27
ATOM     27  O2  <0> d           1.870  -1.792   2.070  0.00  0.00    -0.394 OA
ATOM     28  H18 <0> d           1.242  -2.398   1.652  0.00  0.00     0.210 HD
ENDBRANCH   1  27
TORSDOF 9
