REMARK  5 active torsions:
REMARK  status: ('A' for Active; 'I' for Inactive)
REMARK    1  A    between atoms: C1_1  and  C2_2 
REMARK    2  A    between atoms: C2_2  and  O1_3 
REMARK    3  A    between atoms: O1_3  and  C3_4 
REMARK    4  A    between atoms: C4_6  and  C7_13 
REMARK    5  A    between atoms: C5_8  and  C6_10 
ROOT
ATOM      1  C3  <0> d           0.659  -0.752   1.224  0.00  0.00     0.056 A 
ATOM      2  H1  <0> d           0.917  -0.536   2.272  0.00  0.00     0.085 H 
ATOM      3  C4  <0> d           1.362  -0.691  -0.133  0.00  0.00    -0.016 A 
ATOM      4  H2  <0> d           1.765  -1.437  -0.835  0.00  0.00     0.044 H 
ATOM      5  C5  <0> d           0.008  -0.005   0.058  0.00  0.00     0.061 A 
ATOM      6  H3  <0> d          -0.968  -0.041  -0.449  0.00  0.00     0.061 H 
ENDROOT
BRANCH   1   7
ATOM      7  O1  <0> d           0.082  -2.000   1.614  0.00  0.00    -0.385 OA
BRANCH   7   8
ATOM      8  C2  <0> d           0.062  -2.215   3.026  0.00  0.00     0.017 C 
ATOM      9  H7  <0> d          -0.525  -1.421   3.510  0.00  0.00     0.073 H 
ATOM     10  H8  <0> d           1.091  -2.199   3.414  0.00  0.00     0.073 H 
BRANCH   8  11
ATOM     11  C1  <0> d          -0.575  -3.574   3.326  0.00  0.00    -0.056 C 
ATOM     12  H4  <0> d          -0.590  -3.740   4.413  0.00  0.00     0.030 H 
ATOM     13  H5  <0> d           0.012  -4.369   2.842  0.00  0.00     0.030 H 
ATOM     14  H6  <0> d          -1.604  -3.590   2.938  0.00  0.00     0.030 H 
ENDBRANCH   8  11
ENDBRANCH   7   8
ENDBRANCH   1   7
BRANCH   5  15
ATOM     15  C6  <0> d          -0.007   1.500   0.118  0.00  0.00     0.180 C 
ATOM     16  O2  <0> d           0.791   2.086   0.811  0.00  0.00    -0.648 OA
ATOM     17  O3  <0> d          -0.902   2.192  -0.604  0.00  0.00    -0.648 OA
ENDBRANCH   5  15
BRANCH   3  18
ATOM     18  C7  <0> d           2.598   0.204  -0.250  0.00  0.00    -0.070 C 
ATOM     19  H9  <0> d           2.995   0.149  -1.274  0.00  0.00     0.028 H 
ATOM     20  H10 <0> d           3.365  -0.137   0.460  0.00  0.00     0.028 H 
ATOM     21  H11 <0> d           2.320   1.243  -0.019  0.00  0.00     0.028 H 
ENDBRANCH   3  18
TORSDOF 5
