REMARK  2 active torsions:
REMARK  status: ('A' for Active; 'I' for Inactive)
REMARK    1  A    between atoms: C1_1  and  C2_2 
REMARK    2  A    between atoms: C3_3  and  N1_4 
ROOT
ATOM      1  N1  <0> d           1.985   0.758  -0.013  0.00  0.00    -0.162 N 
ATOM      2  N2  <0> d           1.258   1.821  -0.000  0.00  0.00    -0.148 NA
ATOM      3  C4  <0> d          -0.018   1.467   0.010  0.00  0.00     0.109 A 
ATOM      4  C5  <0> d          -1.259   2.127   0.030  0.00  0.00    -0.051 A 
ATOM      5  C6  <0> d          -2.405   1.396   0.034  0.00  0.00    -0.081 A 
ATOM      6  C7  <0> d          -2.386   0.001   0.026  0.00  0.00    -0.081 A 
ATOM      7  C8  <0> d          -1.220  -0.697   0.010  0.00  0.00    -0.051 A 
ATOM      8  C9  <0> d           0.002  -0.004   0.002  0.00  0.00     0.109 A 
ATOM      9  N3  <0> d           1.287  -0.323  -0.012  0.00  0.00    -0.148 NA
ATOM     10  H6  <0> d          -1.301   3.206   0.037  0.00  0.00     0.087 H 
ATOM     11  H7  <0> d          -3.355   1.909   0.046  0.00  0.00     0.083 H 
ATOM     12  H8  <0> d          -3.322  -0.537   0.032  0.00  0.00     0.083 H 
ATOM     13  H9  <0> d          -1.234  -1.777   0.005  0.00  0.00     0.087 H 
ENDROOT
BRANCH   1  14
ATOM     14  C3  <0> d           3.378   0.777  -0.026  0.00  0.00     0.020 C 
ATOM     15  C2  <0> d           4.022   1.929  -0.026  0.00  0.00    -0.088 C 
ATOM     16  H4  <0> d           3.470   2.857  -0.016  0.00  0.00     0.078 H 
ATOM     17  H5  <0> d           3.931  -0.150  -0.035  0.00  0.00     0.117 H 
BRANCH  15  18
ATOM     18  C1  <0> d           5.529   1.949  -0.039  0.00  0.00    -0.058 C 
ATOM     19  H1  <0> d           5.908   1.436   0.845  0.00  0.00     0.032 H 
ATOM     20  H2  <0> d           5.891   1.445  -0.935  0.00  0.00     0.032 H 
ATOM     21  H3  <0> d           5.879   2.982  -0.037  0.00  0.00     0.032 H 
ENDBRANCH  15  18
ENDBRANCH   1  14
TORSDOF 2
