REMARK  5 active torsions:
REMARK  status: ('A' for Active; 'I' for Inactive)
REMARK    1  A    between atoms: C1_1  and  C2_2 
REMARK    2  A    between atoms: C2_2  and  O1_3 
REMARK    3  A    between atoms: O1_3  and  C3_4 
REMARK    4  A    between atoms: C3_4  and  C4_6 
REMARK    5  A    between atoms: C4_6  and  C5_7 
ROOT
ATOM      1  C4  <0> d          -1.200  -0.720   0.010  0.00  0.00     0.031 C 
ATOM      2  H6  <0> d          -2.157  -0.188   0.117  0.00  0.00     0.098 H 
ENDROOT
BRANCH   1   3
ATOM      3  C3  <0> d           0.001  -0.003  -0.014  0.00  0.00     0.286 C 
ATOM      4  O2  <0> d           1.065  -0.597  -0.035  0.00  0.00    -0.260 OA
BRANCH   3   5
ATOM      5  O1  <0> d          -0.019   1.348  -0.014  0.00  0.00    -0.318 OA
BRANCH   5   6
ATOM      6  C2  <0> d           1.245   2.015  -0.038  0.00  0.00     0.026 C 
ATOM      7  H4  <0> d           1.793   1.728  -0.947  0.00  0.00     0.074 H 
ATOM      8  H5  <0> d           1.828   1.728   0.849  0.00  0.00     0.074 H 
BRANCH   6   9
ATOM      9  C1  <0> d           1.022   3.529  -0.034  0.00  0.00    -0.056 C 
ATOM     10  H1  <0> d           1.994   4.043  -0.053  0.00  0.00     0.030 H 
ATOM     11  H2  <0> d           0.473   3.817   0.875  0.00  0.00     0.030 H 
ATOM     12  H3  <0> d           0.438   3.816  -0.921  0.00  0.00     0.030 H 
ENDBRANCH   6   9
ENDBRANCH   5   6
ENDBRANCH   3   5
ENDBRANCH   1   3
BRANCH   1  13
ATOM     13  C5  <0> d          -1.185  -2.092  -0.102  0.00  0.00     0.102 A 
ATOM     14  N2  <0> d          -2.312  -2.852  -0.201  0.00  0.00    -0.375 N 
ATOM     15  C7  <0> d          -1.930  -4.268  -0.304  0.00  0.00     0.009 A 
ATOM     16  H12 <0> d          -3.375  -2.567  -0.213  0.00  0.00     0.161 HD
ATOM     17  C6  <0> d          -0.392  -4.255  -0.252  0.00  0.00     0.009 A 
ATOM     18  H10 <0> d          -2.261  -4.715  -1.253  0.00  0.00     0.066 H 
ATOM     19  H11 <0> d          -2.321  -4.861   0.536  0.00  0.00     0.066 H 
ATOM     20  N1  <0> d          -0.041  -2.833  -0.130  0.00  0.00    -0.375 N 
ATOM     21  H8  <0> d           0.054  -4.665  -1.170  0.00  0.00     0.066 H 
ATOM     22  H9  <0> d          -0.006  -4.803   0.620  0.00  0.00     0.066 H 
ATOM     23  H7  <0> d           1.015  -2.529  -0.078  0.00  0.00     0.161 HD
ENDBRANCH   1  13
TORSDOF 5
