REMARK  2 active torsions:
REMARK  status: ('A' for Active; 'I' for Inactive)
REMARK    1  A    between atoms: C1_1  and  C2_2 
REMARK    2  A    between atoms: C2_2  and  C3_3 
ROOT
ATOM      1  C3  <0> d           0.718  -0.497  -1.257  0.00  0.00    -0.037 C 
ATOM      2  H1  <0> d           1.709  -0.051  -1.335  0.00  0.00     0.042 H 
ATOM      3  C4  <0> d           0.812  -2.044  -1.263  0.00  0.00    -0.041 C 
ATOM      4  C5  <0> d           0.453  -2.453  -2.697  0.00  0.00     0.015 C 
ATOM      5  H2  <0> d          -0.497  -2.988  -2.722  0.00  0.00     0.072 H 
ATOM      6  C6  <0> d           1.567  -3.285  -3.353  0.00  0.00    -0.038 C 
ATOM      7  C7  <0> d           1.469  -2.806  -4.824  0.00  0.00     0.011 C 
ATOM      8  C8  <0> d           0.870  -1.418  -4.725  0.00  0.00     0.220 C 
ATOM      9  O1  <0> d           0.822  -0.616  -5.633  0.00  0.00    -0.273 OA
ATOM     10  N1  <0> d           0.377  -1.204  -3.483  0.00  0.00    -0.347 N 
ATOM     11  C9  <0> d          -0.125  -0.191  -2.525  0.00  0.00     0.002 C 
ATOM     12  H8  <0> d           1.826  -2.363  -1.020  0.00  0.00     0.036 H 
ATOM     13  H9  <0> d           0.100  -2.470  -0.557  0.00  0.00     0.036 H 
ATOM     14  H10 <0> d           2.541  -3.043  -2.926  0.00  0.00     0.036 H 
ATOM     15  H11 <0> d           1.360  -4.352  -3.272  0.00  0.00     0.036 H 
ATOM     16  H12 <0> d           2.459  -2.763  -5.278  0.00  0.00     0.047 H 
ATOM     17  H13 <0> d           0.815  -3.464  -5.396  0.00  0.00     0.047 H 
ATOM     18  H14 <0> d          -1.188  -0.337  -2.330  0.00  0.00     0.065 H 
ATOM     19  H15 <0> d           0.069   0.819  -2.886  0.00  0.00     0.065 H 
ENDROOT
BRANCH   1  20
ATOM     20  C2  <0> d           0.002  -0.004   0.002  0.00  0.00    -0.064 C 
ATOM     21  H6  <0> d           0.529  -0.365   0.885  0.00  0.00     0.033 H 
ATOM     22  H7  <0> d          -1.020  -0.381   0.010  0.00  0.00     0.033 H 
BRANCH  20  23
ATOM     23  C1  <0> d          -0.019   1.526   0.010  0.00  0.00    -0.076 C 
ATOM     24  H3  <0> d           1.004   1.903   0.003  0.00  0.00     0.027 H 
ATOM     25  H4  <0> d          -0.546   1.887  -0.873  0.00  0.00     0.027 H 
ATOM     26  H5  <0> d          -0.529   1.877   0.907  0.00  0.00     0.027 H 
ENDBRANCH  20  23
ENDBRANCH   1  20
TORSDOF 2
