REMARK  1 active torsions:
REMARK  status: ('A' for Active; 'I' for Inactive)
REMARK    1  A    between atoms: C1_1  and  C2_2 
ROOT
ATOM      1  C2  <0> d           0.002  -0.004   0.002  0.00  0.00    -0.060 A 
ATOM      2  C3  <0> d           0.006  -0.686  -1.200  0.00  0.00    -0.075 A 
ATOM      3  C4  <0> d           0.024  -2.069  -1.216  0.00  0.00    -0.055 A 
ATOM      4  C5  <0> d           0.039  -2.773  -0.023  0.00  0.00     0.054 A 
ATOM      5  C6  <0> d           0.037  -2.085   1.190  0.00  0.00     0.055 A 
ATOM      6  C7  <0> d           0.023  -0.700   1.198  0.00  0.00    -0.050 A 
ATOM      7  N1  <0> d           0.057  -2.799   2.397  0.00  0.00    -0.387 N 
ATOM      8  C8  <0> d          -0.289  -4.228   2.381  0.00  0.00     0.007 C 
ATOM      9  C9  <0> d           0.440  -4.885   1.200  0.00  0.00     0.007 C 
ATOM     10  N2  <0> d           0.056  -4.176  -0.030  0.00  0.00    -0.387 N 
ATOM     11  H4  <0> d          -0.006  -0.138  -2.131  0.00  0.00     0.084 H 
ATOM     12  H5  <0> d           0.026  -2.599  -2.157  0.00  0.00     0.087 H 
ATOM     13  H6  <0> d           0.024  -0.164   2.135  0.00  0.00     0.087 H 
ATOM     14  H7  <0> d           0.295  -2.358   3.228  0.00  0.00     0.159 HD
ATOM     15  H8  <0> d           0.028  -4.694   3.314  0.00  0.00     0.066 H 
ATOM     16  H9  <0> d          -1.366  -4.344   2.259  0.00  0.00     0.066 H 
ATOM     17  H10 <0> d           1.517  -4.811   1.346  0.00  0.00     0.066 H 
ATOM     18  H11 <0> d           0.149  -5.933   1.126  0.00  0.00     0.066 H 
ATOM     19  H12 <0> d          -0.182  -4.669  -0.831  0.00  0.00     0.159 HD
ENDROOT
BRANCH   1  20
ATOM     20  C1  <0> d          -0.018   1.503   0.010  0.00  0.00    -0.051 C 
ATOM     21  H1  <0> d           1.004   1.880   0.003  0.00  0.00     0.033 H 
ATOM     22  H2  <0> d          -0.545   1.864  -0.873  0.00  0.00     0.033 H 
ATOM     23  H3  <0> d          -0.529   1.854   0.907  0.00  0.00     0.033 H 
ENDBRANCH   1  20
TORSDOF 1
