REMARK  3 active torsions:
REMARK  status: ('A' for Active; 'I' for Inactive)
REMARK    1  A    between atoms: C1_1  and  C2_2 
REMARK    2  A    between atoms: C2_2  and  C3_4 
REMARK    3  A    between atoms: C2_2  and  O1_9 
ROOT
ATOM      1  C3  <0> d           2.064   1.114   1.238  0.00  0.00    -0.029 C 
ATOM      2  C4  <0> d           2.153  -0.426   1.278  0.00  0.00    -0.059 C 
ATOM      3  C5  <0> d           2.025  -0.774   2.782  0.00  0.00    -0.065 C 
ATOM      4  C6  <0> d           0.978   0.252   3.283  0.00  0.00    -0.065 C 
ATOM      5  C7  <0> d           1.317   1.545   2.512  0.00  0.00    -0.059 C 
ATOM      6  H5  <0> d           3.064   1.546   1.227  0.00  0.00     0.043 H 
ATOM      7  H6  <0> d           1.334  -0.870   0.712  0.00  0.00     0.033 H 
ATOM      8  H7  <0> d           3.113  -0.762   0.889  0.00  0.00     0.033 H 
ATOM      9  H8  <0> d           2.977  -0.635   3.293  0.00  0.00     0.033 H 
ATOM     10  H9  <0> d           1.660  -1.793   2.912  0.00  0.00     0.033 H 
ATOM     11  H10 <0> d           1.081   0.409   4.356  0.00  0.00     0.033 H 
ATOM     12  H11 <0> d          -0.031  -0.083   3.041  0.00  0.00     0.033 H 
ATOM     13  H12 <0> d           1.955   2.185   3.121  0.00  0.00     0.033 H 
ATOM     14  H13 <0> d           0.401   2.073   2.248  0.00  0.00     0.033 H 
ENDROOT
BRANCH   1  15
ATOM     15  C2  <0> d           1.286   1.562  -0.002  0.00  0.00     0.035 C 
ATOM     16  H1  <0> d           1.186   2.647   0.005  0.00  0.00     0.082 H 
BRANCH  15  17
ATOM     17  C1  <0> d           2.040   1.127  -1.261  0.00  0.00    -0.052 C 
ATOM     18  H2  <0> d           1.486   1.446  -2.144  0.00  0.00     0.030 H 
ATOM     19  H3  <0> d           3.029   1.584  -1.268  0.00  0.00     0.030 H 
ATOM     20  H4  <0> d           2.140   0.042  -1.268  0.00  0.00     0.030 H 
ENDBRANCH  15  17
BRANCH  15  21
ATOM     21  O1  <0> d          -0.011   0.963   0.007  0.00  0.00    -0.396 OA
ATOM     22  H14 <0> d           0.002  -0.004   0.002  0.00  0.00     0.210 HD
ENDBRANCH  15  21
ENDBRANCH   1  15
TORSDOF 3
