REMARK  2 active torsions:
REMARK  status: ('A' for Active; 'I' for Inactive)
REMARK    1  A    between atoms: C1_1  and  C2_2 
REMARK    2  A    between atoms: C2_2  and  C6_8 
ROOT
ATOM      1  C2  <0> d          -0.019   1.526   0.010  0.00  0.00    -0.023 C 
ATOM      2  C3  <0> d          -0.841   2.075  -1.179  0.00  0.00     0.017 C 
ATOM      3  C4  <0> d          -1.546   3.287  -0.614  0.00  0.00     0.218 C 
ATOM      4  O1  <0> d          -2.066   4.160  -1.276  0.00  0.00    -0.274 OA
ATOM      5  N1  <0> d          -1.514   3.257   0.730  0.00  0.00    -0.360 N 
ATOM      6  C5  <0> d          -0.817   2.061   1.220  0.00  0.00     0.002 C 
ATOM      7  H4  <0> d          -0.181   2.364  -1.997  0.00  0.00     0.048 H 
ATOM      8  H5  <0> d          -1.564   1.333  -1.517  0.00  0.00     0.048 H 
ATOM      9  H6  <0> d          -1.901   3.938   1.302  0.00  0.00     0.162 HD
ATOM     10  H7  <0> d          -1.538   1.316   1.556  0.00  0.00     0.065 H 
ATOM     11  H8  <0> d          -0.139   2.325   2.032  0.00  0.00     0.065 H 
ENDROOT
BRANCH   1  12
ATOM     12  C1  <0> d           0.002  -0.004   0.002  0.00  0.00    -0.067 C 
ATOM     13  H1  <0> d           0.540  -0.365   0.879  0.00  0.00     0.028 H 
ATOM     14  H2  <0> d          -1.020  -0.381   0.022  0.00  0.00     0.028 H 
ATOM     15  H3  <0> d           0.501  -0.356  -0.901  0.00  0.00     0.028 H 
ENDBRANCH   1  12
BRANCH   1  16
ATOM     16  C6  <0> d           1.403   2.090  -0.000  0.00  0.00    -0.067 C 
ATOM     17  H9  <0> d           1.918   1.761  -0.903  0.00  0.00     0.028 H 
ATOM     18  H10 <0> d           1.363   3.179   0.019  0.00  0.00     0.028 H 
ATOM     19  H11 <0> d           1.943   1.731   0.876  0.00  0.00     0.028 H 
ENDBRANCH   1  16
TORSDOF 2
