REMARK  0 active torsions:
REMARK  status: ('A' for Active; 'I' for Inactive)
ROOT
ATOM      1  C1  <0> d          -2.659   2.449   2.018  0.00  0.00     0.029 A 
ATOM      2  C2  <0> d          -2.009   1.989   0.864  0.00  0.00    -0.015 A 
ATOM      3  C3  <0> d          -0.763   1.595   1.219  0.00  0.00     0.035 A 
ATOM      4  N1  <0> d          -0.627   1.797   2.549  0.00  0.00    -0.282 N 
ATOM      5  H1  <0> d           0.188   1.599   3.094  0.00  0.00     0.189 HD
ATOM      6  N2  <0> d          -1.828   2.333   3.029  0.00  0.00    -0.186 NA
ATOM      7  C4  <0> d          -0.013   1.086   0.008  0.00  0.00    -0.024 C 
ATOM      8  C5  <0> d          -0.802   1.619  -1.208  0.00  0.00    -0.056 C 
ATOM      9  C6  <0> d          -2.221   1.786  -0.621  0.00  0.00    -0.037 C 
ATOM     10  H2  <0> d          -3.667   2.832   2.067  0.00  0.00     0.118 H 
ATOM     11  H3  <0> d           0.002  -0.004   0.002  0.00  0.00     0.042 H 
ATOM     12  H4  <0> d           1.004   1.478   0.000  0.00  0.00     0.042 H 
ATOM     13  H5  <0> d          -0.404   2.577  -1.541  0.00  0.00     0.034 H 
ATOM     14  H6  <0> d          -0.801   0.893  -2.021  0.00  0.00     0.034 H 
ATOM     15  H7  <0> d          -2.711   2.656  -1.056  0.00  0.00     0.040 H 
ATOM     16  H8  <0> d          -2.814   0.889  -0.801  0.00  0.00     0.040 H 
ENDROOT
TORSDOF 0
