REMARK  5 active torsions:
REMARK  status: ('A' for Active; 'I' for Inactive)
REMARK    1  A    between atoms: C1_1  and  O1_2 
REMARK    2  A    between atoms: O1_2  and  C2_3 
REMARK    3  A    between atoms: C3_5  and  N4_11 
REMARK    4  A    between atoms: C4_7  and  O2_9 
REMARK    5  A    between atoms: O2_9  and  C5_10 
ROOT
ATOM      1  C2  <0> d           0.002  -0.004   0.002  0.00  0.00     0.288 A 
ATOM      2  N1  <0> d          -0.016   1.323   0.009  0.00  0.00    -0.019 NA
ATOM      3  C3  <0> d           1.127   2.003   0.002  0.00  0.00     0.727 A 
ATOM      4  N2  <0> d           2.286   1.353  -0.012  0.00  0.00    -0.019 NA
ATOM      5  C4  <0> d           2.302   0.025  -0.020  0.00  0.00     0.288 A 
ATOM      6  N3  <0> d           1.161  -0.653  -0.013  0.00  0.00    -0.163 NA
ENDROOT
BRANCH   1   7
ATOM      7  O1  <0> d          -1.161  -0.696   0.009  0.00  0.00    -0.324 OA
BRANCH   7   8
ATOM      8  C1  <0> d          -2.369   0.066   0.024  0.00  0.00     0.013 C 
ATOM      9  H1  <0> d          -2.411   0.699  -0.862  0.00  0.00     0.067 H 
ATOM     10  H2  <0> d          -3.225  -0.610   0.028  0.00  0.00     0.067 H 
ATOM     11  H3  <0> d          -2.394   0.690   0.918  0.00  0.00     0.067 H 
ENDBRANCH   7   8
ENDBRANCH   1   7
BRANCH   5  12
ATOM     12  O2  <0> d           3.482  -0.636  -0.035  0.00  0.00    -0.324 OA
BRANCH  12  13
ATOM     13  C5  <0> d           4.671   0.157  -0.042  0.00  0.00     0.013 C 
ATOM     14  H4  <0> d           4.680   0.790  -0.928  0.00  0.00     0.067 H 
ATOM     15  H5  <0> d           4.697   0.781   0.851  0.00  0.00     0.067 H 
ATOM     16  H6  <0> d           5.543  -0.497  -0.053  0.00  0.00     0.067 H 
ENDBRANCH  12  13
ENDBRANCH   5  12
BRANCH   3  17
ATOM     17  N4  <0> d           1.109   3.383   0.010  0.00  0.00    -0.231 N 
ATOM     18  H7  <0> d           0.263   3.857   0.021  0.00  0.00     0.174 HD
ATOM     19  H8  <0> d           1.943   3.879   0.005  0.00  0.00     0.174 HD
ENDBRANCH   3  17
TORSDOF 5
