REMARK  8 active torsions:
REMARK  status: ('A' for Active; 'I' for Inactive)
REMARK    1  A    between atoms: C1_1  and  C2_2 
REMARK    2  A    between atoms: C2_2  and  C3_3 
REMARK    3  A    between atoms: C3_3  and  C4_5 
REMARK    4  A    between atoms: C3_3  and  C5_6 
REMARK    5  A    between atoms: C5_6  and  C6_7 
REMARK    6  A    between atoms: C6_7  and  O2_9 
REMARK    7  A    between atoms: O2_9  and  C7_10 
REMARK    8  A    between atoms: C7_10  and  C8_11 
ROOT
ATOM      1  C3  <0> d          -0.729   1.579   1.267  0.00  0.00    -0.050 C 
ATOM      2  H1  <0> d          -0.822   2.665   1.230  0.00  0.00     0.040 H 
ENDROOT
BRANCH   1   3
ATOM      3  C2  <0> d          -0.013   1.086   0.008  0.00  0.00    -0.065 C 
ATOM      4  H5  <0> d           0.002  -0.004   0.002  0.00  0.00     0.033 H 
ATOM      5  H6  <0> d           1.010   1.463   0.000  0.00  0.00     0.033 H 
BRANCH   3   6
ATOM      6  C1  <0> d          -0.753   1.593  -1.232  0.00  0.00    -0.076 C 
ATOM      7  H2  <0> d          -0.242   1.241  -2.128  0.00  0.00     0.027 H 
ATOM      8  H3  <0> d          -1.775   1.215  -1.224  0.00  0.00     0.027 H 
ATOM      9  H4  <0> d          -0.767   2.683  -1.226  0.00  0.00     0.027 H 
ENDBRANCH   3   6
ENDBRANCH   1   3
BRANCH   1  10
ATOM     10  C4  <0> d          -2.121   0.950   1.341  0.00  0.00    -0.072 C 
ATOM     11  H7  <0> d          -2.632   1.301   2.238  0.00  0.00     0.028 H 
ATOM     12  H8  <0> d          -2.697   1.235   0.460  0.00  0.00     0.028 H 
ATOM     13  H9  <0> d          -2.028  -0.136   1.378  0.00  0.00     0.028 H 
ENDBRANCH   1  10
BRANCH   1  14
ATOM     14  C5  <0> d           0.079   1.179   2.503  0.00  0.00     0.019 C 
ATOM     15  H10 <0> d           0.097   0.092   2.589  0.00  0.00     0.048 H 
ATOM     16  H11 <0> d           1.098   1.553   2.408  0.00  0.00     0.048 H 
BRANCH  14  17
ATOM     17  C6  <0> d          -0.560   1.769   3.733  0.00  0.00     0.259 C 
ATOM     18  O1  <0> d          -1.559   2.441   3.632  0.00  0.00    -0.265 OA
BRANCH  17  19
ATOM     19  O2  <0> d          -0.020   1.548   4.942  0.00  0.00    -0.322 OA
BRANCH  19  20
ATOM     20  C7  <0> d          -0.689   2.148   6.083  0.00  0.00     0.025 C 
ATOM     21  H12 <0> d          -0.709   3.231   5.965  0.00  0.00     0.074 H 
ATOM     22  H13 <0> d          -1.710   1.770   6.145  0.00  0.00     0.074 H 
BRANCH  20  23
ATOM     23  C8  <0> d           0.066   1.788   7.364  0.00  0.00    -0.056 C 
ATOM     24  H14 <0> d           0.086   0.705   7.482  0.00  0.00     0.030 H 
ATOM     25  H15 <0> d           1.087   2.165   7.302  0.00  0.00     0.030 H 
ATOM     26  H16 <0> d          -0.436   2.238   8.220  0.00  0.00     0.030 H 
ENDBRANCH  20  23
ENDBRANCH  19  20
ENDBRANCH  17  19
ENDBRANCH  14  17
ENDBRANCH   1  14
TORSDOF 8
