REMARK  3 active torsions:
REMARK  status: ('A' for Active; 'I' for Inactive)
REMARK    1  A    between atoms: C1_1  and  C2_2 
REMARK    2  A    between atoms: C1_1  and  O2_4 
REMARK    3  A    between atoms: C1_1  and  O3_5 
ROOT
ATOM      1  C1  <0> d           1.286   1.562  -0.002  0.00  0.00     0.212 C 
ATOM      2  H1  <0> d           1.823   1.252  -0.899  0.00  0.00     0.146 H 
ENDROOT
BRANCH   1   3
ATOM      3  C2  <0> d           1.147   3.062   0.008  0.00  0.00     0.230 C 
ATOM      4  O1  <0> d           0.143   3.578  -0.422  0.00  0.00    -0.644 OA
ATOM      5  O4  <0> d           2.139   3.825   0.493  0.00  0.00    -0.644 OA
ENDBRANCH   1   3
BRANCH   1   6
ATOM      6  O2  <0> d          -0.011   0.963   0.007  0.00  0.00    -0.363 OA
ATOM      7  H2  <0> d           0.002  -0.004   0.002  0.00  0.00     0.213 HD
ENDBRANCH   1   6
BRANCH   1   8
ATOM      8  O3  <0> d           2.012   1.143   1.156  0.00  0.00    -0.363 OA
ATOM      9  H3  <0> d           1.592   1.386   1.992  0.00  0.00     0.213 HD
ENDBRANCH   1   8
TORSDOF 3
