REMARK  4 active torsions:
REMARK  status: ('A' for Active; 'I' for Inactive)
REMARK    1  A    between atoms: C1_1  and  N1_2 
REMARK       I    between atoms: N1_2  and  C2_3 
REMARK    2  A    between atoms: C2_3  and  C3_5 
REMARK    3  A    between atoms: C4_6  and  N4_11 
REMARK    4  A    between atoms: N2_8  and  C6_10 
ROOT
ATOM      1  C3  <0> d          -1.214   3.593   0.027  0.00  0.00     0.172 A 
ATOM      2  C4  <0> d          -2.366   4.421   0.037  0.00  0.00     0.079 A 
ATOM      3  C5  <0> d          -1.895   5.696   0.042  0.00  0.00     0.026 A 
ATOM      4  N2  <0> d          -0.539   5.620   0.035  0.00  0.00    -0.282 N 
ATOM      5  N3  <0> d          -0.164   4.392   0.033  0.00  0.00    -0.165 NA
ATOM      6  H5  <0> d          -2.488   6.599   0.050  0.00  0.00     0.117 H 
ENDROOT
BRANCH   1   7
ATOM      7  C2  <0> d          -1.194   2.119   0.019  0.00  0.00     0.274 C 
ATOM      8  N1  <0> d          -0.018   1.461   0.010  0.00  0.00    -0.360 N 
ATOM      9  H4  <0> d           0.816   1.957   0.005  0.00  0.00     0.162 HD
ATOM     10  O1  <0> d          -2.239   1.496   0.021  0.00  0.00    -0.266 OA
BRANCH   8  11
ATOM     11  C1  <0> d           0.002  -0.004   0.002  0.00  0.00    -0.018 C 
ATOM     12  H1  <0> d           1.034  -0.353  -0.010  0.00  0.00     0.056 H 
ATOM     13  H2  <0> d          -0.498  -0.379   0.895  0.00  0.00     0.056 H 
ATOM     14  H3  <0> d          -0.515  -0.370  -0.885  0.00  0.00     0.056 H 
ENDBRANCH   8  11
ENDBRANCH   1   7
BRANCH   2  15
ATOM     15  N4  <0> d          -3.707   4.010   0.041  0.00  0.00    -0.396 N 
ATOM     16  H9  <0> d          -3.925   3.065   0.037  0.00  0.00     0.156 HD
ATOM     17  H10 <0> d          -4.417   4.671   0.048  0.00  0.00     0.156 HD
ENDBRANCH   2  15
BRANCH   4  18
ATOM     18  C6  <0> d           0.365   6.773   0.036  0.00  0.00     0.002 C 
ATOM     19  H6  <0> d           0.594   7.054   1.064  0.00  0.00     0.059 H 
ATOM     20  H7  <0> d           1.287   6.512  -0.483  0.00  0.00     0.059 H 
ATOM     21  H8  <0> d          -0.113   7.611  -0.471  0.00  0.00     0.059 H 
ENDBRANCH   4  18
TORSDOF 4
