REMARK  2 active torsions:
REMARK  status: ('A' for Active; 'I' for Inactive)
REMARK    1  A    between atoms: C1_1  and  C2_2 
REMARK    2  A    between atoms: C7_7  and  N1_8 
ROOT
ATOM      1  C2  <0> d           1.161   3.175   0.008  0.00  0.00    -0.033 A 
ATOM      2  C3  <0> d          -0.045   3.850   0.023  0.00  0.00    -0.040 A 
ATOM      3  C4  <0> d          -1.237   3.145   0.030  0.00  0.00     0.105 A 
ATOM      4  C5  <0> d          -1.221   1.752   0.017  0.00  0.00     0.107 A 
ATOM      5  C6  <0> d          -0.013   1.076   0.008  0.00  0.00    -0.022 A 
ATOM      6  C7  <0> d           1.180   1.787   0.000  0.00  0.00     0.034 A 
ATOM      7  O1  <0> d          -2.509   1.301   0.033  0.00  0.00    -0.323 OA
ATOM      8  C8  <0> d          -3.306   2.421   0.459  0.00  0.00     0.115 C 
ATOM      9  O2  <0> d          -2.537   3.566   0.045  0.00  0.00    -0.323 OA
ATOM     10  H4  <0> d          -0.058   4.930   0.028  0.00  0.00     0.088 H 
ATOM     11  H5  <0> d           0.002  -0.004   0.002  0.00  0.00     0.091 H 
ATOM     12  H8  <0> d          -3.430   2.414   1.542  0.00  0.00     0.118 H 
ATOM     13  H9  <0> d          -4.276   2.412  -0.038  0.00  0.00     0.118 H 
ENDROOT
BRANCH   1  14
ATOM     14  C1  <0> d           2.456   3.946  -0.000  0.00  0.00    -0.049 C 
ATOM     15  H1  <0> d           2.758   4.137  -1.030  0.00  0.00     0.033 H 
ATOM     16  H2  <0> d           2.317   4.894   0.520  0.00  0.00     0.033 H 
ATOM     17  H3  <0> d           3.228   3.364   0.503  0.00  0.00     0.033 H 
ENDBRANCH   1  14
BRANCH   6  18
ATOM     18  N1  <0> d           2.401   1.104  -0.015  0.00  0.00    -0.399 N 
ATOM     19  H6  <0> d           2.415   0.134  -0.021  0.00  0.00     0.156 HD
ATOM     20  H7  <0> d           3.235   1.601  -0.021  0.00  0.00     0.156 HD
ENDBRANCH   6  18
TORSDOF 2
