REMARK  3 active torsions:
REMARK  status: ('A' for Active; 'I' for Inactive)
REMARK    1  A    between atoms: C1_1  and  C2_2 
REMARK    2  A    between atoms: C2_2  and  O1_3 
REMARK    3  A    between atoms: O1_3  and  C3_4 
ROOT
ATOM      1  C3  <0> d           1.101   2.025   0.002  0.00  0.00     0.165 A 
ATOM      2  C4  <0> d           2.339   1.396  -0.013  0.00  0.00    -0.032 A 
ATOM      3  C5  <0> d           2.392   0.013  -0.021  0.00  0.00    -0.076 A 
ATOM      4  C6  <0> d           1.199  -0.696  -0.013  0.00  0.00    -0.044 A 
ATOM      5  C7  <0> d           0.002  -0.004   0.002  0.00  0.00     0.128 A 
ATOM      6  N1  <0> d          -0.016   1.316   0.009  0.00  0.00    -0.213 NA
ATOM      7 Cl1  <0> d          -1.496  -0.882   0.012  0.00  0.00    -0.062 Cl
ATOM      8  H6  <0> d           3.248   1.978  -0.019  0.00  0.00     0.090 H 
ATOM      9  H7  <0> d           3.341  -0.503  -0.033  0.00  0.00     0.083 H 
ATOM     10  H8  <0> d           1.205  -1.776  -0.019  0.00  0.00     0.088 H 
ENDROOT
BRANCH   1  11
ATOM     11  O1  <0> d           1.036   3.380   0.010  0.00  0.00    -0.335 OA
BRANCH  11  12
ATOM     12  C2  <0> d          -0.267   3.968   0.025  0.00  0.00     0.024 C 
ATOM     13  H4  <0> d          -0.817   3.653  -0.862  0.00  0.00     0.074 H 
ATOM     14  H5  <0> d          -0.801   3.644   0.918  0.00  0.00     0.074 H 
BRANCH  12  15
ATOM     15  C1  <0> d          -0.139   5.492   0.032  0.00  0.00    -0.056 C 
ATOM     16  H1  <0> d           0.412   5.807   0.918  0.00  0.00     0.030 H 
ATOM     17  H2  <0> d           0.396   5.816  -0.862  0.00  0.00     0.030 H 
ATOM     18  H3  <0> d          -1.132   5.940   0.043  0.00  0.00     0.030 H 
ENDBRANCH  12  15
ENDBRANCH  11  12
ENDBRANCH   1  11
TORSDOF 3
