REMARK  0 active torsions:
REMARK  status: ('A' for Active; 'I' for Inactive)
ROOT
ATOM      1  C1  <0> d          -0.753   3.174  -0.825  0.00  0.00    -0.050 C 
ATOM      2  C2  <0> d          -1.269   1.955   0.018  0.00  0.00    -0.024 C 
ATOM      3  H1  <0> d          -2.194   1.479  -0.306  0.00  0.00     0.047 H 
ATOM      4  C3  <0> d          -0.013   1.076   0.008  0.00  0.00    -0.101 C 
ATOM      5  C4  <0> d           1.046   1.861   0.002  0.00  0.00    -0.100 C 
ATOM      6  C5  <0> d           0.568   3.318   0.016  0.00  0.00    -0.017 C 
ATOM      7  H2  <0> d           1.290   4.067  -0.309  0.00  0.00     0.049 H 
ATOM      8  C6  <0> d          -0.027   3.505   1.449  0.00  0.00     0.031 A 
ATOM      9  H3  <0> d          -0.169   4.541   1.755  0.00  0.00     0.074 H 
ATOM     10  C7  <0> d          -1.274   2.590   1.450  0.00  0.00     0.050 A 
ATOM     11  H4  <0> d          -2.220   3.004   1.800  0.00  0.00     0.059 H 
ATOM     12  C8  <0> d          -0.451   1.813   2.440  0.00  0.00     0.224 A 
ATOM     13  O1  <0> d          -0.674   0.785   3.045  0.00  0.00    -0.273 OA
ATOM     14  N1  <0> d           0.616   2.632   2.434  0.00  0.00    -0.355 N 
ATOM     15  H5  <0> d          -1.400   4.047  -0.738  0.00  0.00     0.035 H 
ATOM     16  H6  <0> d          -0.559   2.908  -1.864  0.00  0.00     0.035 H 
ATOM     17  H7  <0> d           0.002  -0.004   0.002  0.00  0.00     0.077 H 
ATOM     18  H8  <0> d           2.075   1.533  -0.011  0.00  0.00     0.077 H 
ATOM     19  H9  <0> d           1.468   2.642   2.896  0.00  0.00     0.162 HD
ENDROOT
TORSDOF 0
