REMARK  2 active torsions:
REMARK  status: ('A' for Active; 'I' for Inactive)
REMARK    1  A    between atoms: C1_1  and  C2_2 
REMARK    2  A    between atoms: C4_6  and  C6_10 
ROOT
ATOM      1  C2  <0> d           0.002  -0.004   0.002  0.00  0.00     0.055 C 
ATOM      2  H1  <0> d           0.512  -0.356  -0.894  0.00  0.00     0.086 H 
ATOM      3  C3  <0> d          -1.434  -0.535   0.016  0.00  0.00     0.044 C 
ATOM      4  O1  <0> d          -1.406  -1.962   0.121  0.00  0.00    -0.382 OA
ATOM      5  C4  <0> d          -0.718  -2.437   1.282  0.00  0.00     0.055 C 
ATOM      6  H2  <0> d          -0.703  -3.527   1.276  0.00  0.00     0.086 H 
ATOM      7  C5  <0> d           0.718  -1.906   1.268  0.00  0.00     0.044 C 
ATOM      8  O2  <0> d           0.691  -0.479   1.162  0.00  0.00    -0.382 OA
ATOM      9  H6  <0> d          -1.969  -0.118   0.870  0.00  0.00     0.078 H 
ATOM     10  H7  <0> d          -1.938  -0.248  -0.907  0.00  0.00     0.078 H 
ATOM     11  H8  <0> d           1.222  -2.193   2.191  0.00  0.00     0.078 H 
ATOM     12  H9  <0> d           1.253  -2.323   0.414  0.00  0.00     0.078 H 
ENDROOT
BRANCH   1  13
ATOM     13  C1  <0> d          -0.019   1.526   0.010  0.00  0.00    -0.050 C 
ATOM     14  H3  <0> d           1.004   1.903   0.003  0.00  0.00     0.031 H 
ATOM     15  H4  <0> d          -0.546   1.887  -0.873  0.00  0.00     0.031 H 
ATOM     16  H5  <0> d          -0.529   1.877   0.907  0.00  0.00     0.031 H 
ENDBRANCH   1  13
BRANCH   5  17
ATOM     17  C6  <0> d          -1.435  -1.943   2.540  0.00  0.00    -0.050 C 
ATOM     18  H10 <0> d          -2.459  -2.317   2.545  0.00  0.00     0.031 H 
ATOM     19  H11 <0> d          -0.911  -2.305   3.424  0.00  0.00     0.031 H 
ATOM     20  H12 <0> d          -1.448  -0.853   2.546  0.00  0.00     0.031 H 
ENDBRANCH   5  17
TORSDOF 2
