REMARK  1 active torsions:
REMARK  status: ('A' for Active; 'I' for Inactive)
REMARK    1  A    between atoms: C3_3  and  O2_11 
ROOT
ATOM      1  C1  <0> d           3.699   0.020  -3.023  0.00  0.00    -0.078 A 
ATOM      2  C2  <0> d           4.156   1.205  -2.478  0.00  0.00    -0.050 A 
ATOM      3  C3  <0> d           3.412   1.849  -1.502  0.00  0.00     0.074 A 
ATOM      4  C4  <0> d           2.207   1.307  -1.070  0.00  0.00     0.008 A 
ATOM      5  C5  <0> d           1.750   0.123  -1.619  0.00  0.00     0.077 A 
ATOM      6  C6  <0> d           2.503  -0.520  -2.598  0.00  0.00    -0.050 A 
ATOM      7  O1  <0> d           0.576  -0.440  -1.231  0.00  0.00    -0.350 OA
ATOM      8  C7  <0> d           0.002  -0.004   0.002  0.00  0.00     0.026 C 
ATOM      9  C8  <0> d          -0.019   1.530   0.011  0.00  0.00    -0.041 C 
ATOM     10  C9  <0> d           1.428   2.030  -0.001  0.00  0.00    -0.034 C 
ATOM     11  H1  <0> d           4.279  -0.484  -3.783  0.00  0.00     0.083 H 
ATOM     12  H2  <0> d           5.092   1.629  -2.812  0.00  0.00     0.087 H 
ATOM     13  H3  <0> d           2.148  -1.446  -3.027  0.00  0.00     0.087 H 
ATOM     14  H4  <0> d          -1.022  -0.395   0.088  0.00  0.00     0.075 H 
ATOM     15  H5  <0> d           0.608  -0.377   0.841  0.00  0.00     0.075 H 
ATOM     16  H6  <0> d          -0.551   1.894  -0.881  0.00  0.00     0.036 H 
ATOM     17  H7  <0> d          -0.533   1.885   0.915  0.00  0.00     0.036 H 
ATOM     18  H8  <0> d           1.888   1.839   0.980  0.00  0.00     0.040 H 
ATOM     19  H9  <0> d           1.439   3.110  -0.206  0.00  0.00     0.040 H 
ENDROOT
BRANCH   3  20
ATOM     20  O2  <0> d           3.861   3.014  -0.967  0.00  0.00    -0.360 OA
ATOM     21  H10 <0> d           3.271   3.527  -0.192  0.00  0.00     0.217 HD
ENDBRANCH   3  20
TORSDOF 1
