REMARK  2 active torsions:
REMARK  status: ('A' for Active; 'I' for Inactive)
REMARK    1  A    between atoms: C1_1  and  N1_2 
REMARK    2  A    between atoms: C3_5  and  N4_7 
ROOT
ATOM      1  N1  <0> d           0.534   3.510   0.016  0.00  0.00    -0.191 N 
ATOM      2  N2  <0> d          -0.752   3.465   0.028  0.00  0.00    -0.164 NA
ATOM      3  C2  <0> d          -1.150   2.217   0.019  0.00  0.00     0.069 A 
ATOM      4  C3  <0> d          -0.017   1.396   0.010  0.00  0.00     0.162 A 
ATOM      5  N3  <0> d           1.029   2.199   0.004  0.00  0.00    -0.136 NA
ATOM      6  H4  <0> d          -2.176   1.880   0.021  0.00  0.00     0.123 H 
ENDROOT
BRANCH   1   7
ATOM      7  C1  <0> d           1.346   4.730   0.015  0.00  0.00     0.020 C 
ATOM      8  H1  <0> d           1.538   5.038  -1.013  0.00  0.00     0.062 H 
ATOM      9  H2  <0> d           0.811   5.523   0.538  0.00  0.00     0.062 H 
ATOM     10  H3  <0> d           2.293   4.536   0.519  0.00  0.00     0.062 H 
ENDBRANCH   1   7
BRANCH   4  11
ATOM     11  N4  <0> d           0.002  -0.004   0.002  0.00  0.00    -0.381 N 
ATOM     12  H5  <0> d           0.849  -0.478  -0.008  0.00  0.00     0.157 HD
ATOM     13  H6  <0> d          -0.831  -0.500   0.007  0.00  0.00     0.157 HD
ENDBRANCH   4  11
TORSDOF 2
