REMARK  1 active torsions:
REMARK  status: ('A' for Active; 'I' for Inactive)
REMARK    1  A    between atoms: C1_1  and  C2_2 
ROOT
ATOM      1  C2  <0> d           0.002  -0.004   0.002  0.00  0.00    -0.042 C 
ATOM      2  H1  <0> d           0.512  -0.356  -0.895  0.00  0.00     0.041 H 
ATOM      3  C3  <0> d          -1.433  -0.534   0.013  0.00  0.00    -0.061 C 
ATOM      4  C4  <0> d          -1.413  -2.063   0.004  0.00  0.00    -0.065 C 
ATOM      5  C5  <0> d          -0.673  -2.570   1.244  0.00  0.00    -0.064 C 
ATOM      6  C6  <0> d           0.763  -2.041   1.233  0.00  0.00    -0.050 C 
ATOM      7  C7  <0> d           0.742  -0.511   1.242  0.00  0.00     0.033 C 
ATOM      8  H2  <0> d           1.765  -0.134   1.234  0.00  0.00     0.063 H 
ATOM      9  C8  <0> d           0.053  -0.036   2.453  0.00  0.00     0.064 C 
ATOM     10  N1  <0> d          -0.479   0.330   3.387  0.00  0.00    -0.197 NA
ATOM     11  H6  <0> d          -1.944  -0.182   0.910  0.00  0.00     0.033 H 
ATOM     12  H7  <0> d          -1.960  -0.173  -0.870  0.00  0.00     0.033 H 
ATOM     13  H8  <0> d          -2.435  -2.441   0.012  0.00  0.00     0.033 H 
ATOM     14  H9  <0> d          -0.902  -2.415  -0.892  0.00  0.00     0.033 H 
ATOM     15  H10 <0> d          -1.183  -2.219   2.141  0.00  0.00     0.033 H 
ATOM     16  H11 <0> d          -0.658  -3.660   1.238  0.00  0.00     0.033 H 
ATOM     17  H12 <0> d           1.290  -2.402   2.116  0.00  0.00     0.035 H 
ATOM     18  H13 <0> d           1.273  -2.392   0.336  0.00  0.00     0.035 H 
ENDROOT
BRANCH   1  19
ATOM     19  C1  <0> d          -0.019   1.526   0.010  0.00  0.00    -0.072 C 
ATOM     20  H3  <0> d           1.004   1.903   0.003  0.00  0.00     0.028 H 
ATOM     21  H4  <0> d          -0.546   1.887  -0.873  0.00  0.00     0.028 H 
ATOM     22  H5  <0> d          -0.529   1.877   0.907  0.00  0.00     0.028 H 
ENDBRANCH   1  19
TORSDOF 1
