REMARK  0 active torsions:
REMARK  status: ('A' for Active; 'I' for Inactive)
ROOT
ATOM      1  C1  <0> d          -0.016   1.329   0.009  0.00  0.00     0.020 A 
ATOM      2  C2  <0> d           1.262   1.779  -0.000  0.00  0.00     0.003 A 
ATOM      3  N1  <0> d           2.072   0.686  -0.014  0.00  0.00    -0.312 N 
ATOM      4  C3  <0> d           3.428   0.515  -0.028  0.00  0.00     0.025 A 
ATOM      5  C4  <0> d           3.946  -0.733  -0.039  0.00  0.00     0.141 A 
ATOM      6  N2  <0> d           3.157  -1.810  -0.037  0.00  0.00    -0.243 NA
ATOM      7  C5  <0> d           1.851  -1.699  -0.024  0.00  0.00     0.048 A 
ATOM      8  C6  <0> d           1.258  -0.421  -0.012  0.00  0.00     0.151 A 
ATOM      9  N3  <0> d           0.002  -0.004   0.002  0.00  0.00    -0.240 NA
ATOM     10 Cl1  <0> d           5.670  -0.939  -0.056  0.00  0.00    -0.061 Cl
ATOM     11  H1  <0> d          -0.901   1.947   0.025  0.00  0.00     0.117 H 
ATOM     12  H2  <0> d           1.578   2.811   0.002  0.00  0.00     0.114 H 
ATOM     13  H3  <0> d           4.083   1.374  -0.029  0.00  0.00     0.117 H 
ATOM     14  H4  <0> d           1.231  -2.584  -0.024  0.00  0.00     0.120 H 
ENDROOT
TORSDOF 0
