REMARK  0 active torsions:
REMARK  status: ('A' for Active; 'I' for Inactive)
ROOT
ATOM      1  C1  <0> d          -0.708   3.602   0.028  0.00  0.00     0.017 A 
ATOM      2  C2  <0> d          -1.017   2.287   0.029  0.00  0.00     0.003 A 
ATOM      3  N1  <0> d          -0.016   1.356   0.009  0.00  0.00    -0.314 N 
ATOM      4  C3  <0> d           0.002  -0.004   0.002  0.00  0.00     0.003 A 
ATOM      5  C4  <0> d           1.302  -0.386  -0.012  0.00  0.00     0.020 A 
ATOM      6  N2  <0> d           2.066   0.706  -0.014  0.00  0.00    -0.240 NA
ATOM      7  C5  <0> d           1.291   1.778  -0.001  0.00  0.00     0.150 A 
ATOM      8  C6  <0> d           1.557   3.162   0.004  0.00  0.00     0.046 A 
ATOM      9  N3  <0> d           0.561   4.015   0.018  0.00  0.00    -0.268 NA
ATOM     10  H1  <0> d          -1.504   4.332   0.039  0.00  0.00     0.116 H 
ATOM     11  H2  <0> d          -2.050   1.973   0.042  0.00  0.00     0.114 H 
ATOM     12  H3  <0> d          -0.858  -0.657   0.007  0.00  0.00     0.114 H 
ATOM     13  H4  <0> d           1.659  -1.405  -0.021  0.00  0.00     0.117 H 
ATOM     14  H5  <0> d           2.576   3.519  -0.003  0.00  0.00     0.120 H 
ENDROOT
TORSDOF 0
