REMARK  2 active torsions:
REMARK  status: ('A' for Active; 'I' for Inactive)
REMARK    1  A    between atoms: C1_1  and  C2_2 
REMARK    2  A    between atoms: C5_6  and  C7_8 
ROOT
ATOM      1  C7  <0> d           0.053  -2.865   2.356  0.00  0.00    -0.058 C 
ATOM      2  C8  <0> d           0.067  -3.483   3.355  0.00  0.00    -0.147 C 
ATOM      3  H7  <0> d           0.079  -4.035   4.248  0.00  0.00     0.167 H 
ENDROOT
BRANCH   1   4
ATOM      4  C5  <0> d           0.037  -2.112   1.139  0.00  0.00     0.109 A 
ATOM      5  N1  <0> d           0.040  -2.746  -0.028  0.00  0.00    -0.252 NA
ATOM      6  C4  <0> d           0.025  -2.089  -1.171  0.00  0.00     0.004 A 
ATOM      7  C3  <0> d           0.006  -0.707  -1.195  0.00  0.00    -0.060 A 
ATOM      8  H5  <0> d           0.028  -2.638  -2.100  0.00  0.00     0.114 H 
ATOM      9  C2  <0> d           0.002  -0.004   0.002  0.00  0.00    -0.058 A 
ATOM     10  H4  <0> d          -0.006  -0.179  -2.137  0.00  0.00     0.086 H 
ATOM     11  C6  <0> d           0.023  -0.718   1.187  0.00  0.00    -0.041 A 
ATOM     12  H6  <0> d           0.025  -0.203   2.136  0.00  0.00     0.088 H 
BRANCH   9  13
ATOM     13  C1  <0> d          -0.018   1.503   0.010  0.00  0.00    -0.051 C 
ATOM     14  H1  <0> d           1.004   1.880   0.003  0.00  0.00     0.033 H 
ATOM     15  H2  <0> d          -0.545   1.864  -0.873  0.00  0.00     0.033 H 
ATOM     16  H3  <0> d          -0.529   1.854   0.907  0.00  0.00     0.033 H 
ENDBRANCH   9  13
ENDBRANCH   1   4
TORSDOF 2
