REMARK  1 active torsions:
REMARK  status: ('A' for Active; 'I' for Inactive)
REMARK    1  A    between atoms: C1_1  and  N1_2 
ROOT
ATOM      1  N1  <0> d           3.385  -0.827  -0.035  0.00  0.00    -0.285 N 
ATOM      2  C2  <0> d           2.350   0.088  -0.020  0.00  0.00     0.183 A 
ATOM      3  C3  <0> d           1.154  -0.650  -0.013  0.00  0.00     0.200 A 
ATOM      4  N2  <0> d           1.514  -1.989  -0.023  0.00  0.00    -0.288 N 
ATOM      5  H1  <0> d           0.736  -2.767  -0.020  0.00  0.00     0.172 HD
ATOM      6  C4  <0> d           2.858  -2.066  -0.036  0.00  0.00     0.329 A 
ATOM      7  O1  <0> d           3.500  -3.099  -0.047  0.00  0.00    -0.246 OA
ATOM      8  N3  <0> d           0.002  -0.004   0.002  0.00  0.00    -0.127 NA
ATOM      9  N4  <0> d          -0.015   1.285   0.009  0.00  0.00    -0.141 NA
ATOM     10  C5  <0> d           1.096   1.995   0.002  0.00  0.00     0.110 A 
ATOM     11  N5  <0> d           2.283   1.411  -0.012  0.00  0.00    -0.218 NA
ATOM     12  H5  <0> d           1.036   3.073   0.009  0.00  0.00     0.149 H 
ENDROOT
BRANCH   1  13
ATOM     13  C1  <0> d           4.814  -0.503  -0.047  0.00  0.00    -0.008 C 
ATOM     14  H2  <0> d           4.943   0.589  -0.042  0.00  0.00     0.057 H 
ATOM     15  H3  <0> d           5.278  -0.923  -0.952  0.00  0.00     0.057 H 
ATOM     16  H4  <0> d           5.295  -0.933   0.845  0.00  0.00     0.057 H 
ENDBRANCH   1  13
TORSDOF 1
