REMARK  2 active torsions:
REMARK  status: ('A' for Active; 'I' for Inactive)
REMARK    1  A    between atoms: N1_4  and  C6_8 
REMARK    2  A    between atoms: C6_8  and  C7_9 
REMARK       I    between atoms: C7_9  and  N2_11 
ROOT
ATOM      1  C1  <0> d          -0.054   4.243   0.365  0.00  0.00    -0.056 C 
ATOM      2  C2  <0> d           1.075   3.608  -0.457  0.00  0.00    -0.050 C 
ATOM      3  C3  <0> d           1.260   2.161   0.002  0.00  0.00    -0.002 C 
ATOM      4  N1  <0> d          -0.018   1.461   0.010  0.00  0.00    -0.343 N 
ATOM      5  C4  <0> d          -1.204   2.070   0.019  0.00  0.00     0.220 C 
ATOM      6  O1  <0> d          -2.202   1.382   0.062  0.00  0.00    -0.273 OA
ATOM      7  C5  <0> d          -1.371   3.562  -0.014  0.00  0.00     0.009 C 
ATOM      8  H1  <0> d           0.141   4.099   1.428  0.00  0.00     0.033 H 
ATOM      9  H2  <0> d          -0.114   5.309   0.144  0.00  0.00     0.033 H 
ATOM     10  H3  <0> d           1.999   4.163  -0.299  0.00  0.00     0.035 H 
ATOM     11  H4  <0> d           0.811   3.626  -1.514  0.00  0.00     0.035 H 
ATOM     12  H5  <0> d           1.682   2.153   1.007  0.00  0.00     0.064 H 
ATOM     13  H6  <0> d           1.945   1.653  -0.677  0.00  0.00     0.064 H 
ATOM     14  H7  <0> d          -2.148   3.858   0.691  0.00  0.00     0.047 H 
ATOM     15  H8  <0> d          -1.659   3.866  -1.020  0.00  0.00     0.047 H 
ENDROOT
BRANCH   4  16
ATOM     16  C6  <0> d           0.002  -0.004   0.002  0.00  0.00     0.071 C 
ATOM     17  H9  <0> d          -0.888  -0.377  -0.505  0.00  0.00     0.079 H 
ATOM     18  H10 <0> d           0.892  -0.352  -0.522  0.00  0.00     0.079 H 
BRANCH  16  19
ATOM     19  C7  <0> d           0.022  -0.514   1.420  0.00  0.00     0.233 C 
ATOM     20  O2  <0> d           0.021   0.269   2.346  0.00  0.00    -0.272 OA
ATOM     21  N2  <0> d           0.043  -1.840   1.659  0.00  0.00    -0.369 N 
ATOM     22  H11 <0> d           0.044  -2.466   0.918  0.00  0.00     0.159 HD
ATOM     23  H12 <0> d           0.056  -2.168   2.572  0.00  0.00     0.159 HD
ENDBRANCH  16  19
ENDBRANCH   4  16
TORSDOF 2
