REMARK  6 active torsions:
REMARK  status: ('A' for Active; 'I' for Inactive)
REMARK    1  A    between atoms: C1_1  and  C2_2 
REMARK    2  A    between atoms: C2_2  and  C3_4 
REMARK    3  A    between atoms: C2_2  and  O1_8 
REMARK    4  A    between atoms: C3_4  and  C4_5 
REMARK    5  A    between atoms: C4_5  and  C5_6 
REMARK    6  A    between atoms: C4_5  and  C6_7 
ROOT
ATOM      1  C3  <0> d          -1.433  -0.534   0.013  0.00  0.00    -0.039 C 
ATOM      2  H5  <0> d          -1.970  -0.111   0.862  0.00  0.00     0.037 H 
ATOM      3  H6  <0> d          -1.933  -0.247  -0.912  0.00  0.00     0.037 H 
ENDROOT
BRANCH   1   4
ATOM      4  C2  <0> d           0.002  -0.004   0.002  0.00  0.00     0.032 C 
ATOM      5  H1  <0> d           0.529  -0.365   0.885  0.00  0.00     0.082 H 
BRANCH   4   6
ATOM      6  C1  <0> d          -0.019   1.526   0.010  0.00  0.00    -0.052 C 
ATOM      7  H2  <0> d           1.004   1.903   0.003  0.00  0.00     0.030 H 
ATOM      8  H3  <0> d          -0.546   1.887  -0.873  0.00  0.00     0.030 H 
ATOM      9  H4  <0> d          -0.529   1.877   0.907  0.00  0.00     0.030 H 
ENDBRANCH   4   6
BRANCH   4  10
ATOM     10  O1  <0> d           0.671  -0.465  -1.174  0.00  0.00    -0.396 OA
ATOM     11  H14 <0> d           1.588  -0.167  -1.247  0.00  0.00     0.210 HD
ENDBRANCH   4  10
ENDBRANCH   1   4
BRANCH   1  12
ATOM     12  C4  <0> d          -1.413  -2.059   0.130  0.00  0.00    -0.059 C 
ATOM     13  H7  <0> d          -0.802  -2.477  -0.669  0.00  0.00     0.039 H 
BRANCH  12  14
ATOM     14  C5  <0> d          -0.824  -2.459   1.484  0.00  0.00    -0.073 C 
ATOM     15  H8  <0> d          -0.810  -3.545   1.568  0.00  0.00     0.028 H 
ATOM     16  H9  <0> d           0.193  -2.075   1.566  0.00  0.00     0.028 H 
ATOM     17  H10 <0> d          -1.435  -2.041   2.284  0.00  0.00     0.028 H 
ENDBRANCH  12  14
BRANCH  12  18
ATOM     18  C6  <0> d          -2.841  -2.598   0.016  0.00  0.00    -0.073 C 
ATOM     19  H11 <0> d          -3.260  -2.313  -0.949  0.00  0.00     0.028 H 
ATOM     20  H12 <0> d          -2.826  -3.685   0.100  0.00  0.00     0.028 H 
ATOM     21  H13 <0> d          -3.452  -2.180   0.816  0.00  0.00     0.028 H 
ENDBRANCH  12  18
ENDBRANCH   1  12
TORSDOF 6
