REMARK  3 active torsions:
REMARK  status: ('A' for Active; 'I' for Inactive)
REMARK    1  A    between atoms: C1_1  and  C2_2 
REMARK    2  A    between atoms: C7_7  and  N1_8 
REMARK       I    between atoms: N1_8  and  C8_9 
REMARK    3  A    between atoms: C8_9  and  C9_11 
ROOT
ATOM      1  C2  <0> d           0.016  -0.014   0.002  0.00  0.00    -0.035 A 
ATOM      2  C3  <0> d           0.029  -0.704  -1.195  0.00  0.00    -0.075 A 
ATOM      3  C4  <0> d           0.051  -2.087  -1.197  0.00  0.00    -0.082 A 
ATOM      4  C5  <0> d           0.061  -2.783  -0.002  0.00  0.00    -0.081 A 
ATOM      5  C6  <0> d           0.049  -2.099   1.197  0.00  0.00    -0.057 A 
ATOM      6  C7  <0> d           0.032  -0.711   1.203  0.00  0.00     0.040 A 
ATOM      7  H4  <0> d           0.021  -0.163  -2.129  0.00  0.00     0.084 H 
ATOM      8  H5  <0> d           0.060  -2.624  -2.134  0.00  0.00     0.083 H 
ATOM      9  H6  <0> d           0.078  -3.863  -0.008  0.00  0.00     0.083 H 
ATOM     10  H7  <0> d           0.057  -2.644   2.130  0.00  0.00     0.086 H 
ENDROOT
BRANCH   6  11
ATOM     11  N1  <0> d           0.025  -0.015   2.417  0.00  0.00    -0.327 N 
ATOM     12  C8  <0> d          -0.631  -0.520   3.480  0.00  0.00     0.218 C 
ATOM     13  O1  <0> d          -1.147  -1.616   3.409  0.00  0.00    -0.274 OA
ATOM     14  H8  <0> d           0.493   0.832   2.493  0.00  0.00     0.169 HD
BRANCH  12  15
ATOM     15  C9  <0> d          -0.725   0.276   4.756  0.00  0.00    -0.003 C 
ATOM     16  H9  <0> d          -0.206   1.226   4.631  0.00  0.00     0.040 H 
ATOM     17  H10 <0> d          -1.772   0.462   4.993  0.00  0.00     0.040 H 
ATOM     18  H11 <0> d          -0.263  -0.285   5.569  0.00  0.00     0.040 H 
ENDBRANCH  12  15
ENDBRANCH   6  11
BRANCH   1  19
ATOM     19  C1  <0> d          -0.008   1.492   0.004  0.00  0.00    -0.049 C 
ATOM     20  H1  <0> d           1.014   1.872   0.000  0.00  0.00     0.033 H 
ATOM     21  H2  <0> d          -0.531   1.848  -0.884  0.00  0.00     0.033 H 
ATOM     22  H3  <0> d          -0.524   1.846   0.896  0.00  0.00     0.033 H 
ENDBRANCH   1  19
TORSDOF 3
