REMARK  3 active torsions:
REMARK  status: ('A' for Active; 'I' for Inactive)
REMARK    1  A    between atoms: C1_1  and  N1_2 
REMARK    2  A    between atoms: N1_2  and  C2_3 
REMARK    3  A    between atoms: C2_3  and  C4_7 
ROOT
ATOM      1  C2  <0> d          -0.795   1.527  -1.120  0.00  0.00     0.239 C 
ATOM      2  H1  <0> d          -0.125   1.669  -1.980  0.00  0.00     0.119 H 
ATOM      3  C3  <0> d          -1.380   2.827  -0.751  0.00  0.00     0.100 C 
ATOM      4  N2  <0> d          -1.831   3.830  -0.466  0.00  0.00    -0.195 NA
ENDROOT
BRANCH   1   5
ATOM      5  N1  <0> d          -0.012   1.005   0.008  0.00  0.00     0.101 N 
ATOM      6  H5  <0> d           0.031  -0.092  -0.070  0.00  0.00     0.317 HD
BRANCH   5   7
ATOM      7  C1  <0> d           1.353   1.550  -0.003  0.00  0.00     0.095 C 
ATOM      8  H2  <0> d           1.916   1.143   0.850  0.00  0.00     0.071 H 
ATOM      9  H3  <0> d           1.310   2.646   0.075  0.00  0.00     0.071 H 
ATOM     10  H4  <0> d           1.853   1.268  -0.941  0.00  0.00     0.071 H 
ENDBRANCH   5   7
ENDBRANCH   1   5
BRANCH   1  11
ATOM     11  C4  <0> d          -1.899   0.557  -1.456  0.00  0.00    -0.012 A 
ATOM     12  C9  <0> d          -2.219   0.305  -2.777  0.00  0.00    -0.074 A 
ATOM     13  C8  <0> d          -3.231  -0.584  -3.086  0.00  0.00    -0.082 A 
ATOM     14  H10 <0> d          -1.678   0.804  -3.568  0.00  0.00     0.084 H 
ATOM     15  C7  <0> d          -3.923  -1.222  -2.073  0.00  0.00    -0.083 A 
ATOM     16  H9  <0> d          -3.482  -0.780  -4.118  0.00  0.00     0.083 H 
ATOM     17  C6  <0> d          -3.603  -0.971  -0.752  0.00  0.00    -0.082 A 
ATOM     18  H8  <0> d          -4.715  -1.916  -2.314  0.00  0.00     0.083 H 
ATOM     19  C5  <0> d          -2.587  -0.085  -0.444  0.00  0.00    -0.074 A 
ATOM     20  H7  <0> d          -4.144  -1.469   0.039  0.00  0.00     0.083 H 
ATOM     21  H6  <0> d          -2.334   0.109   0.588  0.00  0.00     0.084 H 
ENDBRANCH   1  11
TORSDOF 3
