REMARK  2 active torsions:
REMARK  status: ('A' for Active; 'I' for Inactive)
REMARK    1  A    between atoms: C1_1  and  O1_2 
REMARK    2  A    between atoms: O1_2  and  C2_3 
ROOT
ATOM      1  C2  <0> d           0.604  -0.605  -1.052  0.00  0.00     0.184 A 
ATOM      2  C3  <0> d           0.657  -2.006  -1.120  0.00  0.00     0.097 A 
ATOM      3  C4  <0> d           1.283  -2.605  -2.219  0.00  0.00    -0.057 A 
ATOM      4  C5  <0> d           1.825  -1.786  -3.194  0.00  0.00    -0.064 A 
ATOM      5  C6  <0> d           1.733  -0.413  -3.056  0.00  0.00     0.005 A 
ATOM      6  N1  <0> d           1.133   0.131  -2.014  0.00  0.00    -0.236 NA
ATOM      7  C7  <0> d           0.080  -2.808  -0.083  0.00  0.00     0.104 C 
ATOM      8  N2  <0> d          -0.377  -3.444   0.740  0.00  0.00    -0.191 NA
ATOM      9  H4  <0> d           1.342  -3.680  -2.304  0.00  0.00     0.086 H 
ATOM     10  H5  <0> d           2.315  -2.215  -4.055  0.00  0.00     0.085 H 
ATOM     11  H6  <0> d           2.155   0.226  -3.818  0.00  0.00     0.114 H 
ENDROOT
BRANCH   1  12
ATOM     12  O1  <0> d           0.002  -0.004   0.002  0.00  0.00    -0.338 OA
BRANCH  12  13
ATOM     13  C1  <0> d          -0.017   1.425   0.010  0.00  0.00     0.012 C 
ATOM     14  H1  <0> d           1.005   1.802   0.002  0.00  0.00     0.067 H 
ATOM     15  H2  <0> d          -0.544   1.786  -0.873  0.00  0.00     0.067 H 
ATOM     16  H3  <0> d          -0.527   1.776   0.907  0.00  0.00     0.067 H 
ENDBRANCH  12  13
ENDBRANCH   1  12
TORSDOF 2
