REMARK  2 active torsions:
REMARK  status: ('A' for Active; 'I' for Inactive)
REMARK    1  A    between atoms: C2_2  and  C3_3 
REMARK    2  A    between atoms: C6_6  and  C9_9 
REMARK       I    between atoms: C9_9  and  N1_11 
ROOT
ATOM      1  C3  <0> d          -3.724   3.286   0.038  0.00  0.00    -0.037 A 
ATOM      2  C4  <0> d          -3.705   1.889   0.030  0.00  0.00    -0.072 A 
ATOM      3  C5  <0> d          -2.504   1.218   0.021  0.00  0.00    -0.067 A 
ATOM      4  C6  <0> d          -1.303   1.933   0.019  0.00  0.00     0.031 A 
ATOM      5  C7  <0> d          -1.322   3.330   0.032  0.00  0.00    -0.067 A 
ATOM      6  C8  <0> d          -2.523   4.001   0.037  0.00  0.00    -0.072 A 
ATOM      7  H4  <0> d          -4.633   1.337   0.031  0.00  0.00     0.084 H 
ATOM      8  H5  <0> d          -2.489   0.138   0.014  0.00  0.00     0.085 H 
ATOM      9  H6  <0> d          -0.395   3.882   0.035  0.00  0.00     0.085 H 
ATOM     10  H7  <0> d          -2.538   5.081   0.043  0.00  0.00     0.084 H 
ENDROOT
BRANCH   1  11
ATOM     11  C2  <0> d          -5.012   4.007   0.049  0.00  0.00    -0.082 C 
ATOM     12  C1  <0> d          -5.030   5.334   0.056  0.00  0.00    -0.120 C 
ATOM     13  H1  <0> d          -4.102   5.887   0.055  0.00  0.00     0.066 H 
ATOM     14  H2  <0> d          -5.973   5.861   0.064  0.00  0.00     0.066 H 
ATOM     15  H3  <0> d          -5.940   3.455   0.050  0.00  0.00     0.083 H 
ENDBRANCH   1  11
BRANCH   4  16
ATOM     16  C9  <0> d          -0.014   1.212   0.009  0.00  0.00     0.249 C 
ATOM     17  O1  <0> d           0.002  -0.004   0.002  0.00  0.00    -0.268 OA
ATOM     18  N1  <0> d           1.143   1.901   0.001  0.00  0.00    -0.366 N 
ATOM     19  H8  <0> d           1.990   1.428  -0.009  0.00  0.00     0.159 HD
ATOM     20  H9  <0> d           1.130   2.871   0.007  0.00  0.00     0.159 HD
ENDBRANCH   4  16
TORSDOF 2
