REMARK  0 active torsions:
REMARK  status: ('A' for Active; 'I' for Inactive)
ROOT
ATOM      1  C1  <0> d          -0.812   3.038   0.025  0.00  0.00    -0.055 A 
ATOM      2  C2  <0> d          -1.143   1.737   0.016  0.00  0.00    -0.022 A 
ATOM      3  N1  <0> d          -0.011   0.966   0.007  0.00  0.00    -0.365 N 
ATOM      4  H1  <0> d           0.002  -0.004   0.002  0.00  0.00     0.165 HD
ATOM      5  C3  <0> d           1.100   1.768   0.001  0.00  0.00     0.048 A 
ATOM      6  C4  <0> d           0.651   3.106   0.012  0.00  0.00     0.010 A 
ATOM      7  C5  <0> d           1.587   4.137   0.009  0.00  0.00     0.017 A 
ATOM      8  N2  <0> d           2.875   3.861  -0.004  0.00  0.00    -0.232 NA
ATOM      9  C6  <0> d           3.331   2.618  -0.014  0.00  0.00     0.211 A 
ATOM     10  C7  <0> d           2.473   1.537  -0.013  0.00  0.00    -0.001 A 
ATOM     11  F1  <0> d           4.665   2.404  -0.027  0.00  0.00    -0.184 F 
ATOM     12  H2  <0> d          -1.494   3.875   0.036  0.00  0.00     0.087 H 
ATOM     13  H3  <0> d          -2.154   1.355   0.019  0.00  0.00     0.111 H 
ATOM     14  H4  <0> d           1.256   5.165   0.017  0.00  0.00     0.116 H 
ATOM     15  H5  <0> d           2.860   0.529  -0.022  0.00  0.00     0.094 H 
ENDROOT
TORSDOF 0
