REMARK  2 active torsions:
REMARK  status: ('A' for Active; 'I' for Inactive)
REMARK    1  A    between atoms: C1_1  and  C2_2 
REMARK    2  A    between atoms: C4_4  and  O1_11 
ROOT
ATOM      1  C2  <0> d           1.192   3.423   0.009  0.00  0.00    -0.008 A 
ATOM      2  C3  <0> d           1.198   2.064   0.002  0.00  0.00    -0.021 A 
ATOM      3  C4  <0> d          -0.016   1.353   0.009  0.00  0.00     0.182 A 
ATOM      4  N1  <0> d          -1.165   1.984   0.018  0.00  0.00    -0.140 NA
ATOM      5  N2  <0> d          -1.207   3.380   0.032  0.00  0.00    -0.203 N 
ATOM      6  C5  <0> d          -0.040   4.103   0.024  0.00  0.00     0.180 A 
ATOM      7  N3  <0> d          -0.381   5.382   0.033  0.00  0.00    -0.128 NA
ATOM      8  N4  <0> d          -1.665   5.478   0.046  0.00  0.00    -0.141 NA
ATOM      9  C6  <0> d          -2.208   4.286   0.046  0.00  0.00     0.112 A 
ATOM     10  H4  <0> d           2.136   1.528  -0.010  0.00  0.00     0.091 H 
ATOM     11  H5  <0> d          -3.265   4.067   0.054  0.00  0.00     0.149 H 
ENDROOT
BRANCH   1  12
ATOM     12  C1  <0> d           2.489   4.192  -0.001  0.00  0.00    -0.047 C 
ATOM     13  H1  <0> d           2.791   4.383  -1.030  0.00  0.00     0.033 H 
ATOM     14  H2  <0> d           2.352   5.141   0.519  0.00  0.00     0.033 H 
ATOM     15  H3  <0> d           3.260   3.610   0.502  0.00  0.00     0.033 H 
ENDBRANCH   1  12
BRANCH   3  16
ATOM     16  O1  <0> d           0.002  -0.004   0.002  0.00  0.00    -0.344 OA
ATOM     17  H6  <0> d           0.016  -0.402   0.883  0.00  0.00     0.219 HD
ENDBRANCH   3  16
TORSDOF 2
