REMARK  5 active torsions:
REMARK  status: ('A' for Active; 'I' for Inactive)
REMARK    1  A    between atoms: C1_1  and  C2_2 
REMARK    2  A    between atoms: C2_2  and  O1_3 
REMARK    3  A    between atoms: O1_3  and  C3_4 
REMARK    4  A    between atoms: C3_4  and  C4_6 
REMARK    5  A    between atoms: C4_6  and  C5_7 
ROOT
ATOM      1  C3  <0> d           0.775  -1.794  -1.334  0.00  0.00     0.266 C 
ATOM      2  O2  <0> d           0.314  -2.540  -0.504  0.00  0.00    -0.265 OA
ENDROOT
BRANCH   1   3
ATOM      3  O1  <0> d           0.671  -0.465  -1.174  0.00  0.00    -0.322 OA
BRANCH   3   4
ATOM      4  C2  <0> d           0.002  -0.004   0.002  0.00  0.00     0.025 C 
ATOM      5  H4  <0> d           0.529  -0.365   0.885  0.00  0.00     0.074 H 
ATOM      6  H5  <0> d          -1.020  -0.381   0.010  0.00  0.00     0.074 H 
BRANCH   4   7
ATOM      7  C1  <0> d          -0.019   1.526   0.010  0.00  0.00    -0.056 C 
ATOM      8  H1  <0> d           1.004   1.903   0.003  0.00  0.00     0.030 H 
ATOM      9  H2  <0> d          -0.546   1.887  -0.873  0.00  0.00     0.030 H 
ATOM     10  H3  <0> d          -0.529   1.877   0.907  0.00  0.00     0.030 H 
ENDBRANCH   4   7
ENDBRANCH   3   4
ENDBRANCH   1   3
BRANCH   1  11
ATOM     11  C4  <0> d           1.468  -2.353  -2.550  0.00  0.00     0.076 C 
ATOM     12  H6  <0> d           0.950  -2.020  -3.449  0.00  0.00     0.060 H 
ATOM     13  H7  <0> d           2.500  -2.003  -2.574  0.00  0.00     0.060 H 
BRANCH  11  14
ATOM     14  C5  <0> d           1.450  -3.859  -2.489  0.00  0.00     0.183 A 
ATOM     15  N4  <0> d           0.514  -4.658  -2.981  0.00  0.00    -0.111 NA
ATOM     16  N3  <0> d           0.866  -5.872  -2.728  0.00  0.00    -0.021 NA
ATOM     17  N2  <0> d           1.984  -5.861  -2.089  0.00  0.00    -0.021 NA
ATOM     18  N1  <0> d           2.363  -4.639  -1.930  0.00  0.00    -0.111 NA
ENDBRANCH  11  14
ENDBRANCH   1  11
TORSDOF 5
