REMARK  1 active torsions:
REMARK  status: ('A' for Active; 'I' for Inactive)
REMARK    1  A    between atoms: C1_1  and  C2_2 
ROOT
ATOM      1  C2  <0> d           0.002  -0.004   0.002  0.00  0.00     0.101 A 
ATOM      2  N1  <0> d           0.007  -0.778  -1.118  0.00  0.00    -0.343 N 
ATOM      3  H1  <0> d          -0.001  -0.462  -2.035  0.00  0.00     0.167 HD
ATOM      4  C3  <0> d           0.027  -2.095  -0.706  0.00  0.00     0.065 A 
ATOM      5  C4  <0> d           0.040  -3.315  -1.370  0.00  0.00    -0.018 A 
ATOM      6  C5  <0> d           0.059  -4.488  -0.643  0.00  0.00     0.118 A 
ATOM      7  C6  <0> d           0.065  -4.455   0.746  0.00  0.00    -0.043 A 
ATOM      8  C7  <0> d           0.052  -3.263   1.414  0.00  0.00    -0.050 A 
ATOM      9  C8  <0> d           0.033  -2.063   0.698  0.00  0.00     0.085 A 
ATOM     10  N2  <0> d           0.023  -0.755   1.064  0.00  0.00    -0.234 NA
ATOM     11  F1  <0> d           0.071  -5.676  -1.286  0.00  0.00    -0.206 F 
ATOM     12  H5  <0> d           0.035  -3.345  -2.450  0.00  0.00     0.091 H 
ATOM     13  H6  <0> d           0.080  -5.380   1.304  0.00  0.00     0.088 H 
ATOM     14  H7  <0> d           0.056  -3.248   2.494  0.00  0.00     0.087 H 
ENDROOT
BRANCH   1  15
ATOM     15  C1  <0> d          -0.018   1.503   0.010  0.00  0.00    -0.021 C 
ATOM     16  H2  <0> d           1.004   1.880   0.003  0.00  0.00     0.037 H 
ATOM     17  H3  <0> d          -0.545   1.864  -0.873  0.00  0.00     0.037 H 
ATOM     18  H4  <0> d          -0.529   1.854   0.907  0.00  0.00     0.037 H 
ENDBRANCH   1  15
TORSDOF 1
