REMARK  3 active torsions:
REMARK  status: ('A' for Active; 'I' for Inactive)
REMARK    1  A    between atoms: C1_1  and  C2_2 
REMARK    2  A    between atoms: C5_5  and  C8_9 
REMARK    3  A    between atoms: C7_7  and  O1_8 
REMARK       I    between atoms: C8_9  and  N1_11 
ROOT
ATOM      1  C2  <0> d           1.177   1.781   0.000  0.00  0.00    -0.029 A 
ATOM      2  C3  <0> d          -0.013   1.076   0.008  0.00  0.00    -0.074 A 
ATOM      3  C4  <0> d          -1.218   1.747   0.017  0.00  0.00    -0.067 A 
ATOM      4  C5  <0> d          -1.238   3.143   0.030  0.00  0.00     0.034 A 
ATOM      5  C6  <0> d          -0.038   3.853   0.022  0.00  0.00    -0.035 A 
ATOM      6  C7  <0> d           1.166   3.169   0.007  0.00  0.00     0.072 A 
ATOM      7  H4  <0> d           0.002  -0.004   0.002  0.00  0.00     0.084 H 
ATOM      8  H5  <0> d          -2.145   1.193   0.019  0.00  0.00     0.085 H 
ATOM      9  H6  <0> d          -0.048   4.933   0.027  0.00  0.00     0.089 H 
ENDROOT
BRANCH   4  10
ATOM     10  C8  <0> d          -2.528   3.866   0.047  0.00  0.00     0.249 C 
ATOM     11  O2  <0> d          -2.544   5.081   0.054  0.00  0.00    -0.268 OA
ATOM     12  N1  <0> d          -3.687   3.177   0.055  0.00  0.00    -0.366 N 
ATOM     13  H8  <0> d          -3.674   2.207   0.049  0.00  0.00     0.159 HD
ATOM     14  H9  <0> d          -4.533   3.651   0.066  0.00  0.00     0.159 HD
ENDBRANCH   4  10
BRANCH   6  15
ATOM     15  O1  <0> d           2.338   3.858  -0.001  0.00  0.00    -0.360 OA
ATOM     16  H7  <0> d           2.669   4.061  -0.887  0.00  0.00     0.217 HD
ENDBRANCH   6  15
BRANCH   1  17
ATOM     17  C1  <0> d           2.489   1.041  -0.016  0.00  0.00    -0.049 C 
ATOM     18  H1  <0> d           2.796   0.867  -1.047  0.00  0.00     0.033 H 
ATOM     19  H2  <0> d           3.248   1.634   0.494  0.00  0.00     0.033 H 
ATOM     20  H3  <0> d           2.373   0.084   0.494  0.00  0.00     0.033 H 
ENDBRANCH   1  17
TORSDOF 3
