REMARK  2 active torsions:
REMARK  status: ('A' for Active; 'I' for Inactive)
REMARK    1  A    between atoms: C1_1  and  C2_2 
REMARK    2  A    between atoms: C6_6  and  N1_9 
ROOT
ATOM      1  C2  <0> d           0.002  -0.004   0.002  0.00  0.00    -0.038 A 
ATOM      2  C3  <0> d           0.006  -0.688  -1.200  0.00  0.00    -0.075 A 
ATOM      3  C4  <0> d           0.024  -2.071  -1.212  0.00  0.00    -0.080 A 
ATOM      4  C5  <0> d           0.039  -2.774  -0.023  0.00  0.00    -0.056 A 
ATOM      5  C6  <0> d           0.035  -2.091   1.186  0.00  0.00     0.048 A 
ATOM      6  C7  <0> d           0.023  -0.701   1.195  0.00  0.00     0.066 A 
ATOM      7 Cl1  <0> d           0.025   0.159   2.703  0.00  0.00    -0.081 Cl
ATOM      8  H4  <0> d          -0.006  -0.142  -2.131  0.00  0.00     0.084 H 
ATOM      9  H5  <0> d           0.027  -2.602  -2.152  0.00  0.00     0.083 H 
ATOM     10  H6  <0> d           0.053  -3.854  -0.034  0.00  0.00     0.087 H 
ENDROOT
BRANCH   1  11
ATOM     11  C1  <0> d          -0.018   1.503   0.010  0.00  0.00    -0.050 C 
ATOM     12  H1  <0> d           1.004   1.880   0.003  0.00  0.00     0.033 H 
ATOM     13  H2  <0> d          -0.545   1.864  -0.873  0.00  0.00     0.033 H 
ATOM     14  H3  <0> d          -0.529   1.854   0.907  0.00  0.00     0.033 H 
ENDBRANCH   1  11
BRANCH   5  15
ATOM     15  N1  <0> d           0.050  -2.799   2.391  0.00  0.00    -0.398 N 
ATOM     16  H7  <0> d           0.062  -3.769   2.383  0.00  0.00     0.156 HD
ATOM     17  H8  <0> d           0.047  -2.321   3.234  0.00  0.00     0.156 HD
ENDBRANCH   5  15
TORSDOF 2
