REMARK  2 active torsions:
REMARK  status: ('A' for Active; 'I' for Inactive)
REMARK    1  A    between atoms: C7_9  and  C8_11 
REMARK    2  A    between atoms: C8_11  and  C9_12 
ROOT
ATOM      1  C1  <0> d           3.631   3.609   1.039  0.00  0.00    -0.061 C 
ATOM      2  C2  <0> d           2.913   3.972  -0.281  0.00  0.00    -0.061 C 
ATOM      3  C3  <0> d           1.421   3.591  -0.035  0.00  0.00    -0.050 C 
ATOM      4  H1  <0> d           0.695   4.055  -0.702  0.00  0.00     0.040 H 
ATOM      5  C4  <0> d           1.287   3.916   1.495  0.00  0.00    -0.058 C 
ATOM      6  C5  <0> d           2.506   3.042   1.958  0.00  0.00    -0.053 C 
ATOM      7  H2  <0> d           2.725   3.028   3.025  0.00  0.00     0.040 H 
ATOM      8  C6  <0> d           2.136   1.669   1.319  0.00  0.00    -0.058 C 
ATOM      9  C7  <0> d           1.417   2.032  -0.001  0.00  0.00    -0.041 C 
ATOM     10  H3  <0> d           1.963   1.630  -0.854  0.00  0.00     0.041 H 
ATOM     11  H4  <0> d           4.076   4.497   1.487  0.00  0.00     0.033 H 
ATOM     12  H5  <0> d           4.395   2.851   0.862  0.00  0.00     0.033 H 
ATOM     13  H6  <0> d           3.004   5.040  -0.481  0.00  0.00     0.033 H 
ATOM     14  H7  <0> d           3.323   3.394  -1.109  0.00  0.00     0.033 H 
ATOM     15  H8  <0> d           0.345   3.554   1.908  0.00  0.00     0.034 H 
ATOM     16  H9  <0> d           1.440   4.974   1.703  0.00  0.00     0.034 H 
ATOM     17  H10 <0> d           1.466   1.113   1.975  0.00  0.00     0.034 H 
ATOM     18  H11 <0> d           3.035   1.088   1.114  0.00  0.00     0.034 H 
ENDROOT
BRANCH   9  19
ATOM     19  C8  <0> d          -0.018   1.503   0.010  0.00  0.00     0.019 C 
ATOM     20  H12 <0> d          -0.545   1.864  -0.873  0.00  0.00     0.049 H 
ATOM     21  H13 <0> d          -0.529   1.854   0.907  0.00  0.00     0.049 H 
BRANCH  19  22
ATOM     22  C9  <0> d           0.002  -0.004   0.002  0.00  0.00     0.172 C 
ATOM     23  O1  <0> d           1.056  -0.594  -0.011  0.00  0.00    -0.648 OA
ATOM     24  O2  <0> d          -1.151  -0.691   0.009  0.00  0.00    -0.648 OA
ENDBRANCH  19  22
ENDBRANCH   9  19
TORSDOF 2
