REMARK  5 active torsions:
REMARK  status: ('A' for Active; 'I' for Inactive)
REMARK    1  A    between atoms: C1_1  and  C2_2 
REMARK    2  A    between atoms: C2_2  and  C3_3 
REMARK    3  A    between atoms: C4_4  and  C9_11 
REMARK    4  A    between atoms: C6_8  and  C7_9 
REMARK    5  A    between atoms: C7_9  and  C8_10 
ROOT
ATOM      1  C3  <0> d           0.707  -0.490  -1.238  0.00  0.00    -0.029 A 
ATOM      2  C4  <0> d           0.110  -0.763  -2.484  0.00  0.00    -0.038 A 
ATOM      3  C5  <0> d           1.087  -1.173  -3.319  0.00  0.00    -0.017 A 
ATOM      4  N1  <0> d           2.265  -1.162  -2.634  0.00  0.00    -0.368 N 
ATOM      5  H1  <0> d           3.131  -1.411  -2.994  0.00  0.00     0.165 HD
ATOM      6  C6  <0> d           2.027  -0.738  -1.360  0.00  0.00     0.015 A 
ATOM      7  H7  <0> d           0.958  -1.460  -4.352  0.00  0.00     0.112 H 
ENDROOT
BRANCH   1   8
ATOM      8  C2  <0> d           0.002  -0.004   0.002  0.00  0.00    -0.042 C 
ATOM      9  H5  <0> d           0.529  -0.365   0.885  0.00  0.00     0.039 H 
ATOM     10  H6  <0> d          -1.020  -0.381   0.010  0.00  0.00     0.039 H 
BRANCH   8  11
ATOM     11  C1  <0> d          -0.019   1.526   0.010  0.00  0.00    -0.073 C 
ATOM     12  H2  <0> d           1.004   1.903   0.003  0.00  0.00     0.028 H 
ATOM     13  H3  <0> d          -0.546   1.887  -0.873  0.00  0.00     0.028 H 
ATOM     14  H4  <0> d          -0.529   1.877   0.907  0.00  0.00     0.028 H 
ENDBRANCH   8  11
ENDBRANCH   1   8
BRANCH   6  15
ATOM     15  C7  <0> d           3.061  -0.576  -0.275  0.00  0.00    -0.030 C 
ATOM     16  H8  <0> d           4.039  -0.409  -0.727  0.00  0.00     0.041 H 
ATOM     17  H9  <0> d           2.800   0.277   0.351  0.00  0.00     0.041 H 
BRANCH  15  18
ATOM     18  C8  <0> d           3.104  -1.843   0.581  0.00  0.00    -0.071 C 
ATOM     19  H10 <0> d           2.126  -2.010   1.033  0.00  0.00     0.028 H 
ATOM     20  H11 <0> d           3.365  -2.696  -0.045  0.00  0.00     0.028 H 
ATOM     21  H12 <0> d           3.851  -1.727   1.366  0.00  0.00     0.028 H 
ENDBRANCH  15  18
ENDBRANCH   6  15
BRANCH   2  22
ATOM     22  C9  <0> d          -1.352  -0.625  -2.822  0.00  0.00    -0.049 C 
ATOM     23  H13 <0> d          -1.545   0.382  -3.193  0.00  0.00     0.033 H 
ATOM     24  H14 <0> d          -1.618  -1.352  -3.589  0.00  0.00     0.033 H 
ATOM     25  H15 <0> d          -1.950  -0.803  -1.928  0.00  0.00     0.033 H 
ENDBRANCH   2  22
TORSDOF 5
