REMARK  7 active torsions:
REMARK  status: ('A' for Active; 'I' for Inactive)
REMARK    1  A    between atoms: C1_1  and  C2_2 
REMARK    2  A    between atoms: C2_2  and  C3_3 
REMARK    3  A    between atoms: C3_3  and  C4_5 
REMARK    4  A    between atoms: C3_3  and  C5_8 
REMARK       I    between atoms: C4_5  and  N1_7 
REMARK    5  A    between atoms: C5_8  and  C6_9 
REMARK    6  A    between atoms: C5_8  and  C7_10 
REMARK    7  A    between atoms: C5_8  and  C8_11 
ROOT
ATOM      1  C3  <0> d           0.274   0.795   2.673  0.00  0.00     0.029 C 
ATOM      2  H1  <0> d           1.040   0.076   2.962  0.00  0.00     0.055 H 
ENDROOT
BRANCH   1   3
ATOM      3  C2  <0> d          -0.456   0.289   1.427  0.00  0.00    -0.056 C 
ATOM      4  H5  <0> d          -1.123   1.068   1.055  0.00  0.00     0.033 H 
ATOM      5  H6  <0> d          -1.039  -0.596   1.681  0.00  0.00     0.033 H 
BRANCH   3   6
ATOM      6  C1  <0> d           0.566  -0.066   0.346  0.00  0.00    -0.076 C 
ATOM      7  H2  <0> d           1.469  -0.458   0.814  0.00  0.00     0.027 H 
ATOM      8  H3  <0> d           0.814   0.828  -0.228  0.00  0.00     0.027 H 
ATOM      9  H4  <0> d           0.145  -0.820  -0.319  0.00  0.00     0.027 H 
ENDBRANCH   3   6
ENDBRANCH   1   3
BRANCH   1  10
ATOM     10  C4  <0> d          -0.713   0.959   3.801  0.00  0.00     0.220 C 
ATOM     11  O1  <0> d          -1.895   1.079   3.560  0.00  0.00    -0.273 OA
ATOM     12  N1  <0> d          -0.280   0.973   5.077  0.00  0.00    -0.370 N 
ATOM     13  H7  <0> d           0.670   0.935   5.268  0.00  0.00     0.159 HD
ATOM     14  H8  <0> d          -0.919   1.021   5.805  0.00  0.00     0.159 HD
ENDBRANCH   1  10
BRANCH   1  15
ATOM     15  C5  <0> d           0.929   2.144   2.368  0.00  0.00    -0.039 C 
BRANCH  15  16
ATOM     16  C6  <0> d          -0.054   3.025   1.596  0.00  0.00    -0.069 C 
ATOM     17  H9  <0> d          -0.950   3.184   2.197  0.00  0.00     0.028 H 
ATOM     18  H10 <0> d           0.412   3.986   1.378  0.00  0.00     0.028 H 
ATOM     19  H11 <0> d          -0.327   2.534   0.661  0.00  0.00     0.028 H 
ENDBRANCH  15  16
BRANCH  15  20
ATOM     20  C7  <0> d           1.311   2.833   3.679  0.00  0.00    -0.069 C 
ATOM     21  H12 <0> d           1.853   2.132   4.314  0.00  0.00     0.028 H 
ATOM     22  H13 <0> d           1.944   3.694   3.466  0.00  0.00     0.028 H 
ATOM     23  H14 <0> d           0.407   3.164   4.192  0.00  0.00     0.028 H 
ENDBRANCH  15  20
BRANCH  15  24
ATOM     24  C8  <0> d           2.186   1.921   1.524  0.00  0.00    -0.069 C 
ATOM     25  H15 <0> d           1.899   1.601   0.522  0.00  0.00     0.028 H 
ATOM     26  H16 <0> d           2.750   2.851   1.461  0.00  0.00     0.028 H 
ATOM     27  H17 <0> d           2.803   1.151   1.988  0.00  0.00     0.028 H 
ENDBRANCH  15  24
ENDBRANCH   1  15
TORSDOF 7
