REMARK  4 active torsions:
REMARK  status: ('A' for Active; 'I' for Inactive)
REMARK    1  A    between atoms: C1_1  and  N1_2 
REMARK    2  A    between atoms: N1_2  and  C2_3 
REMARK    3  A    between atoms: N1_2  and  C3_4 
REMARK    4  A    between atoms: C6_10  and  N4_12 
ROOT
ATOM      1  C3  <0> d           0.000  -0.682  -1.188  0.00  0.00     0.706 A 
ATOM      2  N2  <0> d           0.013  -2.043  -1.179  0.00  0.00    -0.154 N 
ATOM      3  H1  <0> d           0.024  -2.522  -0.335  0.00  0.00     0.187 HD
ATOM      4  C4  <0> d           0.011  -2.728  -2.341  0.00  0.00     0.263 A 
ATOM      5  O1  <0> d           0.022  -3.949  -2.342  0.00  0.00    -0.268 OA
ATOM      6  C5  <0> d          -0.005  -2.017  -3.545  0.00  0.00     0.027 A 
ATOM      7  C6  <0> d          -0.018  -0.630  -3.499  0.00  0.00     0.145 A 
ATOM      8  N3  <0> d          -0.020  -0.005  -2.316  0.00  0.00    -0.047 NA
ATOM      9  H8  <0> d          -0.007  -2.536  -4.492  0.00  0.00     0.098 H 
ENDROOT
BRANCH   1  10
ATOM     10  N1  <0> d           0.002  -0.004   0.002  0.00  0.00    -0.224 N 
BRANCH  10  11
ATOM     11  C1  <0> d          -0.018   1.461   0.010  0.00  0.00    -0.003 C 
ATOM     12  H2  <0> d           1.005   1.838   0.002  0.00  0.00     0.057 H 
ATOM     13  H3  <0> d          -0.545   1.822  -0.873  0.00  0.00     0.057 H 
ATOM     14  H4  <0> d          -0.528   1.812   0.907  0.00  0.00     0.057 H 
ENDBRANCH  10  11
BRANCH  10  15
ATOM     15  C2  <0> d           0.024  -0.743   1.267  0.00  0.00    -0.003 C 
ATOM     16  H5  <0> d          -0.998  -0.941   1.590  0.00  0.00     0.057 H 
ATOM     17  H6  <0> d           0.550  -1.688   1.126  0.00  0.00     0.057 H 
ATOM     18  H7  <0> d           0.537  -0.151   2.025  0.00  0.00     0.057 H 
ENDBRANCH  10  15
ENDBRANCH   1  10
BRANCH   7  19
ATOM     19  N4  <0> d          -0.033   0.102  -4.669  0.00  0.00    -0.383 N 
ATOM     20  H9  <0> d          -0.035  -0.353  -5.526  0.00  0.00     0.157 HD
ATOM     21  H10 <0> d          -0.042   1.071  -4.635  0.00  0.00     0.157 HD
ENDBRANCH   7  19
TORSDOF 4
