REMARK  2 active torsions:
REMARK  status: ('A' for Active; 'I' for Inactive)
REMARK    1  A    between atoms: C1_1  and  N4_7 
REMARK    2  A    between atoms: C2_2  and  N3_6 
ROOT
ATOM      1  C1  <0> d          -0.018   1.463   0.010  0.00  0.00     0.199 A 
ATOM      2  C2  <0> d           0.002  -0.004   0.002  0.00  0.00     0.199 A 
ATOM      3  N1  <0> d           1.246  -0.397  -0.012  0.00  0.00    -0.083 NA
ATOM      4  O1  <0> d           2.066   0.758  -0.014  0.00  0.00    -0.103 OA
ATOM      5  N2  <0> d           1.214   1.890   0.001  0.00  0.00    -0.083 NA
ENDROOT
BRANCH   1   6
ATOM      6  N4  <0> d          -1.156   2.262   0.020  0.00  0.00    -0.379 N 
ATOM      7  H3  <0> d          -2.036   1.853   0.022  0.00  0.00     0.158 HD
ATOM      8  H4  <0> d          -1.070   3.228   0.025  0.00  0.00     0.158 HD
ENDBRANCH   1   6
BRANCH   2   9
ATOM      9  N3  <0> d          -1.114  -0.834   0.007  0.00  0.00    -0.379 N 
ATOM     10  H1  <0> d          -2.004  -0.449   0.018  0.00  0.00     0.158 HD
ATOM     11  H2  <0> d          -1.002  -1.797   0.001  0.00  0.00     0.158 HD
ENDBRANCH   2   9
TORSDOF 2
