REMARK  3 active torsions:
REMARK  status: ('A' for Active; 'I' for Inactive)
REMARK    1  A    between atoms: C1_1  and  C2_2 
REMARK    2  A    between atoms: C5_8  and  C7_10 
REMARK    3  A    between atoms: C5_8  and  C8_11 
ROOT
ATOM      1  C2  <0> d          -1.253   3.021   1.135  0.00  0.00    -0.046 C 
ATOM      2  H1  <0> d          -1.225   2.529   2.107  0.00  0.00     0.040 H 
ATOM      3  C3  <0> d          -1.322   1.964   0.019  0.00  0.00     0.019 C 
ATOM      4  C4  <0> d          -0.014   1.204   0.009  0.00  0.00     0.259 C 
ATOM      5  O1  <0> d           0.002  -0.004   0.002  0.00  0.00    -0.265 OA
ATOM      6  O2  <0> d           1.133   1.914   0.002  0.00  0.00    -0.311 OA
ATOM      7  C5  <0> d           1.242   2.946   1.022  0.00  0.00     0.064 C 
ATOM      8  C6  <0> d           0.015   3.859   0.947  0.00  0.00    -0.033 C 
ATOM      9  H5  <0> d          -1.470   2.453  -0.944  0.00  0.00     0.048 H 
ATOM     10  H6  <0> d          -2.145   1.277   0.213  0.00  0.00     0.048 H 
ATOM     11  H7  <0> d           0.073   4.612   1.732  0.00  0.00     0.037 H 
ATOM     12  H8  <0> d          -0.014   4.350  -0.026  0.00  0.00     0.037 H 
ENDROOT
BRANCH   7  13
ATOM     13  C7  <0> d           1.310   2.293   2.404  0.00  0.00    -0.047 C 
ATOM     14  H9  <0> d           2.181   1.640   2.455  0.00  0.00     0.031 H 
ATOM     15  H10 <0> d           1.392   3.067   3.167  0.00  0.00     0.031 H 
ATOM     16  H11 <0> d           0.406   1.709   2.574  0.00  0.00     0.031 H 
ENDBRANCH   7  13
BRANCH   7  17
ATOM     17  C8  <0> d           2.509   3.770   0.782  0.00  0.00    -0.047 C 
ATOM     18  H12 <0> d           2.459   4.236  -0.202  0.00  0.00     0.031 H 
ATOM     19  H13 <0> d           2.590   4.543   1.547  0.00  0.00     0.031 H 
ATOM     20  H14 <0> d           3.381   3.118   0.831  0.00  0.00     0.031 H 
ENDBRANCH   7  17
BRANCH   1  21
ATOM     21  C1  <0> d          -2.483   3.928   1.055  0.00  0.00    -0.072 C 
ATOM     22  H2  <0> d          -2.512   4.416   0.081  0.00  0.00     0.028 H 
ATOM     23  H3  <0> d          -3.385   3.330   1.189  0.00  0.00     0.028 H 
ATOM     24  H4  <0> d          -2.428   4.684   1.839  0.00  0.00     0.028 H 
ENDBRANCH   1  21
TORSDOF 3
