REMARK  1 active torsions:
REMARK  status: ('A' for Active; 'I' for Inactive)
REMARK    1  A    between atoms: C7_7  and  O1_10 
ROOT
ATOM      1  C1  <0> d           1.401   3.145   0.096  0.00  0.00    -0.063 C 
ATOM      2  C2  <0> d           0.781   3.569   1.428  0.00  0.00    -0.064 C 
ATOM      3  C3  <0> d          -0.676   3.099   1.485  0.00  0.00    -0.056 C 
ATOM      4  C4  <0> d          -0.716   1.582   1.275  0.00  0.00    -0.014 A 
ATOM      5  C5  <0> d          -0.657   0.692   2.515  0.00  0.00    -0.055 A 
ATOM      6  C6  <0> d          -1.966   0.833   1.735  0.00  0.00    -0.055 A 
ATOM      7  C7  <0> d          -0.013   1.086   0.008  0.00  0.00     0.043 C 
ATOM      8  H1  <0> d           0.002  -0.004   0.002  0.00  0.00     0.084 H 
ATOM      9  C8  <0> d           1.423   1.619  -0.003  0.00  0.00    -0.040 C 
ATOM     10  H2  <0> d           2.420   3.526   0.033  0.00  0.00     0.033 H 
ATOM     11  H3  <0> d           0.810   3.552  -0.724  0.00  0.00     0.033 H 
ATOM     12  H4  <0> d           1.340   3.120   2.249  0.00  0.00     0.033 H 
ATOM     13  H5  <0> d           0.816   4.655   1.516  0.00  0.00     0.033 H 
ATOM     14  H6  <0> d          -1.101   3.344   2.459  0.00  0.00     0.034 H 
ATOM     15  H7  <0> d          -1.249   3.592   0.700  0.00  0.00     0.034 H 
ATOM     16  H8  <0> d          -0.120  -0.254   2.431  0.00  0.00     0.034 H 
ATOM     17  H9  <0> d          -0.594   1.183   3.486  0.00  0.00     0.034 H 
ATOM     18  H10 <0> d          -2.763   1.418   2.192  0.00  0.00     0.034 H 
ATOM     19  H11 <0> d          -2.290  -0.019   1.138  0.00  0.00     0.034 H 
ATOM     20  H12 <0> d           1.970   1.207   0.846  0.00  0.00     0.036 H 
ATOM     21  H13 <0> d           1.914   1.321  -0.930  0.00  0.00     0.036 H 
ENDROOT
BRANCH   7  22
ATOM     22  O1  <0> d          -0.708   1.561  -1.146  0.00  0.00    -0.395 OA
ATOM     23  H14 <0> d          -0.313   1.287  -1.985  0.00  0.00     0.210 HD
ENDBRANCH   7  22
TORSDOF 1
