REMARK  3 active torsions:
REMARK  status: ('A' for Active; 'I' for Inactive)
REMARK    1  A    between atoms: C2_2  and  C3_3 
REMARK    2  A    between atoms: C3_3  and  S1_4 
REMARK    3  A    between atoms: S1_4  and  C4_5 
ROOT
ATOM      1  S1  <0> d          -1.457  -1.697  -1.543  0.00  0.00    -0.119 SA
ENDROOT
BRANCH   1   2
ATOM      2  C3  <0> d          -1.293  -0.775   0.010  0.00  0.00    -0.004 C 
ATOM      3  H4  <0> d          -1.295  -1.472   0.848  0.00  0.00     0.055 H 
ATOM      4  H5  <0> d          -2.128  -0.082   0.112  0.00  0.00     0.055 H 
BRANCH   2   5
ATOM      5  C2  <0> d           0.002  -0.004   0.002  0.00  0.00    -0.103 C 
ATOM      6  C1  <0> d          -0.016   1.306   0.009  0.00  0.00    -0.124 C 
ATOM      7  H1  <0> d           0.912   1.859   0.003  0.00  0.00     0.066 H 
ATOM      8  H2  <0> d          -0.958   1.833   0.017  0.00  0.00     0.066 H 
ATOM      9  H3  <0> d           0.945  -0.531  -0.010  0.00  0.00     0.076 H 
ENDBRANCH   2   5
ENDBRANCH   1   2
BRANCH   1  10
ATOM     10  C4  <0> d          -2.999  -2.535  -1.381  0.00  0.00     0.041 A 
ATOM     11  S2  <0> d          -4.155  -2.508  -0.021  0.00  0.00    -0.095 SA
ATOM     12  C7  <0> d          -5.383  -3.605  -0.711  0.00  0.00    -0.044 A 
ATOM     13  C6  <0> d          -4.838  -3.922  -1.909  0.00  0.00    -0.075 A 
ATOM     14  H8  <0> d          -6.317  -3.935  -0.281  0.00  0.00     0.095 H 
ATOM     15  C5  <0> d          -3.615  -3.376  -2.258  0.00  0.00    -0.060 A 
ATOM     16  H7  <0> d          -5.351  -4.592  -2.583  0.00  0.00     0.084 H 
ATOM     17  H6  <0> d          -3.159  -3.612  -3.208  0.00  0.00     0.086 H 
ENDBRANCH   1  10
TORSDOF 3
