REMARK  3 active torsions:
REMARK  status: ('A' for Active; 'I' for Inactive)
REMARK    1  A    between atoms: C1_1  and  C2_2 
REMARK    2  A    between atoms: C2_2  and  O2_4 
REMARK    3  A    between atoms: O2_4  and  C3_5 
ROOT
ATOM      1  C3  <0> d          -0.817   1.626  -1.200  0.00  0.00     0.055 C 
ATOM      2  H1  <0> d          -1.197   0.803  -1.806  0.00  0.00     0.085 H 
ATOM      3  C4  <0> d          -0.013   1.086   0.008  0.00  0.00    -0.033 C 
ATOM      4  C5  <0> d          -0.800   1.617   1.248  0.00  0.00    -0.035 C 
ATOM      5  H2  <0> d          -0.574   1.143   2.203  0.00  0.00     0.046 H 
ATOM      6  C6  <0> d          -2.278   1.504   0.710  0.00  0.00    -0.050 C 
ATOM      7  C7  <0> d          -1.991   2.415  -0.539  0.00  0.00    -0.012 C 
ATOM      8  H3  <0> d          -2.834   2.658  -1.186  0.00  0.00     0.050 H 
ATOM      9  C8  <0> d          -1.303   3.598   0.153  0.00  0.00    -0.100 C 
ATOM     10  C9  <0> d          -0.619   3.139   1.181  0.00  0.00    -0.102 C 
ATOM     11  H7  <0> d           0.002  -0.004   0.002  0.00  0.00     0.037 H 
ATOM     12  H8  <0> d           1.003   1.482   0.000  0.00  0.00     0.037 H 
ATOM     13  H9  <0> d          -3.005   1.947   1.391  0.00  0.00     0.035 H 
ATOM     14  H10 <0> d          -2.544   0.485   0.431  0.00  0.00     0.035 H 
ATOM     15  H11 <0> d          -1.368   4.633  -0.151  0.00  0.00     0.077 H 
ATOM     16  H12 <0> d          -0.028   3.732   1.863  0.00  0.00     0.076 H 
ENDROOT
BRANCH   1  17
ATOM     17  O2  <0> d           0.005   2.512  -2.005  0.00  0.00    -0.316 OA
BRANCH  17  18
ATOM     18  C2  <0> d           0.688   1.957  -3.018  0.00  0.00     0.255 C 
ATOM     19  O1  <0> d           0.602   0.770  -3.226  0.00  0.00    -0.266 OA
BRANCH  18  20
ATOM     20  C1  <0> d           1.562   2.815  -3.897  0.00  0.00     0.004 C 
ATOM     21  H4  <0> d           1.513   3.850  -3.559  0.00  0.00     0.041 H 
ATOM     22  H5  <0> d           2.592   2.462  -3.840  0.00  0.00     0.041 H 
ATOM     23  H6  <0> d           1.213   2.752  -4.928  0.00  0.00     0.041 H 
ENDBRANCH  18  20
ENDBRANCH  17  18
ENDBRANCH   1  17
TORSDOF 3
