REMARK  1 active torsions:
REMARK  status: ('A' for Active; 'I' for Inactive)
REMARK    1  A    between atoms: C3_3  and  C5_6 
ROOT
ATOM      1  C1  <0> d          -0.019   1.526   0.010  0.00  0.00    -0.036 A 
ATOM      2  C2  <0> d           1.317   0.779  -0.006  0.00  0.00    -0.036 A 
ATOM      3  C3  <0> d           0.002  -0.004   0.002  0.00  0.00     0.146 A 
ATOM      4  C4  <0> d          -0.369  -0.696   1.247  0.00  0.00     0.078 C 
ATOM      5  N1  <0> d          -0.656  -1.229   2.208  0.00  0.00    -0.196 NA
ATOM      6  H1  <0> d          -0.307   2.020   0.938  0.00  0.00     0.036 H 
ATOM      7  H2  <0> d          -0.325   2.030  -0.906  0.00  0.00     0.036 H 
ATOM      8  H3  <0> d           1.889   0.792  -0.934  0.00  0.00     0.036 H 
ATOM      9  H4  <0> d           1.906   0.782   0.910  0.00  0.00     0.036 H 
ENDROOT
BRANCH   3  10
ATOM     10  C5  <0> d          -0.408  -0.709  -1.292  0.00  0.00     0.407 C 
ATOM     11  F1  <0> d           0.450  -0.322  -2.327  0.00  0.00    -0.169 F 
ATOM     12  F2  <0> d          -0.329  -2.094  -1.114  0.00  0.00    -0.169 F 
ATOM     13  F3  <0> d          -1.722  -0.355  -1.620  0.00  0.00    -0.169 F 
ENDBRANCH   3  10
TORSDOF 1
