REMARK  5 active torsions:
REMARK  status: ('A' for Active; 'I' for Inactive)
REMARK    1  A    between atoms: C1_1  and  C2_2 
REMARK    2  A    between atoms: C2_2  and  C3_3 
REMARK    3  A    between atoms: C3_3  and  C4_5 
REMARK    4  A    between atoms: C3_3  and  C5_6 
REMARK    5  A    between atoms: C10_12  and  O1_14 
ROOT
ATOM      1  C5  <0> d          -3.018   1.781  -0.115  0.00  0.00    -0.026 C 
ATOM      2  H2  <0> d          -3.210   2.854  -0.117  0.00  0.00     0.044 H 
ATOM      3  C6  <0> d          -2.085   1.433   1.047  0.00  0.00    -0.059 C 
ATOM      4  C7  <0> d          -0.764   2.186   0.883  0.00  0.00    -0.065 C 
ATOM      5  C8  <0> d          -0.106   1.782  -0.438  0.00  0.00    -0.063 C 
ATOM      6  C9  <0> d          -1.040   2.131  -1.600  0.00  0.00    -0.041 C 
ATOM      7  C10 <0> d          -2.361   1.377  -1.436  0.00  0.00     0.039 C 
ATOM      8  H3  <0> d          -2.169   0.304  -1.433  0.00  0.00     0.083 H 
ATOM      9  H12 <0> d          -2.554   1.720   1.988  0.00  0.00     0.033 H 
ATOM     10  H13 <0> d          -1.893   0.360   1.050  0.00  0.00     0.033 H 
ATOM     11  H14 <0> d          -0.099   1.938   1.710  0.00  0.00     0.033 H 
ATOM     12  H15 <0> d          -0.956   3.259   0.880  0.00  0.00     0.033 H 
ATOM     13  H16 <0> d           0.085   0.710  -0.435  0.00  0.00     0.033 H 
ATOM     14  H17 <0> d           0.835   2.320  -0.555  0.00  0.00     0.033 H 
ATOM     15  H18 <0> d          -1.232   3.204  -1.602  0.00  0.00     0.036 H 
ATOM     16  H19 <0> d          -0.571   1.843  -2.541  0.00  0.00     0.036 H 
ENDROOT
BRANCH   1  17
ATOM     17  C3  <0> d          -4.340   1.027   0.049  0.00  0.00    -0.052 C 
ATOM     18  H1  <0> d          -4.970   1.206  -0.822  0.00  0.00     0.040 H 
BRANCH  17  19
ATOM     19  C2  <0> d          -4.059  -0.472   0.176  0.00  0.00    -0.065 C 
ATOM     20  H7  <0> d          -3.472  -0.805  -0.679  0.00  0.00     0.033 H 
ATOM     21  H8  <0> d          -3.504  -0.661   1.095  0.00  0.00     0.033 H 
BRANCH  19  22
ATOM     22  C1  <0> d          -5.384  -1.237   0.214  0.00  0.00    -0.076 C 
ATOM     23  H4  <0> d          -5.184  -2.305   0.305  0.00  0.00     0.027 H 
ATOM     24  H5  <0> d          -5.971  -0.903   1.070  0.00  0.00     0.027 H 
ATOM     25  H6  <0> d          -5.939  -1.048  -0.704  0.00  0.00     0.027 H 
ENDBRANCH  19  22
ENDBRANCH  17  19
BRANCH  17  26
ATOM     26  C4  <0> d          -5.056   1.520   1.308  0.00  0.00    -0.072 C 
ATOM     27  H9  <0> d          -5.149   2.606   1.271  0.00  0.00     0.028 H 
ATOM     28  H10 <0> d          -6.048   1.072   1.361  0.00  0.00     0.028 H 
ATOM     29  H11 <0> d          -4.481   1.235   2.189  0.00  0.00     0.028 H 
ENDBRANCH  17  26
ENDBRANCH   1  17
BRANCH   7  30
ATOM     30  O1  <0> d          -3.232   1.702  -2.521  0.00  0.00    -0.395 OA
ATOM     31  H20 <0> d          -2.879   1.473  -3.391  0.00  0.00     0.210 HD
ENDBRANCH   7  30
TORSDOF 5
