REMARK  2 active torsions:
REMARK  status: ('A' for Active; 'I' for Inactive)
REMARK    1  A    between atoms: C1_1  and  C2_2 
REMARK    2  A    between atoms: C4_4  and  N2_8 
ROOT
ATOM      1  C2  <0> d          -2.495   3.671   0.035  0.00  0.00    -0.042 A 
ATOM      2  C3  <0> d          -1.261   3.040   0.030  0.00  0.00    -0.049 A 
ATOM      3  C4  <0> d          -1.230   1.648   0.017  0.00  0.00     0.043 A 
ATOM      4  C5  <0> d          -2.430   0.947   0.019  0.00  0.00     0.027 A 
ATOM      5  N1  <0> d          -3.582   1.587   0.028  0.00  0.00    -0.270 NA
ATOM      6  C6  <0> d          -3.645   2.905   0.036  0.00  0.00     0.008 A 
ATOM      7  H4  <0> d          -0.346   3.614   0.034  0.00  0.00     0.087 H 
ATOM      8  H5  <0> d          -2.418  -0.133   0.012  0.00  0.00     0.118 H 
ATOM      9  H6  <0> d          -4.609   3.392   0.042  0.00  0.00     0.115 H 
ENDROOT
BRANCH   1  10
ATOM     10  C1  <0> d          -2.581   5.176   0.044  0.00  0.00    -0.050 C 
ATOM     11  H1  <0> d          -2.597   5.532   1.074  0.00  0.00     0.033 H 
ATOM     12  H2  <0> d          -1.716   5.592  -0.472  0.00  0.00     0.033 H 
ATOM     13  H3  <0> d          -3.493   5.490  -0.464  0.00  0.00     0.033 H 
ENDBRANCH   1  10
BRANCH   3  14
ATOM     14  N2  <0> d          -0.011   0.966   0.007  0.00  0.00    -0.398 N 
ATOM     15  H7  <0> d           0.002  -0.004   0.002  0.00  0.00     0.156 HD
ATOM     16  H8  <0> d           0.822   1.462   0.002  0.00  0.00     0.156 HD
ENDBRANCH   3  14
TORSDOF 2
