REMARK  2 active torsions:
REMARK  status: ('A' for Active; 'I' for Inactive)
REMARK    1  A    between atoms: C2_2  and  C3_3 
REMARK    2  A    between atoms: C7_7  and  O1_9 
ROOT
ATOM      1  C1  <0> d          -0.077   6.454   0.035  0.00  0.00    -0.149 C 
ATOM      2  C2  <0> d          -0.064   5.280   0.029  0.00  0.00    -0.078 C 
ATOM      3  H1  <0> d          -0.088   7.504   0.040  0.00  0.00     0.166 H 
ENDROOT
BRANCH   2   4
ATOM      4  C3  <0> d          -0.049   3.848   0.022  0.00  0.00     0.019 A 
ATOM      5  C8  <0> d          -1.248   3.136   0.030  0.00  0.00    -0.033 A 
ATOM      6  C7  <0> d          -1.225   1.751   0.017  0.00  0.00     0.067 A 
ATOM      7  H5  <0> d          -2.191   3.662   0.042  0.00  0.00     0.090 H 
ATOM      8  C6  <0> d          -0.013   1.076   0.008  0.00  0.00    -0.051 A 
ATOM      9  C5  <0> d           1.177   1.781   0.000  0.00  0.00    -0.079 A 
ATOM     10  H4  <0> d           0.002  -0.004   0.002  0.00  0.00     0.087 H 
ATOM     11  C4  <0> d           1.166   3.161   0.007  0.00  0.00    -0.065 A 
ATOM     12  H3  <0> d           2.117   1.250  -0.011  0.00  0.00     0.083 H 
ATOM     13  H2  <0> d           2.096   3.709   0.001  0.00  0.00     0.085 H 
BRANCH   6  14
ATOM     14  O1  <0> d          -2.391   1.053   0.019  0.00  0.00    -0.361 OA
ATOM     15  H6  <0> d          -2.725   0.846   0.903  0.00  0.00     0.217 HD
ENDBRANCH   6  14
ENDBRANCH   2   4
TORSDOF 2
