REMARK  0 active torsions:
REMARK  status: ('A' for Active; 'I' for Inactive)
ROOT
ATOM      1  C1  <0> d           3.456   2.390  -0.018  0.00  0.00    -0.078 A 
ATOM      2  C2  <0> d           2.486   1.410  -0.013  0.00  0.00    -0.056 A 
ATOM      3  C3  <0> d           1.137   1.759   0.001  0.00  0.00     0.044 A 
ATOM      4  C4  <0> d           0.791   3.104   0.010  0.00  0.00     0.016 A 
ATOM      5  C5  <0> d           1.762   4.083   0.006  0.00  0.00     0.125 A 
ATOM      6  C6  <0> d           3.101   3.726  -0.009  0.00  0.00    -0.045 A 
ATOM      7  F1  <0> d           1.408   5.387   0.016  0.00  0.00    -0.205 F 
ATOM      8  C7  <0> d          -0.720   3.155   0.025  0.00  0.00     0.038 A 
ATOM      9  C8  <0> d          -1.137   1.700   0.016  0.00  0.00     0.226 A 
ATOM     10  O1  <0> d          -2.273   1.276   0.019  0.00  0.00    -0.273 OA
ATOM     11  N1  <0> d          -0.011   0.966   0.007  0.00  0.00    -0.326 N 
ATOM     12  H1  <0> d           4.500   2.112  -0.030  0.00  0.00     0.083 H 
ATOM     13  H2  <0> d           2.772   0.368  -0.021  0.00  0.00     0.086 H 
ATOM     14  H3  <0> d           3.865   4.489  -0.012  0.00  0.00     0.088 H 
ATOM     15  H4  <0> d          -1.077   3.652   0.926  0.00  0.00     0.054 H 
ATOM     16  H5  <0> d          -1.093   3.663  -0.865  0.00  0.00     0.054 H 
ATOM     17  H6  <0> d           0.002  -0.004   0.002  0.00  0.00     0.169 HD
ENDROOT
TORSDOF 0
