REMARK  2 active torsions:
REMARK  status: ('A' for Active; 'I' for Inactive)
REMARK    1  A    between atoms: C6_6  and  C7_7 
REMARK    2  A    between atoms: C7_7  and  O1_8 
ROOT
ATOM      1  C1  <0> d          -1.215   1.750   0.017  0.00  0.00    -0.073 A 
ATOM      2  C2  <0> d          -0.013   1.076   0.008  0.00  0.00    -0.059 A 
ATOM      3  C3  <0> d           1.186   1.792   0.000  0.00  0.00     0.083 A 
ATOM      4  C4  <0> d           1.157   3.191   0.008  0.00  0.00     0.137 A 
ATOM      5  C5  <0> d          -0.056   3.852   0.022  0.00  0.00    -0.036 A 
ATOM      6  C6  <0> d          -1.238   3.134   0.029  0.00  0.00    -0.032 A 
ATOM      7  F1  <0> d           2.312   3.892  -0.000  0.00  0.00    -0.204 F 
ATOM      8  C8  <0> d           2.439   1.098  -0.015  0.00  0.00     0.102 C 
ATOM      9  N1  <0> d           3.433   0.547  -0.028  0.00  0.00    -0.191 NA
ATOM     10  H1  <0> d          -2.143   1.197   0.019  0.00  0.00     0.084 H 
ATOM     11  H2  <0> d           0.002  -0.004   0.002  0.00  0.00     0.086 H 
ATOM     12  H3  <0> d          -0.081   4.932   0.028  0.00  0.00     0.089 H 
ENDROOT
BRANCH   6  13
ATOM     13  C7  <0> d          -2.557   3.862   0.044  0.00  0.00     0.041 C 
ATOM     14  H4  <0> d          -3.301   3.256   0.562  0.00  0.00     0.081 H 
ATOM     15  H5  <0> d          -2.441   4.815   0.562  0.00  0.00     0.081 H 
BRANCH  13  16
ATOM     16  O1  <0> d          -2.986   4.099  -1.298  0.00  0.00    -0.396 OA
ATOM     17  H6  <0> d          -3.831   4.565  -1.365  0.00  0.00     0.209 HD
ENDBRANCH  13  16
ENDBRANCH   6  13
TORSDOF 2
