REMARK  4 active torsions:
REMARK  status: ('A' for Active; 'I' for Inactive)
REMARK    1  A    between atoms: C1_1  and  O1_2 
REMARK    2  A    between atoms: O1_2  and  C2_3 
REMARK    3  A    between atoms: C2_3  and  C3_5 
REMARK    4  A    between atoms: C8_10  and  O3_11 
ROOT
ATOM      1  C3  <0> d           0.680  -2.085   1.091  0.00  0.00     0.072 A 
ATOM      2  C4  <0> d           0.101  -2.852   0.077  0.00  0.00    -0.064 A 
ATOM      3  C5  <0> d           0.160  -4.228   0.137  0.00  0.00    -0.082 A 
ATOM      4  C6  <0> d           0.790  -4.854   1.200  0.00  0.00    -0.080 A 
ATOM      5  C7  <0> d           1.366  -4.108   2.209  0.00  0.00    -0.050 A 
ATOM      6  C8  <0> d           1.322  -2.723   2.162  0.00  0.00     0.082 A 
ATOM      7  H4  <0> d          -0.392  -2.368  -0.753  0.00  0.00     0.085 H 
ATOM      8  H5  <0> d          -0.288  -4.820  -0.647  0.00  0.00     0.083 H 
ATOM      9  H6  <0> d           0.831  -5.933   1.240  0.00  0.00     0.083 H 
ATOM     10  H7  <0> d           1.856  -4.604   3.034  0.00  0.00     0.087 H 
ENDROOT
BRANCH   1  11
ATOM     11  C2  <0> d           0.621  -0.613   1.033  0.00  0.00     0.295 C 
ATOM     12  O2  <0> d           1.129   0.051   1.914  0.00  0.00    -0.259 OA
BRANCH  11  13
ATOM     13  O1  <0> d           0.002  -0.004   0.002  0.00  0.00    -0.322 OA
BRANCH  13  14
ATOM     14  C1  <0> d          -0.017   1.425   0.010  0.00  0.00     0.013 C 
ATOM     15  H1  <0> d           1.005   1.802   0.002  0.00  0.00     0.067 H 
ATOM     16  H2  <0> d          -0.544   1.786  -0.873  0.00  0.00     0.067 H 
ATOM     17  H3  <0> d          -0.527   1.776   0.907  0.00  0.00     0.067 H 
ENDBRANCH  13  14
ENDBRANCH  11  13
ENDBRANCH   1  11
BRANCH   6  18
ATOM     18  O3  <0> d           1.893  -1.989   3.149  0.00  0.00    -0.360 OA
ATOM     19  H8  <0> d           1.297  -1.789   3.884  0.00  0.00     0.217 HD
ENDBRANCH   6  18
TORSDOF 4
