REMARK  2 active torsions:
REMARK  status: ('A' for Active; 'I' for Inactive)
REMARK    1  A    between atoms: C1_1  and  C2_2 
REMARK    2  A    between atoms: C3_3  and  C6_8 
ROOT
ATOM      1  C2  <0> d          -1.294   3.395   0.134  0.00  0.00     0.083 C 
ATOM      2  C3  <0> d          -1.295   2.097  -0.204  0.00  0.00     0.175 C 
ATOM      3  O1  <0> d          -2.454   1.391  -0.317  0.00  0.00    -0.341 OA
ATOM      4  C4  <0> d          -3.619   1.972   0.283  0.00  0.00     0.046 C 
ATOM      5  C5  <0> d          -3.653   3.461  -0.091  0.00  0.00     0.046 C 
ATOM      6  O2  <0> d          -2.441   4.065   0.375  0.00  0.00    -0.351 OA
ATOM      7  H4  <0> d          -4.514   1.477  -0.094  0.00  0.00     0.078 H 
ATOM      8  H5  <0> d          -3.567   1.866   1.367  0.00  0.00     0.078 H 
ATOM      9  H6  <0> d          -3.724   3.567  -1.174  0.00  0.00     0.078 H 
ATOM     10  H7  <0> d          -4.509   3.941   0.383  0.00  0.00     0.078 H 
ENDROOT
BRANCH   1  11
ATOM     11  C1  <0> d           0.020   4.125   0.242  0.00  0.00    -0.029 C 
ATOM     12  H1  <0> d           0.328   4.466  -0.746  0.00  0.00     0.036 H 
ATOM     13  H2  <0> d          -0.095   4.983   0.904  0.00  0.00     0.036 H 
ATOM     14  H3  <0> d           0.777   3.453   0.646  0.00  0.00     0.036 H 
ENDBRANCH   1  11
BRANCH   2  15
ATOM     15  C6  <0> d          -0.022   1.423  -0.451  0.00  0.00     0.236 C 
ATOM     16  O3  <0> d           1.012   2.064  -0.469  0.00  0.00    -0.642 OA
ATOM     17  O4  <0> d           0.006   0.091  -0.665  0.00  0.00    -0.642 OA
ENDBRANCH   2  15
TORSDOF 2
