REMARK  4 active torsions:
REMARK  status: ('A' for Active; 'I' for Inactive)
REMARK    1  A    between atoms: C1_1  and  N1_2 
REMARK    2  A    between atoms: C3_4  and  C6_9 
REMARK    3  A    between atoms: C6_9  and  O3_11 
REMARK    4  A    between atoms: O3_11  and  C7_12 
ROOT
ATOM      1  N1  <0> d          -0.759   1.590  -1.151  0.00  0.00    -0.356 N 
ATOM      2  C2  <0> d          -0.013   1.086   0.008  0.00  0.00     0.009 C 
ATOM      3  C3  <0> d          -0.775   1.603   1.248  0.00  0.00     0.054 C 
ATOM      4  H1  <0> d          -0.365   2.554   1.589  0.00  0.00     0.058 H 
ATOM      5  C4  <0> d          -2.205   1.785   0.683  0.00  0.00     0.023 C 
ATOM      6  C5  <0> d          -1.996   1.984  -0.801  0.00  0.00     0.220 C 
ATOM      7  O1  <0> d          -2.823   2.434  -1.565  0.00  0.00    -0.273 OA
ATOM      8  H5  <0> d           0.002  -0.004   0.002  0.00  0.00     0.065 H 
ATOM      9  H6  <0> d           1.005   1.476   0.000  0.00  0.00     0.065 H 
ATOM     10  H7  <0> d          -2.680   2.662   1.123  0.00  0.00     0.048 H 
ATOM     11  H8  <0> d          -2.806   0.894   0.868  0.00  0.00     0.048 H 
ENDROOT
BRANCH   3  12
ATOM     12  C6  <0> d          -0.756   0.583   2.357  0.00  0.00     0.264 C 
ATOM     13  O2  <0> d          -0.191  -0.473   2.197  0.00  0.00    -0.265 OA
BRANCH  12  14
ATOM     14  O3  <0> d          -1.367   0.847   3.522  0.00  0.00    -0.326 OA
BRANCH  14  15
ATOM     15  C7  <0> d          -1.309  -0.182   4.545  0.00  0.00     0.013 C 
ATOM     16  H9  <0> d          -1.775  -1.093   4.171  0.00  0.00     0.067 H 
ATOM     17  H10 <0> d          -0.269  -0.383   4.800  0.00  0.00     0.067 H 
ATOM     18  H11 <0> d          -1.841   0.159   5.434  0.00  0.00     0.067 H 
ENDBRANCH  14  15
ENDBRANCH  12  14
ENDBRANCH   3  12
BRANCH   1  19
ATOM     19  C1  <0> d          -0.225   1.655  -2.514  0.00  0.00    -0.016 C 
ATOM     20  H2  <0> d          -0.447   0.724  -3.035  0.00  0.00     0.056 H 
ATOM     21  H3  <0> d          -0.685   2.488  -3.045  0.00  0.00     0.056 H 
ATOM     22  H4  <0> d           0.855   1.801  -2.474  0.00  0.00     0.056 H 
ENDBRANCH   1  19
TORSDOF 4
