REMARK  4 active torsions:
REMARK  status: ('A' for Active; 'I' for Inactive)
REMARK    1  A    between atoms: C2_2  and  C4_7 
REMARK    2  A    between atoms: C3_5  and  O2_6 
REMARK    3  A    between atoms: C4_7  and  C5_8 
REMARK    4  A    between atoms: C5_8  and  C6_9 
ROOT
ATOM      1  C4  <0> d          -2.538   1.478   0.021  0.00  0.00    -0.009 C 
ATOM      2  H3  <0> d          -3.135   2.235  -0.487  0.00  0.00     0.043 H 
ATOM      3  H4  <0> d          -2.643   0.525  -0.498  0.00  0.00     0.043 H 
ENDROOT
BRANCH   1   4
ATOM      4  C2  <0> d          -1.089   1.894   0.017  0.00  0.00     0.083 A 
ATOM      5  C1  <0> d          -0.013   1.076   0.008  0.00  0.00     0.001 A 
ATOM      6  C3  <0> d           1.094   1.965   0.002  0.00  0.00     0.191 A 
ATOM      7  H1  <0> d           0.002  -0.004   0.002  0.00  0.00     0.094 H 
ATOM      8  N1  <0> d           0.593   3.171   0.013  0.00  0.00    -0.103 NA
ATOM      9  O1  <0> d          -0.616   3.149   0.024  0.00  0.00    -0.215 OA
BRANCH   6  10
ATOM     10  O2  <0> d           2.408   1.629  -0.011  0.00  0.00    -0.343 OA
ATOM     11  H2  <0> d           2.782   1.536  -0.898  0.00  0.00     0.219 HD
ENDBRANCH   6  10
ENDBRANCH   1   4
BRANCH   1  12
ATOM     12  C5  <0> d          -3.022   1.329   1.464  0.00  0.00     0.021 C 
ATOM     13  H5  <0> d          -2.424   0.572   1.972  0.00  0.00     0.049 H 
ATOM     14  H6  <0> d          -2.917   2.283   1.983  0.00  0.00     0.049 H 
BRANCH  12  15
ATOM     15  C6  <0> d          -4.470   0.913   1.468  0.00  0.00     0.172 C 
ATOM     16  O3  <0> d          -5.055   0.751   0.423  0.00  0.00    -0.648 OA
ATOM     17  O4  <0> d          -5.110   0.721   2.632  0.00  0.00    -0.648 OA
ENDBRANCH  12  15
ENDBRANCH   1  12
TORSDOF 4
