REMARK  3 active torsions:
REMARK  status: ('A' for Active; 'I' for Inactive)
REMARK    1  A    between atoms: C1_1  and  C2_2 
REMARK    2  A    between atoms: C2_2  and  C3_4 
REMARK    3  A    between atoms: C2_2  and  C7_10 
ROOT
ATOM      1  C3  <0> d           1.110   3.080   0.008  0.00  0.00     0.139 A 
ATOM      2  N1  <0> d           1.119   1.762   0.001  0.00  0.00    -0.245 NA
ATOM      3  C4  <0> d          -0.013   1.076   0.008  0.00  0.00     0.006 A 
ATOM      4  C5  <0> d          -1.217   1.762   0.017  0.00  0.00    -0.049 A 
ATOM      5  C6  <0> d          -1.186   3.147   0.031  0.00  0.00     0.006 A 
ATOM      6  N2  <0> d          -0.016   3.765   0.023  0.00  0.00    -0.245 NA
ATOM      7  H5  <0> d           0.002  -0.004   0.002  0.00  0.00     0.114 H 
ATOM      8  H6  <0> d          -2.156   1.230   0.019  0.00  0.00     0.087 H 
ATOM      9  H7  <0> d          -2.105   3.715   0.043  0.00  0.00     0.114 H 
ENDROOT
BRANCH   1  10
ATOM     10  C2  <0> d           2.421   3.823  -0.001  0.00  0.00     0.086 C 
ATOM     11  H1  <0> d           3.246   3.095  -0.026  0.00  0.00     0.068 H 
BRANCH  10  12
ATOM     12  C1  <0> d           2.521   4.695   1.253  0.00  0.00    -0.057 C 
ATOM     13  H2  <0> d           3.478   5.237   1.246  0.00  0.00     0.029 H 
ATOM     14  H3  <0> d           2.466   4.058   2.148  0.00  0.00     0.029 H 
ATOM     15  H4  <0> d           1.691   5.416   1.264  0.00  0.00     0.029 H 
ENDBRANCH  10  12
BRANCH  10  16
ATOM     16  C7  <0> d           2.496   4.695  -1.227  0.00  0.00     0.184 C 
ATOM     17  O1  <0> d           1.579   4.712  -2.014  0.00  0.00    -0.647 OA
ATOM     18  O2  <0> d           3.582   5.453  -1.446  0.00  0.00    -0.647 OA
ENDBRANCH  10  16
ENDBRANCH   1  10
TORSDOF 3
