REMARK  3 active torsions:
REMARK  status: ('A' for Active; 'I' for Inactive)
REMARK    1  A    between atoms: C1_1  and  C2_2 
REMARK    2  A    between atoms: C3_3  and  C5_8 
REMARK    3  A    between atoms: C5_8  and  C6_10 
ROOT
ATOM      1  C2  <0> d          -1.905   0.864   3.375  0.00  0.00     0.029 A 
ATOM      2  C3  <0> d          -1.232   0.644   2.175  0.00  0.00     0.076 A 
ATOM      3  S1  <0> d          -1.195  -1.143   2.144  0.00  0.00    -0.038 SA
ATOM      4  C4  <0> d          -2.036  -1.413   3.639  0.00  0.00     0.222 A 
ATOM      5  N1  <0> d          -2.285  -0.182   4.057  0.00  0.00    -0.331 N 
ATOM      6  O1  <0> d          -2.356  -2.587   4.228  0.00  0.00    -0.164 OA
ATOM      7  H7  <0> d          -2.828  -0.053   5.006  0.00  0.00     0.168 HD
ENDROOT
BRANCH   2   8
ATOM      8  C5  <0> d          -0.718   1.572   1.248  0.00  0.00     0.164 C 
ATOM      9  O2  <0> d          -0.843   2.764   1.448  0.00  0.00    -0.292 OA
BRANCH   8  10
ATOM     10  C6  <0> d          -0.013   1.086   0.008  0.00  0.00    -0.016 C 
ATOM     11  H4  <0> d           0.316   1.949  -0.589  0.00  0.00     0.038 H 
ATOM     12  H5  <0> d          -0.701   0.469  -0.588  0.00  0.00     0.038 H 
ATOM     13  H6  <0> d           0.863   0.485   0.296  0.00  0.00     0.038 H 
ENDBRANCH   8  10
ENDBRANCH   2   8
BRANCH   1  14
ATOM     14  C1  <0> d          -2.189   2.261   3.865  0.00  0.00    -0.036 C 
ATOM     15  H1  <0> d          -1.787   2.990   3.147  0.00  0.00     0.035 H 
ATOM     16  H2  <0> d          -1.711   2.409   4.845  0.00  0.00     0.035 H 
ATOM     17  H3  <0> d          -3.276   2.401   3.962  0.00  0.00     0.035 H 
ENDBRANCH   1  14
TORSDOF 3
