REMARK  1 active torsions:
REMARK  status: ('A' for Active; 'I' for Inactive)
REMARK    1  A    between atoms: C3_3  and  C6_8 
ROOT
ATOM      1  C1  <0> d           2.743   5.079  -0.083  0.00  0.00    -0.044 C 
ATOM      2  C2  <0> d           2.697   3.550  -0.013  0.00  0.00    -0.049 C 
ATOM      3  C3  <0> d           1.235   3.094   0.007  0.00  0.00     0.051 C 
ATOM      4  H1  <0> d           0.746   3.473   0.904  0.00  0.00     0.059 H 
ATOM      5  C4  <0> d           0.522   3.640  -1.233  0.00  0.00     0.032 C 
ATOM      6  O1  <0> d           0.629   5.065  -1.254  0.00  0.00    -0.390 OA
ATOM      7  C5  <0> d           1.972   5.548  -1.320  0.00  0.00     0.019 C 
ATOM      8  H2  <0> d           3.780   5.410  -0.153  0.00  0.00     0.036 H 
ATOM      9  H3  <0> d           2.286   5.500   0.812  0.00  0.00     0.036 H 
ATOM     10  H4  <0> d           3.197   3.212   0.895  0.00  0.00     0.034 H 
ATOM     11  H5  <0> d           3.199   3.129  -0.884  0.00  0.00     0.034 H 
ATOM     12  H6  <0> d           0.985   3.228  -2.130  0.00  0.00     0.075 H 
ATOM     13  H7  <0> d          -0.530   3.355  -1.203  0.00  0.00     0.075 H 
ATOM     14  H8  <0> d           2.454   5.161  -2.217  0.00  0.00     0.074 H 
ATOM     15  H9  <0> d           1.965   6.638  -1.352  0.00  0.00     0.074 H 
ENDROOT
BRANCH   3  16
ATOM     16  C6  <0> d           1.177   1.588  -0.001  0.00  0.00     0.179 C 
ATOM     17  O2  <0> d           2.199   0.944  -0.014  0.00  0.00    -0.648 OA
ATOM     18  O3  <0> d          -0.011   0.963   0.007  0.00  0.00    -0.648 OA
ENDBRANCH   3  16
TORSDOF 1
