REMARK  5 active torsions:
REMARK  status: ('A' for Active; 'I' for Inactive)
REMARK    1  A    between atoms: C1_1  and  O1_2 
REMARK    2  A    between atoms: O1_2  and  C2_3 
REMARK    3  A    between atoms: C2_3  and  C3_5 
REMARK    4  A    between atoms: C2_3  and  C4_7 
REMARK    5  A    between atoms: C3_5  and  O2_6 
ROOT
ATOM      1  C2  <0> d          -0.729   1.579   1.267  0.00  0.00     0.083 C 
ATOM      2  H1  <0> d          -1.776   1.277   1.232  0.00  0.00     0.094 H 
ENDROOT
BRANCH   1   3
ATOM      3  O1  <0> d          -0.647   3.004   1.334  0.00  0.00    -0.384 OA
BRANCH   3   4
ATOM      4  C1  <0> d          -1.755   3.620   1.993  0.00  0.00     0.005 C 
ATOM      5  H2  <0> d          -2.675   3.375   1.462  0.00  0.00     0.066 H 
ATOM      6  H3  <0> d          -1.818   3.253   3.017  0.00  0.00     0.066 H 
ATOM      7  H4  <0> d          -1.617   4.701   2.002  0.00  0.00     0.066 H 
ENDBRANCH   3   4
ENDBRANCH   1   3
BRANCH   1   8
ATOM      8  C3  <0> d          -0.013   1.086   0.008  0.00  0.00     0.044 C 
ATOM      9  H5  <0> d           0.002  -0.004   0.002  0.00  0.00     0.078 H 
ATOM     10  H6  <0> d           1.010   1.463   0.000  0.00  0.00     0.078 H 
BRANCH   8  11
ATOM     11  O2  <0> d          -0.704   1.559  -1.150  0.00  0.00    -0.398 OA
ATOM     12  H7  <0> d          -0.304   1.284  -1.986  0.00  0.00     0.209 HD
ENDBRANCH   8  11
ENDBRANCH   1   8
BRANCH   1  13
ATOM     13  C4  <0> d          -0.074   0.981   2.485  0.00  0.00    -0.027 A 
ATOM     14  C9  <0> d          -0.584  -0.175   3.047  0.00  0.00    -0.074 A 
ATOM     15  C8  <0> d           0.017  -0.724   4.164  0.00  0.00    -0.082 A 
ATOM     16  H12 <0> d          -1.453  -0.648   2.613  0.00  0.00     0.084 H 
ATOM     17  C7  <0> d           1.128  -0.118   4.719  0.00  0.00    -0.083 A 
ATOM     18  H11 <0> d          -0.383  -1.626   4.603  0.00  0.00     0.083 H 
ATOM     19  C6  <0> d           1.639   1.036   4.157  0.00  0.00    -0.082 A 
ATOM     20  H10 <0> d           1.597  -0.547   5.592  0.00  0.00     0.083 H 
ATOM     21  C5  <0> d           1.041   1.583   3.037  0.00  0.00    -0.074 A 
ATOM     22  H9  <0> d           2.508   1.510   4.590  0.00  0.00     0.083 H 
ATOM     23  H8  <0> d           1.443   2.483   2.595  0.00  0.00     0.084 H 
ENDBRANCH   1  13
TORSDOF 5
