REMARK  1 active torsions:
REMARK  status: ('A' for Active; 'I' for Inactive)
REMARK    1  A    between atoms: C4_4  and  C7_7 
ROOT
ATOM      1  C7  <0> d           3.655  -0.662  -0.038  0.00  0.00    -0.050 C 
ATOM      2  C8  <0> d           4.681  -1.233  -0.051  0.00  0.00     0.010 C 
ATOM      3 Cl1  <0> d           6.114  -2.030  -0.070  0.00  0.00    -0.023 Cl
ENDROOT
BRANCH   1   4
ATOM      4  C4  <0> d           2.403   0.034  -0.021  0.00  0.00     0.018 A 
ATOM      5  C3  <0> d           2.377   1.429  -0.013  0.00  0.00    -0.065 A 
ATOM      6  C2  <0> d           1.168   2.093   0.002  0.00  0.00    -0.082 A 
ATOM      7  H3  <0> d           3.302   1.987  -0.020  0.00  0.00     0.085 H 
ATOM      8  C1  <0> d          -0.017   1.379   0.010  0.00  0.00    -0.083 A 
ATOM      9  H2  <0> d           1.147   3.173   0.008  0.00  0.00     0.083 H 
ATOM     10  C6  <0> d           0.002  -0.004   0.002  0.00  0.00    -0.082 A 
ATOM     11  H1  <0> d          -0.961   1.904   0.026  0.00  0.00     0.083 H 
ATOM     12  C5  <0> d           1.204  -0.681  -0.013  0.00  0.00    -0.065 A 
ATOM     13  H5  <0> d          -0.926  -0.556   0.008  0.00  0.00     0.083 H 
ATOM     14  H4  <0> d           1.218  -1.760  -0.019  0.00  0.00     0.085 H 
ENDBRANCH   1   4
TORSDOF 1
