REMARK  3 active torsions:
REMARK  status: ('A' for Active; 'I' for Inactive)
REMARK    1  A    between atoms: C1_1  and  C2_2 
REMARK    2  A    between atoms: C2_2  and  C5_6 
REMARK    3  A    between atoms: C5_6  and  O2_7 
ROOT
ATOM      1  C2  <0> d          -0.017   1.429   0.010  0.00  0.00     0.080 C 
ATOM      2  C3  <0> d           1.516   1.409  -0.005  0.00  0.00    -0.015 C 
ATOM      3  C4  <0> d           1.271   0.051   0.666  0.00  0.00     0.023 C 
ATOM      4  O1  <0> d           0.002  -0.004   0.002  0.00  0.00    -0.378 OA
ATOM      5  H4  <0> d           1.959   1.349  -0.999  0.00  0.00     0.040 H 
ATOM      6  H5  <0> d           1.986   2.154   0.637  0.00  0.00     0.040 H 
ATOM      7  H6  <0> d           1.189   0.114   1.751  0.00  0.00     0.074 H 
ATOM      8  H7  <0> d           1.964  -0.724   0.340  0.00  0.00     0.074 H 
ENDROOT
BRANCH   1   9
ATOM      9  C1  <0> d          -0.629   2.035  -1.255  0.00  0.00    -0.046 C 
ATOM     10  H1  <0> d          -1.716   1.993  -1.189  0.00  0.00     0.031 H 
ATOM     11  H2  <0> d          -0.311   3.074  -1.350  0.00  0.00     0.031 H 
ATOM     12  H3  <0> d          -0.295   1.472  -2.126  0.00  0.00     0.031 H 
ENDBRANCH   1   9
BRANCH   1  13
ATOM     13  C5  <0> d          -0.605   2.022   1.292  0.00  0.00     0.045 C 
ATOM     14  H8  <0> d          -0.254   1.449   2.151  0.00  0.00     0.078 H 
ATOM     15  H9  <0> d          -0.285   3.059   1.393  0.00  0.00     0.078 H 
BRANCH  13  16
ATOM     16  O2  <0> d          -2.031   1.967   1.233  0.00  0.00    -0.398 OA
ATOM     17  H10 <0> d          -2.472   2.326   2.015  0.00  0.00     0.209 HD
ENDBRANCH  13  16
ENDBRANCH   1  13
TORSDOF 3
