REMARK  3 active torsions:
REMARK  status: ('A' for Active; 'I' for Inactive)
REMARK    1  A    between atoms: C4_5  and  C5_6 
REMARK    2  A    between atoms: C5_6  and  C6_7 
REMARK    3  A    between atoms: C6_7  and  C7_8 
ROOT
ATOM      1  C5  <0> d          -2.014   4.243   0.042  0.00  0.00    -0.032 C 
ATOM      2  H4  <0> d          -2.857   3.788   0.561  0.00  0.00     0.040 H 
ATOM      3  H5  <0> d          -1.720   5.157   0.558  0.00  0.00     0.040 H 
ENDROOT
BRANCH   1   4
ATOM      4  C4  <0> d          -0.855   3.279   0.027  0.00  0.00    -0.051 A 
ATOM      5  C1  <0> d          -1.077   1.915   0.017  0.00  0.00    -0.070 A 
ATOM      6  C2  <0> d          -0.013   1.076   0.008  0.00  0.00    -0.045 A 
ATOM      7  H1  <0> d          -2.083   1.524   0.018  0.00  0.00     0.085 H 
ATOM      8  S1  <0> d           1.359   2.219   0.001  0.00  0.00    -0.113 SA
ATOM      9  H2  <0> d           0.002  -0.004   0.002  0.00  0.00     0.095 H 
ATOM     10  C3  <0> d           0.421   3.738   0.017  0.00  0.00    -0.039 A 
ATOM     11  H3  <0> d           0.777   4.757   0.019  0.00  0.00     0.095 H 
ENDBRANCH   1   4
BRANCH   1  12
ATOM     12  C6  <0> d          -2.419   4.576  -1.395  0.00  0.00     0.019 C 
ATOM     13  H6  <0> d          -1.575   5.031  -1.914  0.00  0.00     0.049 H 
ATOM     14  H7  <0> d          -2.713   3.662  -1.911  0.00  0.00     0.049 H 
BRANCH  12  15
ATOM     15  C7  <0> d          -3.577   5.539  -1.380  0.00  0.00     0.172 C 
ATOM     16  O1  <0> d          -4.033   5.920  -0.327  0.00  0.00    -0.648 OA
ATOM     17  O2  <0> d          -4.104   5.974  -2.535  0.00  0.00    -0.648 OA
ENDBRANCH  12  15
ENDBRANCH   1  12
TORSDOF 3
