REMARK  3 active torsions:
REMARK  status: ('A' for Active; 'I' for Inactive)
REMARK    1  A    between atoms: C4_4  and  N1_9 
REMARK    2  A    between atoms: C5_5  and  C7_7 
REMARK    3  A    between atoms: C7_7  and  O1_8 
ROOT
ATOM      1  C1  <0> d           0.040  -2.771  -0.012  0.00  0.00    -0.082 A 
ATOM      2  C2  <0> d          -1.168  -2.097   0.003  0.00  0.00    -0.081 A 
ATOM      3  C3  <0> d          -1.190  -0.717   0.015  0.00  0.00    -0.057 A 
ATOM      4  C4  <0> d           0.002  -0.004   0.002  0.00  0.00     0.034 A 
ATOM      5  C5  <0> d           1.213  -0.684  -0.013  0.00  0.00    -0.009 A 
ATOM      6  C6  <0> d           1.228  -2.065  -0.020  0.00  0.00    -0.073 A 
ATOM      7  H1  <0> d           0.054  -3.851  -0.017  0.00  0.00     0.083 H 
ATOM      8  H2  <0> d          -2.095  -2.652   0.010  0.00  0.00     0.083 H 
ATOM      9  H3  <0> d          -2.134  -0.191   0.032  0.00  0.00     0.086 H 
ATOM     10  H4  <0> d           2.170  -2.594  -0.032  0.00  0.00     0.084 H 
ENDROOT
BRANCH   5  11
ATOM     11  C7  <0> d           2.510   0.085  -0.021  0.00  0.00     0.043 C 
ATOM     12  H5  <0> d           2.551   0.717  -0.908  0.00  0.00     0.081 H 
ATOM     13  H6  <0> d           2.568   0.708   0.871  0.00  0.00     0.081 H 
BRANCH  11  14
ATOM     14  O1  <0> d           3.606  -0.831  -0.037  0.00  0.00    -0.396 OA
ATOM     15  H7  <0> d           4.474  -0.405  -0.043  0.00  0.00     0.209 HD
ENDBRANCH  11  14
ENDBRANCH   5  11
BRANCH   4  16
ATOM     16  N1  <0> d          -0.017   1.393   0.010  0.00  0.00    -0.399 N 
ATOM     17  H8  <0> d           0.817   1.889   0.004  0.00  0.00     0.156 HD
ATOM     18  H9  <0> d          -0.863   1.866   0.016  0.00  0.00     0.156 HD
ENDBRANCH   4  16
TORSDOF 3
