REMARK  0 active torsions:
REMARK  status: ('A' for Active; 'I' for Inactive)
ROOT
ATOM      1  C1  <0> d          -4.213   1.641   2.366  0.00  0.00    -0.081 A 
ATOM      2  C2  <0> d          -4.888   1.427   1.179  0.00  0.00    -0.080 A 
ATOM      3  C3  <0> d          -4.188   1.257  -0.001  0.00  0.00    -0.049 A 
ATOM      4  C4  <0> d          -2.802   1.301   0.002  0.00  0.00     0.095 A 
ATOM      5  C5  <0> d          -2.124   1.519   1.199  0.00  0.00     0.061 A 
ATOM      6  C6  <0> d          -2.831   1.687   2.379  0.00  0.00    -0.055 A 
ATOM      7  N1  <0> d          -0.720   1.569   1.206  0.00  0.00    -0.386 N 
ATOM      8  C7  <0> d          -0.013   1.086   0.008  0.00  0.00     0.013 C 
ATOM      9  C8  <0> d          -0.773   1.603  -1.221  0.00  0.00     0.041 C 
ATOM     10  O1  <0> d          -2.121   1.130  -1.162  0.00  0.00    -0.347 OA
ATOM     11  H1  <0> d          -4.765   1.772   3.285  0.00  0.00     0.083 H 
ATOM     12  H2  <0> d          -5.967   1.392   1.173  0.00  0.00     0.083 H 
ATOM     13  H3  <0> d          -4.720   1.090  -0.925  0.00  0.00     0.087 H 
ATOM     14  H4  <0> d          -2.304   1.855   3.306  0.00  0.00     0.087 H 
ATOM     15  H5  <0> d          -0.233   1.911   1.973  0.00  0.00     0.159 HD
ATOM     16  H6  <0> d           0.002  -0.004   0.002  0.00  0.00     0.067 H 
ATOM     17  H7  <0> d           1.008   1.470   0.000  0.00  0.00     0.067 H 
ATOM     18  H8  <0> d          -0.769   2.693  -1.222  0.00  0.00     0.077 H 
ATOM     19  H9  <0> d          -0.296   1.234  -2.129  0.00  0.00     0.077 H 
ENDROOT
TORSDOF 0
