REMARK  3 active torsions:
REMARK  status: ('A' for Active; 'I' for Inactive)
REMARK    1  A    between atoms: C1_1  and  C2_2 
REMARK    2  A    between atoms: C1_1  and  N3_7 
REMARK    3  A    between atoms: C2_2  and  N1_3 
REMARK       I    between atoms: N1_3  and  C3_4 
REMARK       I    between atoms: C3_4  and  N2_6 
REMARK       I    between atoms: N3_7  and  C4_8 
REMARK       I    between atoms: C4_8  and  N4_10 
ROOT
ATOM      1  C1  <0> d           3.571   2.196  -0.020  0.00  0.00     0.011 C 
ATOM      2  H1  <0> d           3.497   2.827  -0.906  0.00  0.00     0.066 H 
ATOM      3  H2  <0> d           3.514   2.817   0.874  0.00  0.00     0.066 H 
ENDROOT
BRANCH   1   4
ATOM      4  C2  <0> d           2.422   1.186  -0.015  0.00  0.00     0.011 C 
ATOM      5  H3  <0> d           2.497   0.556   0.871  0.00  0.00     0.066 H 
ATOM      6  H4  <0> d           2.480   0.565  -0.909  0.00  0.00     0.066 H 
BRANCH   4   7
ATOM      7  N1  <0> d           1.143   1.901   0.001  0.00  0.00    -0.342 N 
ATOM      8  C3  <0> d          -0.014   1.212   0.009  0.00  0.00     0.313 C 
ATOM      9  O1  <0> d           0.002  -0.004   0.002  0.00  0.00    -0.248 OA
ATOM     10  N2  <0> d          -1.191   1.870   0.018  0.00  0.00    -0.352 N 
ATOM     11  H6  <0> d          -2.024   1.373   0.019  0.00  0.00     0.160 HD
ATOM     12  H7  <0> d          -1.204   2.840   0.023  0.00  0.00     0.160 HD
ATOM     13  H5  <0> d           1.130   2.871   0.007  0.00  0.00     0.164 HD
ENDBRANCH   4   7
ENDBRANCH   1   4
BRANCH   1  14
ATOM     14  N3  <0> d           4.850   1.481  -0.036  0.00  0.00    -0.342 N 
ATOM     15  C4  <0> d           6.008   2.171  -0.044  0.00  0.00     0.313 C 
ATOM     16  O2  <0> d           5.991   3.386  -0.037  0.00  0.00    -0.248 OA
ATOM     17  N4  <0> d           7.184   1.513  -0.058  0.00  0.00    -0.352 N 
ATOM     18  H9  <0> d           7.197   0.543  -0.064  0.00  0.00     0.160 HD
ATOM     19  H10 <0> d           8.017   2.009  -0.064  0.00  0.00     0.160 HD
ATOM     20  H8  <0> d           4.863   0.511  -0.042  0.00  0.00     0.164 HD
ENDBRANCH   1  14
TORSDOF 3
