REMARK  1 active torsions:
REMARK  status: ('A' for Active; 'I' for Inactive)
REMARK    1  A    between atoms: N1_4  and  C4_6 
ROOT
ATOM      1  C1  <0> d          -0.016   1.304   0.009  0.00  0.00     0.044 A 
ATOM      2  C2  <0> d           1.307   1.760  -0.001  0.00  0.00     0.070 A 
ATOM      3  C3  <0> d           2.120   0.677  -0.015  0.00  0.00     0.021 A 
ATOM      4  N1  <0> d           1.338  -0.424  -0.013  0.00  0.00    -0.275 N 
ATOM      5  N2  <0> d           0.002  -0.004   0.002  0.00  0.00    -0.183 NA
ATOM      6 Cl1  <0> d           1.817   3.419   0.003  0.00  0.00    -0.081 Cl
ATOM      7  H1  <0> d          -0.899   1.925   0.025  0.00  0.00     0.120 H 
ATOM      8  H2  <0> d           3.200   0.692  -0.025  0.00  0.00     0.116 H 
ENDROOT
BRANCH   4   9
ATOM      9  C4  <0> d           1.805  -1.812  -0.025  0.00  0.00     0.034 A 
ATOM     10  C6  <0> d           2.129  -2.437  -1.384  0.00  0.00    -0.042 A 
ATOM     11  C5  <0> d           3.261  -2.065  -0.424  0.00  0.00    -0.042 A 
ATOM     12  H6  <0> d           1.909  -3.496  -1.516  0.00  0.00     0.036 H 
ATOM     13  H7  <0> d           1.995  -1.815  -2.269  0.00  0.00     0.036 H 
ATOM     14  H4  <0> d           3.871  -1.198  -0.677  0.00  0.00     0.036 H 
ATOM     15  H5  <0> d           3.785  -2.879   0.076  0.00  0.00     0.036 H 
ATOM     16  H3  <0> d           1.372  -2.461   0.736  0.00  0.00     0.075 H 
ENDBRANCH   4   9
TORSDOF 1
