REMARK  4 active torsions:
REMARK  status: ('A' for Active; 'I' for Inactive)
REMARK    1  A    between atoms: C1_1  and  C2_2 
REMARK    2  A    between atoms: C4_4  and  C7_8 
REMARK    3  A    between atoms: C7_8  and  O2_10 
REMARK    4  A    between atoms: O2_10  and  C8_11 
ROOT
ATOM      1  C2  <0> d           1.128  -0.688  -0.012  0.00  0.00     0.031 A 
ATOM      2  C3  <0> d           2.350  -0.044  -0.021  0.00  0.00    -0.044 A 
ATOM      3  C4  <0> d           2.379   1.355  -0.014  0.00  0.00     0.042 A 
ATOM      4  C5  <0> d           1.160   2.039   0.002  0.00  0.00    -0.050 A 
ATOM      5  C6  <0> d          -0.016   1.314   0.009  0.00  0.00     0.003 A 
ATOM      6  N1  <0> d           0.002  -0.004   0.002  0.00  0.00    -0.266 NA
ATOM      7  H4  <0> d           3.269  -0.611  -0.033  0.00  0.00     0.088 H 
ATOM      8  H5  <0> d           1.137   3.119   0.008  0.00  0.00     0.087 H 
ATOM      9  H6  <0> d          -0.963   1.834   0.017  0.00  0.00     0.114 H 
ENDROOT
BRANCH   3  10
ATOM     10  C7  <0> d           3.664   2.089  -0.022  0.00  0.00     0.293 C 
ATOM     11  O1  <0> d           4.713   1.478  -0.035  0.00  0.00    -0.259 OA
BRANCH  10  12
ATOM     12  O2  <0> d           3.670   3.436  -0.015  0.00  0.00    -0.323 OA
BRANCH  12  13
ATOM     13  C8  <0> d           4.967   4.089  -0.024  0.00  0.00     0.013 C 
ATOM     14  H7  <0> d           4.829   5.171  -0.017  0.00  0.00     0.067 H 
ATOM     15  H8  <0> d           5.531   3.789   0.859  0.00  0.00     0.067 H 
ATOM     16  H9  <0> d           5.514   3.799  -0.921  0.00  0.00     0.067 H 
ENDBRANCH  12  13
ENDBRANCH  10  12
ENDBRANCH   3  10
BRANCH   1  17
ATOM     17  C1  <0> d           1.083  -2.195  -0.020  0.00  0.00    -0.035 C 
ATOM     18  H1  <0> d           1.062  -2.552  -1.050  0.00  0.00     0.035 H 
ATOM     19  H2  <0> d           1.966  -2.587   0.483  0.00  0.00     0.035 H 
ATOM     20  H3  <0> d           0.187  -2.534   0.500  0.00  0.00     0.035 H 
ENDBRANCH   1  17
TORSDOF 4
