REMARK  4 active torsions:
REMARK  status: ('A' for Active; 'I' for Inactive)
REMARK    1  A    between atoms: C3_3  and  C4_4 
REMARK    2  A    between atoms: C4_4  and  C5_5 
REMARK    3  A    between atoms: C4_4  and  C7_9 
REMARK    4  A    between atoms: C5_5  and  C6_6 
ROOT
ATOM      1  C4  <0> d          -0.729   1.579   1.267  0.00  0.00    -0.038 C 
ATOM      2  H6  <0> d          -0.823   2.675   1.230  0.00  0.00     0.042 H 
ENDROOT
BRANCH   1   3
ATOM      3  C3  <0> d          -2.121   0.950   1.341  0.00  0.00    -0.050 A 
ATOM      4  C1  <0> d          -3.325   1.873   1.144  0.00  0.00    -0.061 A 
ATOM      5  C2  <0> d          -3.002   1.322   2.535  0.00  0.00    -0.061 A 
ATOM      6  H1  <0> d          -2.984   2.843   0.753  0.00  0.00     0.033 H 
ATOM      7  H2  <0> d          -4.026   1.415   0.430  0.00  0.00     0.033 H 
ATOM      8  H3  <0> d          -2.812   2.158   3.225  0.00  0.00     0.033 H 
ATOM      9  H4  <0> d          -3.854   0.731   2.902  0.00  0.00     0.033 H 
ATOM     10  H5  <0> d          -1.782   0.006   0.889  0.00  0.00     0.040 H 
ENDBRANCH   1   3
BRANCH   1  11
ATOM     11  C5  <0> d          -0.013   1.086   0.008  0.00  0.00     0.020 C 
ATOM     12  H7  <0> d           1.019   1.467   0.000  0.00  0.00     0.049 H 
ATOM     13  H8  <0> d           0.002  -0.014   0.002  0.00  0.00     0.049 H 
BRANCH  11  14
ATOM     14  C6  <0> d          -0.742   1.585  -1.213  0.00  0.00     0.172 C 
ATOM     15  O1  <0> d          -1.732   2.266  -1.089  0.00  0.00    -0.648 OA
ATOM     16  O2  <0> d          -0.290   1.274  -2.438  0.00  0.00    -0.648 OA
ENDBRANCH  11  14
ENDBRANCH   1  11
BRANCH   1  17
ATOM     17  C7  <0> d           0.079   1.179   2.503  0.00  0.00    -0.050 A 
ATOM     18  C9  <0> d           1.508   1.713   2.617  0.00  0.00    -0.061 A 
ATOM     19  C8  <0> d           0.406   2.275   3.519  0.00  0.00    -0.061 A 
ATOM     20  H12 <0> d           2.187   0.890   2.886  0.00  0.00     0.033 H 
ATOM     21  H13 <0> d           1.816   2.143   1.653  0.00  0.00     0.033 H 
ATOM     22  H10 <0> d          -0.196   3.169   3.300  0.00  0.00     0.033 H 
ATOM     23  H11 <0> d           0.174   1.916   4.533  0.00  0.00     0.033 H 
ATOM     24  H9  <0> d          -0.386   0.183   2.555  0.00  0.00     0.040 H 
ENDBRANCH   1  17
TORSDOF 4
