REMARK  1 active torsions:
REMARK  status: ('A' for Active; 'I' for Inactive)
REMARK    1  A    between atoms: C1_1  and  C2_2 
REMARK       I    between atoms: C2_2  and  N1_4 
ROOT
ATOM      1  C2  <0> d           1.690   3.058   0.002  0.00  0.00     0.239 C 
ATOM      2  O1  <0> d           0.878   3.953   0.014  0.00  0.00    -0.272 OA
ATOM      3  N1  <0> d           1.278   1.775  -0.001  0.00  0.00    -0.213 N 
ATOM      4  C3  <0> d          -0.016   1.346   0.009  0.00  0.00     0.009 A 
ATOM      5  C4  <0> d           0.002  -0.004   0.002  0.00  0.00    -0.047 A 
ATOM      6  C5  <0> d           1.342  -0.419  -0.013  0.00  0.00     0.024 A 
ATOM      7  N2  <0> d           2.103   0.643  -0.015  0.00  0.00    -0.178 NA
ATOM      8  H4  <0> d          -0.896   1.972   0.017  0.00  0.00     0.115 H 
ATOM      9  H5  <0> d          -0.863  -0.651   0.007  0.00  0.00     0.087 H 
ATOM     10  H6  <0> d           1.686  -1.442  -0.022  0.00  0.00     0.117 H 
ENDROOT
BRANCH   1  11
ATOM     11  C1  <0> d           3.162   3.377  -0.010  0.00  0.00    -0.001 C 
ATOM     12  H1  <0> d           3.508   3.459  -1.041  0.00  0.00     0.040 H 
ATOM     13  H2  <0> d           3.334   4.321   0.507  0.00  0.00     0.040 H 
ATOM     14  H3  <0> d           3.711   2.582   0.494  0.00  0.00     0.040 H 
ENDBRANCH   1  11
TORSDOF 1
