REMARK  1 active torsions:
REMARK  status: ('A' for Active; 'I' for Inactive)
REMARK    1  A    between atoms: C6_6  and  N1_7 
ROOT
ATOM      1  C1  <0> d          -0.017   1.384   0.010  0.00  0.00    -0.056 A 
ATOM      2  C2  <0> d           1.166   2.093   0.002  0.00  0.00    -0.055 A 
ATOM      3  C3  <0> d           2.390   1.422  -0.013  0.00  0.00     0.034 A 
ATOM      4  C4  <0> d           2.401   0.036  -0.021  0.00  0.00    -0.028 A 
ATOM      5  C5  <0> d           1.218  -0.675  -0.013  0.00  0.00    -0.049 A 
ATOM      6  C6  <0> d           0.002  -0.004   0.002  0.00  0.00     0.026 A 
ATOM      7  C7  <0> d           3.839  -0.433  -0.038  0.00  0.00    -0.024 A 
ATOM      8  C8  <0> d           4.669   0.861  -0.039  0.00  0.00    -0.004 A 
ATOM      9  N2  <0> d           3.687   1.948  -0.024  0.00  0.00    -0.389 N 
ATOM     10  H1  <0> d          -0.960   1.910   0.026  0.00  0.00     0.087 H 
ATOM     11  H2  <0> d           1.145   3.172   0.008  0.00  0.00     0.087 H 
ATOM     12  H3  <0> d           1.237  -1.755  -0.019  0.00  0.00     0.087 H 
ATOM     13  H6  <0> d           4.056  -1.024   0.852  0.00  0.00     0.042 H 
ATOM     14  H7  <0> d           4.038  -1.014  -0.938  0.00  0.00     0.042 H 
ATOM     15  H8  <0> d           5.298   0.907   0.850  0.00  0.00     0.064 H 
ATOM     16  H9  <0> d           5.281   0.916  -0.940  0.00  0.00     0.064 H 
ATOM     17  H10 <0> d           3.904   2.893  -0.021  0.00  0.00     0.159 HD
ENDROOT
BRANCH   6  18
ATOM     18  N1  <0> d          -1.199  -0.724   0.010  0.00  0.00    -0.399 N 
ATOM     19  H4  <0> d          -2.046  -0.253   0.020  0.00  0.00     0.156 HD
ATOM     20  H5  <0> d          -1.183  -1.694   0.004  0.00  0.00     0.156 HD
ENDBRANCH   6  18
TORSDOF 1
