REMARK  3 active torsions:
REMARK  status: ('A' for Active; 'I' for Inactive)
REMARK    1  A    between atoms: C1_1  and  C2_2 
REMARK       I    between atoms: C2_2  and  N1_4 
REMARK    2  A    between atoms: N1_4  and  C3_5 
REMARK    3  A    between atoms: C4_6  and  N4_10 
ROOT
ATOM      1  C3  <0> d          -2.554   1.026   0.020  0.00  0.00     0.207 A 
ATOM      2  C4  <0> d          -1.225   1.645   0.017  0.00  0.00     0.199 A 
ATOM      3  N2  <0> d          -1.375   2.940   0.030  0.00  0.00    -0.083 NA
ATOM      4  O2  <0> d          -2.764   3.216   0.033  0.00  0.00    -0.103 OA
ATOM      5  N3  <0> d          -3.448   1.975   0.029  0.00  0.00    -0.083 NA
ENDROOT
BRANCH   1   6
ATOM      6  N1  <0> d          -2.818  -0.343   0.013  0.00  0.00    -0.307 N 
ATOM      7  C2  <0> d          -4.092  -0.784   0.017  0.00  0.00     0.219 C 
ATOM      8  O1  <0> d          -5.008   0.010   0.026  0.00  0.00    -0.274 OA
ATOM      9  H4  <0> d          -2.085  -0.978   0.006  0.00  0.00     0.170 HD
BRANCH   7  10
ATOM     10  C1  <0> d          -4.376  -2.264   0.010  0.00  0.00    -0.002 C 
ATOM     11  H1  <0> d          -3.436  -2.815   0.002  0.00  0.00     0.040 H 
ATOM     12  H2  <0> d          -4.945  -2.529   0.901  0.00  0.00     0.040 H 
ATOM     13  H3  <0> d          -4.954  -2.519  -0.879  0.00  0.00     0.040 H 
ENDBRANCH   7  10
ENDBRANCH   1   6
BRANCH   2  14
ATOM     14  N4  <0> d          -0.011   0.966   0.007  0.00  0.00    -0.379 N 
ATOM     15  H5  <0> d           0.002  -0.004   0.002  0.00  0.00     0.158 HD
ATOM     16  H6  <0> d           0.822   1.462   0.002  0.00  0.00     0.158 HD
ENDBRANCH   2  14
TORSDOF 3
