REMARK  1 active torsions:
REMARK  status: ('A' for Active; 'I' for Inactive)
REMARK    1  A    between atoms: C1_1  and  C2_2 
ROOT
ATOM      1  C2  <0> d           0.002  -0.004   0.002  0.00  0.00    -0.055 A 
ATOM      2  C3  <0> d           0.007  -0.746  -1.092  0.00  0.00    -0.092 A 
ATOM      3  C4  <0> d           0.030  -2.199  -0.678  0.00  0.00    -0.025 A 
ATOM      4  C5  <0> d           0.037  -2.188   0.831  0.00  0.00    -0.044 A 
ATOM      5  C6  <0> d           0.025  -0.845   1.213  0.00  0.00    -0.024 A 
ATOM      6  C7  <0> d           0.033  -0.524   2.572  0.00  0.00    -0.072 A 
ATOM      7  C8  <0> d           0.056  -1.529   3.517  0.00  0.00    -0.082 A 
ATOM      8  C9  <0> d           0.071  -2.856   3.125  0.00  0.00    -0.082 A 
ATOM      9  C10 <0> d           0.055  -3.183   1.779  0.00  0.00    -0.076 A 
ATOM     10  H4  <0> d          -0.003  -0.377  -2.107  0.00  0.00     0.078 H 
ATOM     11  H5  <0> d          -0.859  -2.710  -1.048  0.00  0.00     0.046 H 
ATOM     12  H6  <0> d           0.930  -2.685  -1.056  0.00  0.00     0.046 H 
ATOM     13  H7  <0> d           0.021   0.510   2.884  0.00  0.00     0.084 H 
ATOM     14  H8  <0> d           0.062  -1.279   4.567  0.00  0.00     0.083 H 
ATOM     15  H9  <0> d           0.089  -3.638   3.870  0.00  0.00     0.083 H 
ATOM     16  H10 <0> d           0.068  -4.220   1.475  0.00  0.00     0.084 H 
ENDROOT
BRANCH   1  17
ATOM     17  C1  <0> d          -0.018   1.503   0.010  0.00  0.00    -0.051 C 
ATOM     18  H1  <0> d           1.004   1.880   0.003  0.00  0.00     0.033 H 
ATOM     19  H2  <0> d          -0.545   1.864  -0.873  0.00  0.00     0.033 H 
ATOM     20  H3  <0> d          -0.529   1.854   0.907  0.00  0.00     0.033 H 
ENDBRANCH   1  17
TORSDOF 1
