REMARK  7 active torsions:
REMARK  status: ('A' for Active; 'I' for Inactive)
REMARK    1  A    between atoms: C1_1  and  C2_2 
REMARK    2  A    between atoms: C2_2  and  C3_3 
REMARK    3  A    between atoms: C2_2  and  C4_4 
REMARK    4  A    between atoms: C2_2  and  O1_5 
REMARK    5  A    between atoms: O1_5  and  C5_6 
REMARK       I    between atoms: C5_6  and  N1_8 
REMARK    6  A    between atoms: N1_8  and  C6_9 
REMARK    7  A    between atoms: C6_9  and  C7_10 
ROOT
ATOM      1  C7  <0> d          -1.045   3.509   0.026  0.00  0.00    -0.098 C 
ATOM      2  C8  <0> d          -0.847   4.667   0.031  0.00  0.00    -0.152 C 
ATOM      3  H13 <0> d          -0.669   5.701   0.036  0.00  0.00     0.166 H 
ENDROOT
BRANCH   1   4
ATOM      4  C6  <0> d          -1.295   2.059   0.019  0.00  0.00     0.052 C 
ATOM      5  H11 <0> d          -1.867   1.792  -0.869  0.00  0.00     0.083 H 
ATOM      6  H12 <0> d          -1.859   1.783   0.911  0.00  0.00     0.083 H 
BRANCH   4   7
ATOM      7  N1  <0> d          -0.016   1.344   0.009  0.00  0.00    -0.327 N 
ATOM      8  C5  <0> d           0.002  -0.004   0.002  0.00  0.00     0.362 C 
ATOM      9  O2  <0> d          -1.042  -0.626   0.009  0.00  0.00    -0.238 OA
ATOM     10  H10 <0> d           0.817   1.840   0.004  0.00  0.00     0.165 HD
BRANCH   8  11
ATOM     11  O1  <0> d           1.177  -0.661  -0.013  0.00  0.00    -0.294 OA
BRANCH  11  12
ATOM     12  C2  <0> d           1.121  -2.112  -0.020  0.00  0.00     0.061 C 
BRANCH  12  13
ATOM     13  C1  <0> d           0.368  -2.587  -1.265  0.00  0.00    -0.048 C 
ATOM     14  H1  <0> d           0.887  -2.239  -2.158  0.00  0.00     0.031 H 
ATOM     15  H2  <0> d           0.326  -3.676  -1.270  0.00  0.00     0.031 H 
ATOM     16  H3  <0> d          -0.644  -2.184  -1.253  0.00  0.00     0.031 H 
ENDBRANCH  12  13
BRANCH  12  17
ATOM     17  C3  <0> d           2.542  -2.678  -0.037  0.00  0.00    -0.048 C 
ATOM     18  H4  <0> d           3.078  -2.339   0.850  0.00  0.00     0.031 H 
ATOM     19  H5  <0> d           2.500  -3.767  -0.042  0.00  0.00     0.031 H 
ATOM     20  H6  <0> d           3.061  -2.330  -0.930  0.00  0.00     0.031 H 
ENDBRANCH  12  17
BRANCH  12  21
ATOM     21  C4  <0> d           0.392  -2.601   1.234  0.00  0.00    -0.048 C 
ATOM     22  H7  <0> d          -0.621  -2.198   1.246  0.00  0.00     0.031 H 
ATOM     23  H8  <0> d           0.350  -3.690   1.228  0.00  0.00     0.031 H 
ATOM     24  H9  <0> d           0.928  -2.262   2.120  0.00  0.00     0.031 H 
ENDBRANCH  12  21
ENDBRANCH  11  12
ENDBRANCH   8  11
ENDBRANCH   4   7
ENDBRANCH   1   4
TORSDOF 7
