REMARK  1 active torsions:
REMARK  status: ('A' for Active; 'I' for Inactive)
REMARK    1  A    between atoms: C1_1  and  C2_2 
ROOT
ATOM      1  C2  <0> d           1.101   3.599   0.020  0.00  0.00    -0.006 C 
ATOM      2  H1  <0> d           0.866   3.923   1.044  0.00  0.00     0.049 H 
ATOM      3  C3  <0> d           2.446   4.188  -0.407  0.00  0.00     0.118 C 
ATOM      4  N1  <0> d           3.508   3.550   0.387  0.00  0.00     0.088 N 
ATOM      5  C4  <0> d           3.691   2.158  -0.035  0.00  0.00     0.135 C 
ATOM      6  C5  <0> d           2.376   1.424  -0.017  0.00  0.00    -0.024 A 
ATOM      7  C6  <0> d           1.170   2.093   0.002  0.00  0.00    -0.045 A 
ATOM      8  C7  <0> d          -0.017   1.377   0.010  0.00  0.00    -0.076 A 
ATOM      9  C8  <0> d           0.002  -0.004   0.002  0.00  0.00    -0.082 A 
ATOM     10  C9  <0> d           1.210  -0.675  -0.014  0.00  0.00    -0.082 A 
ATOM     11  C10 <0> d           2.393   0.038  -0.024  0.00  0.00    -0.075 A 
ATOM     12  H5  <0> d           2.608   3.993  -1.477  0.00  0.00     0.080 H 
ATOM     13  H6  <0> d           2.444   5.273  -0.228  0.00  0.00     0.080 H 
ATOM     14  H7  <0> d           4.452   4.096   0.242  0.00  0.00     0.316 HD
ATOM     15  H8  <0> d           4.099   2.134  -1.056  0.00  0.00     0.086 H 
ATOM     16  H9  <0> d           4.389   1.655   0.651  0.00  0.00     0.086 H 
ATOM     17  H10 <0> d          -0.961   1.901   0.017  0.00  0.00     0.084 H 
ATOM     18  H11 <0> d          -0.925  -0.558   0.009  0.00  0.00     0.083 H 
ATOM     19  H12 <0> d           1.229  -1.755  -0.018  0.00  0.00     0.083 H 
ATOM     20  H13 <0> d           3.336  -0.488  -0.037  0.00  0.00     0.084 H 
ENDROOT
BRANCH   1  21
ATOM     21  C1  <0> d           0.011   4.069  -0.945  0.00  0.00    -0.067 C 
ATOM     22  H2  <0> d          -0.040   5.168  -0.933  0.00  0.00     0.028 H 
ATOM     23  H3  <0> d          -0.959   3.653  -0.634  0.00  0.00     0.028 H 
ATOM     24  H4  <0> d           0.248   3.724  -1.962  0.00  0.00     0.028 H 
ENDBRANCH   1  21
TORSDOF 1
