REMARK  4 active torsions:
REMARK  status: ('A' for Active; 'I' for Inactive)
REMARK    1  A    between atoms: C1_1  and  C2_2 
REMARK    2  A    between atoms: C2_2  and  C3_3 
REMARK       I    between atoms: C3_3  and  N1_5 
REMARK    3  A    between atoms: N1_5  and  C4_6 
REMARK    4  A    between atoms: N4_9  and  C5_11 
ROOT
ATOM      1  C3  <0> d          -0.014   1.209   0.009  0.00  0.00     0.235 C 
ATOM      2  O1  <0> d           0.002  -0.004   0.002  0.00  0.00    -0.273 OA
ATOM      3  N1  <0> d          -1.191   1.867   0.018  0.00  0.00    -0.153 N 
ATOM      4  H6  <0> d          -1.206   2.966   0.024  0.00  0.00     0.187 HD
ENDROOT
BRANCH   3   5
ATOM      5  C4  <0> d          -2.393   1.151   0.020  0.00  0.00     0.767 A 
ATOM      6  N5  <0> d          -3.605   1.664   0.028  0.00  0.00     0.041 NA
ATOM      7  N4  <0> d          -4.487   0.571   0.026  0.00  0.00    -0.158 N 
ATOM      8  N3  <0> d          -3.765  -0.497   0.017  0.00  0.00    -0.032 NA
ATOM      9  N2  <0> d          -2.520  -0.177   0.007  0.00  0.00     0.065 NA
BRANCH   7  10
ATOM     10  C5  <0> d          -5.950   0.633   0.033  0.00  0.00     0.022 C 
ATOM     11  H7  <0> d          -6.273   1.685   0.040  0.00  0.00     0.062 H 
ATOM     12  H8  <0> d          -6.335   0.126   0.930  0.00  0.00     0.062 H 
ATOM     13  H9  <0> d          -6.343   0.136  -0.866  0.00  0.00     0.062 H 
ENDBRANCH   7  10
ENDBRANCH   3   5
BRANCH   1  14
ATOM     14  C2  <0> d           1.280   1.980   0.001  0.00  0.00     0.007 C 
ATOM     15  H4  <0> d           1.339   2.608   0.901  0.00  0.00     0.046 H 
ATOM     16  H5  <0> d           1.321   2.618  -0.895  0.00  0.00     0.046 H 
BRANCH  14  17
ATOM     17  C1  <0> d           2.457   1.002  -0.016  0.00  0.00    -0.068 C 
ATOM     18  H1  <0> d           3.402   1.565  -0.022  0.00  0.00     0.028 H 
ATOM     19  H2  <0> d           2.398   0.373  -0.917  0.00  0.00     0.028 H 
ATOM     20  H3  <0> d           2.416   0.363   0.879  0.00  0.00     0.028 H 
ENDBRANCH  14  17
ENDBRANCH   1  14
TORSDOF 4
