REMARK  1 active torsions:
REMARK  status: ('A' for Active; 'I' for Inactive)
REMARK    1  A    between atoms: C2_2  and  C5_11 
ROOT
ATOM      1  C1  <0> d          -0.013   1.076  -0.006  0.00  0.00    -0.007 A 
ATOM      2  C2  <0> d          -1.189   1.738   0.017  0.00  0.00     0.030 A 
ATOM      3  C3  <0> d          -1.182   3.154   0.045  0.00  0.00     0.257 A 
ATOM      4  O1  <0> d          -2.231   3.773   0.071  0.00  0.00    -0.267 OA
ATOM      5  N1  <0> d          -0.004   3.810   0.037  0.00  0.00    -0.275 N 
ATOM      6  H1  <0> d           0.009   4.810   0.052  0.00  0.00     0.173 HD
ATOM      7  C4  <0> d           1.154   3.125   0.008  0.00  0.00     0.326 A 
ATOM      8  O2  <0> d           2.208   3.730   0.000  0.00  0.00    -0.247 OA
ATOM      9  N2  <0> d           1.161   1.780  -0.014  0.00  0.00    -0.318 N 
ATOM     10  H2  <0> d           2.032   1.289  -0.035  0.00  0.00     0.170 HD
ATOM     11  H3  <0> d           0.002  -0.004  -0.024  0.00  0.00     0.112 H 
ENDROOT
BRANCH   2  12
ATOM     12  C5  <0> d          -2.492   0.981   0.019  0.00  0.00    -0.022 A 
ATOM     13  C7  <0> d          -3.342   1.034  -1.252  0.00  0.00    -0.057 A 
ATOM     14  C6  <0> d          -2.595  -0.250  -0.884  0.00  0.00    -0.057 A 
ATOM     15  H7  <0> d          -4.425   1.037  -1.133  0.00  0.00     0.034 H 
ATOM     16  H8  <0> d          -2.959   1.617  -2.090  0.00  0.00     0.034 H 
ATOM     17  H5  <0> d          -1.720  -0.511  -1.480  0.00  0.00     0.034 H 
ATOM     18  H6  <0> d          -3.187  -1.091  -0.523  0.00  0.00     0.034 H 
ATOM     19  H4  <0> d          -3.016   0.950   0.974  0.00  0.00     0.047 H 
ENDBRANCH   2  12
TORSDOF 1
