REMARK  1 active torsions:
REMARK  status: ('A' for Active; 'I' for Inactive)
REMARK    1  A    between atoms: C2_3  and  C4_7 
REMARK       I    between atoms: C4_7  and  N3_9 
ROOT
ATOM      1  C1  <0> d           3.084   2.385   0.694  0.00  0.00     0.067 A 
ATOM      2  N1  <0> d           3.143   2.415  -0.649  0.00  0.00    -0.343 N 
ATOM      3  C2  <0> d           1.956   1.875  -1.123  0.00  0.00     0.158 A 
ATOM      4  C3  <0> d           1.220   1.531  -0.001  0.00  0.00     0.234 A 
ATOM      5  N2  <0> d           1.946   1.862   1.071  0.00  0.00    -0.215 NA
ATOM      6  O1  <0> d          -0.011   0.963   0.007  0.00  0.00    -0.167 OA
ATOM      7  H1  <0> d           3.747   2.687   1.378  0.00  0.00     0.143 H 
ATOM      8  H4  <0> d           3.909   2.765  -1.357  0.00  0.00     0.167 HD
ENDROOT
BRANCH   3   9
ATOM      9  C4  <0> d           1.574   1.710  -2.479  0.00  0.00     0.270 C 
ATOM     10  O2  <0> d           0.494   1.219  -2.751  0.00  0.00    -0.266 OA
ATOM     11  N3  <0> d           2.406   2.097  -3.466  0.00  0.00    -0.365 N 
ATOM     12  H2  <0> d           3.382   2.541  -3.219  0.00  0.00     0.159 HD
ATOM     13  H3  <0> d           2.110   1.969  -4.517  0.00  0.00     0.159 HD
ENDBRANCH   3   9
TORSDOF 1
