REMARK  3 active torsions:
REMARK  status: ('A' for Active; 'I' for Inactive)
REMARK    1  A    between atoms: C1_1  and  C2_2 
REMARK    2  A    between atoms: C6_6  and  C8_9 
REMARK    3  A    between atoms: C7_7  and  N1_8 
ROOT
ATOM      1  C2  <0> d           0.002  -0.004   0.002  0.00  0.00    -0.035 A 
ATOM      2  C3  <0> d           0.006  -0.689  -1.197  0.00  0.00    -0.075 A 
ATOM      3  C4  <0> d           0.025  -2.071  -1.206  0.00  0.00    -0.082 A 
ATOM      4  C5  <0> d           0.040  -2.773  -0.014  0.00  0.00    -0.075 A 
ATOM      5  C6  <0> d           0.036  -2.095   1.188  0.00  0.00    -0.035 A 
ATOM      6  C7  <0> d           0.023  -0.706   1.201  0.00  0.00     0.037 A 
ATOM      7  H4  <0> d          -0.006  -0.144  -2.130  0.00  0.00     0.084 H 
ATOM      8  H5  <0> d           0.027  -2.604  -2.145  0.00  0.00     0.083 H 
ATOM      9  H6  <0> d           0.055  -3.853  -0.025  0.00  0.00     0.084 H 
ENDROOT
BRANCH   1  10
ATOM     10  C1  <0> d          -0.018   1.503   0.010  0.00  0.00    -0.049 C 
ATOM     11  H1  <0> d           1.004   1.880   0.003  0.00  0.00     0.033 H 
ATOM     12  H2  <0> d          -0.545   1.864  -0.873  0.00  0.00     0.033 H 
ATOM     13  H3  <0> d          -0.529   1.854   0.907  0.00  0.00     0.033 H 
ENDBRANCH   1  10
BRANCH   6  14
ATOM     14  N1  <0> d           0.025  -0.016   2.415  0.00  0.00    -0.398 N 
ATOM     15  H7  <0> d           0.011   0.954   2.423  0.00  0.00     0.156 HD
ATOM     16  H8  <0> d           0.039  -0.507   3.252  0.00  0.00     0.156 HD
ENDBRANCH   6  14
BRANCH   5  17
ATOM     17  C8  <0> d           0.053  -2.860   2.486  0.00  0.00    -0.049 C 
ATOM     18  H9  <0> d           1.085  -3.031   2.795  0.00  0.00     0.033 H 
ATOM     19  H10 <0> d          -0.465  -2.285   3.254  0.00  0.00     0.033 H 
ATOM     20  H11 <0> d          -0.449  -3.818   2.350  0.00  0.00     0.033 H 
ENDBRANCH   5  17
TORSDOF 3
