REMARK  6 active torsions:
REMARK  status: ('A' for Active; 'I' for Inactive)
REMARK    1  A    between atoms: C1_1  and  C2_2 
REMARK    2  A    between atoms: C2_2  and  C3_3 
REMARK    3  A    between atoms: C3_3  and  C4_4 
REMARK    4  A    between atoms: C4_4  and  N1_5 
REMARK    5  A    between atoms: N1_5  and  S1_6 
REMARK    6  A    between atoms: S1_6  and  O3_9 
ROOT
ATOM      1  C3  <0> d          -2.575   1.557   3.081  0.00  0.00    -0.050 C 
ATOM      2  H6  <0> d          -1.827   1.143   3.757  0.00  0.00     0.035 H 
ATOM      3  H7  <0> d          -2.639   2.635   3.227  0.00  0.00     0.035 H 
ENDROOT
BRANCH   1   4
ATOM      4  C2  <0> d          -3.935   0.920   3.374  0.00  0.00    -0.067 C 
ATOM      5  H4  <0> d          -4.683   1.334   2.698  0.00  0.00     0.032 H 
ATOM      6  H5  <0> d          -3.870  -0.158   3.228  0.00  0.00     0.032 H 
BRANCH   4   7
ATOM      7  C1  <0> d          -4.335   1.216   4.820  0.00  0.00    -0.076 C 
ATOM      8  H1  <0> d          -5.304   0.762   5.029  0.00  0.00     0.027 H 
ATOM      9  H2  <0> d          -3.587   0.802   5.496  0.00  0.00     0.027 H 
ATOM     10  H3  <0> d          -4.400   2.294   4.966  0.00  0.00     0.027 H 
ENDBRANCH   4   7
ENDBRANCH   1   4
BRANCH   1  11
ATOM     11  C4  <0> d          -2.174   1.261   1.634  0.00  0.00     0.004 C 
ATOM     12  H8  <0> d          -2.922   1.675   0.958  0.00  0.00     0.065 H 
ATOM     13  H9  <0> d          -2.110   0.183   1.488  0.00  0.00     0.065 H 
BRANCH  11  14
ATOM     14  N1  <0> d          -0.872   1.871   1.353  0.00  0.00    -0.308 N 
ATOM     15  H10 <0> d          -0.510   2.541   1.955  0.00  0.00     0.173 HD
BRANCH  14  16
ATOM     16  S1  <0> d          -0.017   1.417   0.010  0.00  0.00     0.194 S 
ATOM     17  O1  <0> d           0.002  -0.004   0.002  0.00  0.00    -0.585 OA
ATOM     18  O2  <0> d           1.172   2.195   0.003  0.00  0.00    -0.585 OA
BRANCH  16  19
ATOM     19  O3  <0> d          -0.826   1.847  -1.205  0.00  0.00    -0.279 OA
ATOM     20  H11 <0> d          -0.413   1.628  -2.051  0.00  0.00     0.234 HD
ENDBRANCH  16  19
ENDBRANCH  14  16
ENDBRANCH  11  14
ENDBRANCH   1  11
TORSDOF 6
