REMARK  7 active torsions:
REMARK  status: ('A' for Active; 'I' for Inactive)
REMARK    1  A    between atoms: C1_1  and  C2_2 
REMARK    2  A    between atoms: C2_2  and  O1_3 
REMARK    3  A    between atoms: O1_3  and  C3_4 
REMARK    4  A    between atoms: C3_4  and  C4_6 
REMARK    5  A    between atoms: C5_7  and  C6_8 
REMARK    6  A    between atoms: C6_8  and  C7_9 
REMARK    7  A    between atoms: C6_8  and  C8_10 
ROOT
ATOM      1  C4  <0> d           1.216   1.944   0.001  0.00  0.00     0.003 C 
ATOM      2  C5  <0> d           2.224   2.545  -0.005  0.00  0.00    -0.092 C 
ENDROOT
BRANCH   1   3
ATOM      3  C3  <0> d          -0.014   1.211   0.009  0.00  0.00     0.339 C 
ATOM      4  O2  <0> d           0.002  -0.004   0.002  0.00  0.00    -0.249 OA
BRANCH   3   5
ATOM      5  O1  <0> d          -1.191   1.869   0.018  0.00  0.00    -0.311 OA
BRANCH   5   6
ATOM      6  C2  <0> d          -2.398   1.062   0.019  0.00  0.00     0.026 C 
ATOM      7  H4  <0> d          -2.410   0.422   0.914  0.00  0.00     0.074 H 
ATOM      8  H5  <0> d          -2.418   0.432  -0.882  0.00  0.00     0.074 H 
BRANCH   6   9
ATOM      9  C1  <0> d          -3.624   1.977   0.030  0.00  0.00    -0.056 C 
ATOM     10  H1  <0> d          -4.538   1.366   0.031  0.00  0.00     0.030 H 
ATOM     11  H2  <0> d          -3.611   2.617  -0.865  0.00  0.00     0.030 H 
ATOM     12  H3  <0> d          -3.603   2.607   0.931  0.00  0.00     0.030 H 
ENDBRANCH   6   9
ENDBRANCH   5   6
ENDBRANCH   3   5
ENDBRANCH   1   3
BRANCH   2  13
ATOM     13  C6  <0> d           3.489   3.298  -0.013  0.00  0.00    -0.001 C 
ATOM     14  H6  <0> d           3.235   4.368  -0.005  0.00  0.00     0.058 H 
BRANCH  13  15
ATOM     15  C7  <0> d           4.308   2.933   1.226  0.00  0.00    -0.063 C 
ATOM     16  H7  <0> d           5.253   3.495   1.220  0.00  0.00     0.029 H 
ATOM     17  H8  <0> d           4.524   1.854   1.218  0.00  0.00     0.029 H 
ATOM     18  H9  <0> d           3.736   3.186   2.131  0.00  0.00     0.029 H 
ENDBRANCH  13  15
BRANCH  13  19
ATOM     19  C8  <0> d           4.284   2.946  -1.272  0.00  0.00    -0.063 C 
ATOM     20  H10 <0> d           5.229   3.509  -1.278  0.00  0.00     0.029 H 
ATOM     21  H11 <0> d           3.696   3.209  -2.163  0.00  0.00     0.029 H 
ATOM     22  H12 <0> d           4.500   1.867  -1.280  0.00  0.00     0.029 H 
ENDBRANCH  13  19
ENDBRANCH   2  13
TORSDOF 7
