REMARK  4 active torsions:
REMARK  status: ('A' for Active; 'I' for Inactive)
REMARK    1  A    between atoms: C1_1  and  C2_2 
REMARK    2  A    between atoms: C2_2  and  O1_3 
REMARK    3  A    between atoms: O1_3  and  C3_4 
REMARK    4  A    between atoms: C3_4  and  C4_6 
ROOT
ATOM      1  C4  <0> d           1.468  -2.353  -2.550  0.00  0.00     0.034 C 
ATOM      2  C5  <0> d           0.735  -1.894  -3.814  0.00  0.00    -0.033 C 
ATOM      3  C6  <0> d           1.397  -2.531  -5.038  0.00  0.00     0.020 C 
ATOM      4  O3  <0> d           1.375  -3.954  -4.905  0.00  0.00    -0.391 OA
ATOM      5  C7  <0> d           2.085  -4.444  -3.766  0.00  0.00     0.020 C 
ATOM      6  C8  <0> d           1.450  -3.884  -2.490  0.00  0.00    -0.033 C 
ATOM      7  H6  <0> d           2.499  -2.002  -2.576  0.00  0.00     0.055 H 
ATOM      8  H7  <0> d          -0.309  -2.204  -3.763  0.00  0.00     0.037 H 
ATOM      9  H8  <0> d           0.791  -0.809  -3.893  0.00  0.00     0.037 H 
ATOM     10  H9  <0> d           0.854  -2.242  -5.938  0.00  0.00     0.074 H 
ATOM     11  H10 <0> d           2.430  -2.189  -5.112  0.00  0.00     0.074 H 
ATOM     12  H11 <0> d           2.037  -5.533  -3.748  0.00  0.00     0.074 H 
ATOM     13  H12 <0> d           3.127  -4.127  -3.823  0.00  0.00     0.074 H 
ATOM     14  H13 <0> d           2.017  -4.221  -1.623  0.00  0.00     0.037 H 
ATOM     15  H14 <0> d           0.421  -4.234  -2.412  0.00  0.00     0.037 H 
ENDROOT
BRANCH   1  16
ATOM     16  C3  <0> d           0.775  -1.794  -1.334  0.00  0.00     0.263 C 
ATOM     17  O2  <0> d           0.314  -2.540  -0.504  0.00  0.00    -0.265 OA
BRANCH  16  18
ATOM     18  O1  <0> d           0.671  -0.465  -1.174  0.00  0.00    -0.322 OA
BRANCH  18  19
ATOM     19  C2  <0> d           0.002  -0.004   0.002  0.00  0.00     0.025 C 
ATOM     20  H4  <0> d           0.529  -0.365   0.885  0.00  0.00     0.074 H 
ATOM     21  H5  <0> d          -1.020  -0.381   0.010  0.00  0.00     0.074 H 
BRANCH  19  22
ATOM     22  C1  <0> d          -0.019   1.526   0.010  0.00  0.00    -0.056 C 
ATOM     23  H1  <0> d           1.004   1.903   0.003  0.00  0.00     0.030 H 
ATOM     24  H2  <0> d          -0.546   1.887  -0.873  0.00  0.00     0.030 H 
ATOM     25  H3  <0> d          -0.529   1.877   0.907  0.00  0.00     0.030 H 
ENDBRANCH  19  22
ENDBRANCH  18  19
ENDBRANCH  16  18
ENDBRANCH   1  16
TORSDOF 4
