REMARK  5 active torsions:
REMARK  status: ('A' for Active; 'I' for Inactive)
REMARK    1  A    between atoms: C1_1  and  C2_2 
REMARK    2  A    between atoms: C2_2  and  C3_3 
REMARK    3  A    between atoms: C2_2  and  C4_4 
REMARK    4  A    between atoms: C9_9  and  N1_10 
REMARK    5  A    between atoms: N1_10  and  C10_11 
ROOT
ATOM      1  C4  <0> d          -2.648   1.561   2.635  0.00  0.00    -0.028 A 
ATOM      2  C5  <0> d          -3.964   1.206   2.861  0.00  0.00    -0.074 A 
ATOM      3  C6  <0> d          -4.665   0.496   1.904  0.00  0.00    -0.082 A 
ATOM      4  C7  <0> d          -4.051   0.137   0.718  0.00  0.00    -0.081 A 
ATOM      5  C8  <0> d          -2.737   0.492   0.483  0.00  0.00    -0.057 A 
ATOM      6  C9  <0> d          -2.029   1.202   1.445  0.00  0.00     0.034 A 
ATOM      7  H8  <0> d          -4.447   1.485   3.786  0.00  0.00     0.084 H 
ATOM      8  H9  <0> d          -5.694   0.221   2.083  0.00  0.00     0.083 H 
ATOM      9  H10 <0> d          -4.601  -0.418  -0.028  0.00  0.00     0.083 H 
ATOM     10  H11 <0> d          -2.259   0.215  -0.445  0.00  0.00     0.086 H 
ENDROOT
BRANCH   1  11
ATOM     11  C2  <0> d          -1.886   2.336   3.678  0.00  0.00    -0.033 C 
ATOM     12  H4  <0> d          -0.897   2.594   3.272  0.00  0.00     0.046 H 
BRANCH  11  13
ATOM     13  C1  <0> d          -2.654   3.613   4.027  0.00  0.00    -0.069 C 
ATOM     14  H1  <0> d          -2.769   4.230   3.123  0.00  0.00     0.028 H 
ATOM     15  H2  <0> d          -2.098   4.179   4.788  0.00  0.00     0.028 H 
ATOM     16  H3  <0> d          -3.647   3.349   4.419  0.00  0.00     0.028 H 
ENDBRANCH  11  13
BRANCH  11  17
ATOM     17  C3  <0> d          -1.726   1.479   4.935  0.00  0.00    -0.069 C 
ATOM     18  H5  <0> d          -1.174   0.561   4.685  0.00  0.00     0.028 H 
ATOM     19  H6  <0> d          -2.719   1.214   5.328  0.00  0.00     0.028 H 
ATOM     20  H7  <0> d          -1.169   2.045   5.697  0.00  0.00     0.028 H 
ENDBRANCH  11  17
ENDBRANCH   1  11
BRANCH   6  21
ATOM     21  N1  <0> d          -0.699   1.559   1.213  0.00  0.00    -0.394 N 
ATOM     22  H12 <0> d          -0.167   2.197   1.934  0.00  0.00     0.159 HD
BRANCH  21  23
ATOM     23  C10 <0> d          -0.012   1.083   0.010  0.00  0.00    -0.021 C 
ATOM     24  H13 <0> d           1.020   1.464   0.002  0.00  0.00     0.056 H 
ATOM     25  H14 <0> d          -0.543   1.444  -0.883  0.00  0.00     0.056 H 
ATOM     26  H15 <0> d           0.004  -0.017   0.007  0.00  0.00     0.056 H 
ENDBRANCH  21  23
ENDBRANCH   6  21
TORSDOF 5
