REMARK  3 active torsions:
REMARK  status: ('A' for Active; 'I' for Inactive)
REMARK    1  A    between atoms: C1_1  and  C2_2 
REMARK    2  A    between atoms: C2_2  and  C3_3 
REMARK    3  A    between atoms: C2_2  and  C4_4 
ROOT
ATOM      1  C4  <0> d          -0.060   3.879  -0.961  0.00  0.00    -0.051 C 
ATOM      2  C5  <0> d           1.202   3.030  -1.128  0.00  0.00    -0.055 C 
ATOM      3  C6  <0> d           1.274   1.997   0.001  0.00  0.00    -0.009 C 
ATOM      4  C7  <0> d          -0.014   1.203   0.009  0.00  0.00     0.127 C 
ATOM      5  O1  <0> d           0.002  -0.004   0.002  0.00  0.00    -0.298 OA
ATOM      6  C8  <0> d          -1.323   1.961   0.019  0.00  0.00    -0.009 C 
ATOM      7  C9  <0> d          -1.301   2.996  -1.105  0.00  0.00    -0.055 C 
ATOM      8  H8  <0> d          -0.057   4.342   0.026  0.00  0.00     0.040 H 
ATOM      9  H9  <0> d           2.081   3.674  -1.088  0.00  0.00     0.034 H 
ATOM     10  H10 <0> d           1.171   2.518  -2.089  0.00  0.00     0.034 H 
ATOM     11  H11 <0> d           1.393   2.466   0.875  0.00  0.00     0.044 H 
ATOM     12  H12 <0> d           2.116   1.326  -0.170  0.00  0.00     0.044 H 
ATOM     13  H13 <0> d          -2.080   1.322  -0.121  0.00  0.00     0.044 H 
ATOM     14  H14 <0> d          -1.446   2.467   0.976  0.00  0.00     0.044 H 
ATOM     15  H15 <0> d          -2.196   3.616  -1.048  0.00  0.00     0.034 H 
ATOM     16  H16 <0> d          -1.273   2.484  -2.067  0.00  0.00     0.034 H 
ENDROOT
BRANCH   1  17
ATOM     17  C2  <0> d          -0.085   4.970  -2.033  0.00  0.00    -0.058 C 
ATOM     18  H4  <0> d          -0.084   4.509  -3.021  0.00  0.00     0.039 H 
BRANCH  17  19
ATOM     19  C1  <0> d          -1.346   5.820  -1.867  0.00  0.00    -0.073 C 
ATOM     20  H1  <0> d          -1.364   6.597  -2.631  0.00  0.00     0.028 H 
ATOM     21  H2  <0> d          -2.227   5.186  -1.973  0.00  0.00     0.028 H 
ATOM     22  H3  <0> d          -1.346   6.280  -0.879  0.00  0.00     0.028 H 
ENDBRANCH  17  19
BRANCH  17  23
ATOM     23  C3  <0> d           1.152   5.859  -1.885  0.00  0.00    -0.073 C 
ATOM     24  H5  <0> d           2.051   5.254  -2.003  0.00  0.00     0.028 H 
ATOM     25  H6  <0> d           1.134   6.636  -2.648  0.00  0.00     0.028 H 
ATOM     26  H7  <0> d           1.152   6.320  -0.897  0.00  0.00     0.028 H 
ENDBRANCH  17  23
ENDBRANCH   1  17
TORSDOF 3
