REMARK  5 active torsions:
REMARK  status: ('A' for Active; 'I' for Inactive)
REMARK    1  A    between atoms: C1_1  and  C2_2 
REMARK    2  A    between atoms: C2_2  and  C3_3 
REMARK    3  A    between atoms: C3_3  and  C4_5 
REMARK    4  A    between atoms: C3_3  and  O1_12 
REMARK    5  A    between atoms: C7_8  and  C10_11 
ROOT
ATOM      1  C4  <0> d           0.002  -0.004   0.002  0.00  0.00    -0.030 A 
ATOM      2  C5  <0> d          -1.107  -0.713   0.424  0.00  0.00    -0.074 A 
ATOM      3  C6  <0> d          -1.090  -2.095   0.411  0.00  0.00    -0.077 A 
ATOM      4  C7  <0> d           0.040  -2.768  -0.013  0.00  0.00    -0.062 A 
ATOM      5  C8  <0> d           1.151  -2.060  -0.429  0.00  0.00    -0.077 A 
ATOM      6  C9  <0> d           1.132  -0.678  -0.422  0.00  0.00    -0.074 A 
ATOM      7  H7  <0> d          -1.989  -0.186   0.759  0.00  0.00     0.084 H 
ATOM      8  H8  <0> d          -1.959  -2.648   0.737  0.00  0.00     0.084 H 
ATOM      9  H9  <0> d           2.034  -2.586  -0.760  0.00  0.00     0.084 H 
ATOM     10  H10 <0> d           2.001  -0.124  -0.747  0.00  0.00     0.084 H 
ENDROOT
BRANCH   1  11
ATOM     11  C3  <0> d          -0.018   1.503   0.010  0.00  0.00     0.060 C 
ATOM     12  H1  <0> d           1.004   1.880   0.003  0.00  0.00     0.090 H 
BRANCH  11  13
ATOM     13  C2  <0> d          -0.758   2.010  -1.229  0.00  0.00    -0.041 C 
ATOM     14  H5  <0> d          -0.301   1.586  -2.124  0.00  0.00     0.036 H 
ATOM     15  H6  <0> d          -1.804   1.707  -1.177  0.00  0.00     0.036 H 
BRANCH  13  16
ATOM     16  C1  <0> d          -0.672   3.536  -1.286  0.00  0.00    -0.074 C 
ATOM     17  H2  <0> d          -1.129   3.960  -0.392  0.00  0.00     0.027 H 
ATOM     18  H3  <0> d           0.374   3.839  -1.338  0.00  0.00     0.027 H 
ATOM     19  H4  <0> d          -1.199   3.897  -2.169  0.00  0.00     0.027 H 
ENDBRANCH  13  16
ENDBRANCH  11  13
BRANCH  11  20
ATOM     20  O1  <0> d          -0.687   1.964   1.186  0.00  0.00    -0.391 OA
ATOM     21  H14 <0> d          -1.604   1.665   1.259  0.00  0.00     0.210 HD
ENDBRANCH  11  20
ENDBRANCH   1  11
BRANCH   4  22
ATOM     22  C10 <0> d           0.060  -4.275  -0.021  0.00  0.00    -0.051 C 
ATOM     23  H11 <0> d           0.426  -4.639   0.939  0.00  0.00     0.033 H 
ATOM     24  H12 <0> d          -0.949  -4.651  -0.192  0.00  0.00     0.033 H 
ATOM     25  H13 <0> d           0.718  -4.625  -0.817  0.00  0.00     0.033 H 
ENDBRANCH   4  22
TORSDOF 5
