REMARK  4 active torsions:
REMARK  status: ('A' for Active; 'I' for Inactive)
REMARK    1  A    between atoms: C1_1  and  N1_2 
REMARK       I    between atoms: N1_2  and  C2_3 
REMARK    2  A    between atoms: C2_3  and  O2_5 
REMARK    3  A    between atoms: O2_5  and  C3_6 
REMARK    4  A    between atoms: C3_6  and  C4_7 
ROOT
ATOM      1  N1  <0> d           1.143   1.901   0.001  0.00  0.00    -0.341 N 
ATOM      2  C2  <0> d          -0.014   1.211   0.009  0.00  0.00     0.360 C 
ATOM      3  O1  <0> d           0.002  -0.004   0.002  0.00  0.00    -0.239 OA
ATOM      4  H4  <0> d           1.130   2.870   0.007  0.00  0.00     0.164 HD
ENDROOT
BRANCH   2   5
ATOM      5  O2  <0> d          -1.189   1.868   0.018  0.00  0.00    -0.295 OA
BRANCH   5   6
ATOM      6  C3  <0> d          -2.396   1.061   0.019  0.00  0.00     0.120 C 
ATOM      7  H5  <0> d          -2.417   0.437  -0.874  0.00  0.00     0.089 H 
ATOM      8  H6  <0> d          -2.408   0.427   0.906  0.00  0.00     0.089 H 
BRANCH   6   9
ATOM      9  C4  <0> d          -3.622   1.976   0.030  0.00  0.00     0.409 C 
ATOM     10  F1  <0> d          -3.607   2.790  -1.108  0.00  0.00    -0.169 F 
ATOM     11  F2  <0> d          -4.785   1.198   0.031  0.00  0.00    -0.169 F 
ATOM     12  F3  <0> d          -3.596   2.777   1.177  0.00  0.00    -0.169 F 
ENDBRANCH   6   9
ENDBRANCH   5   6
ENDBRANCH   2   5
BRANCH   1  13
ATOM     13  C1  <0> d           2.422   1.185  -0.015  0.00  0.00    -0.016 C 
ATOM     14  H1  <0> d           2.497   0.555   0.871  0.00  0.00     0.056 H 
ATOM     15  H2  <0> d           2.480   0.564  -0.909  0.00  0.00     0.056 H 
ATOM     16  H3  <0> d           3.241   1.905  -0.019  0.00  0.00     0.056 H 
ENDBRANCH   1  13
TORSDOF 4
