REMARK  2 active torsions:
REMARK  status: ('A' for Active; 'I' for Inactive)
REMARK    1  A    between atoms: C1_1  and  C2_2 
REMARK    2  A    between atoms: C5_5  and  O1_10 
ROOT
ATOM      1  C2  <0> d          -0.019   1.526   0.010  0.00  0.00    -0.044 C 
ATOM      2  C3  <0> d           1.417   2.055  -0.000  0.00  0.00    -0.056 C 
ATOM      3  C4  <0> d           2.133   1.562  -1.259  0.00  0.00    -0.036 C 
ATOM      4  C5  <0> d           1.175   0.703  -2.088  0.00  0.00     0.058 C 
ATOM      5  C6  <0> d           0.718  -0.497  -1.257  0.00  0.00    -0.036 C 
ATOM      6  C7  <0> d           0.002  -0.004   0.002  0.00  0.00    -0.056 C 
ATOM      7  C8  <0> d          -0.043   1.539  -2.488  0.00  0.00    -0.036 C 
ATOM      8  C9  <0> d          -0.759   2.033  -1.229  0.00  0.00    -0.056 C 
ATOM      9  H4  <0> d           1.402   3.145   0.006  0.00  0.00     0.034 H 
ATOM     10  H5  <0> d           1.944   1.694   0.883  0.00  0.00     0.034 H 
ATOM     11  H6  <0> d           3.000   0.967  -0.974  0.00  0.00     0.037 H 
ATOM     12  H7  <0> d           2.458   2.417  -1.851  0.00  0.00     0.037 H 
ATOM     13  H8  <0> d           1.585  -1.093  -0.972  0.00  0.00     0.037 H 
ATOM     14  H9  <0> d           0.036  -1.109  -1.847  0.00  0.00     0.037 H 
ATOM     15  H10 <0> d           0.529  -0.365   0.885  0.00  0.00     0.034 H 
ATOM     16  H11 <0> d          -1.020  -0.381   0.010  0.00  0.00     0.034 H 
ATOM     17  H12 <0> d           0.283   2.395  -3.080  0.00  0.00     0.037 H 
ATOM     18  H13 <0> d          -0.725   0.928  -3.078  0.00  0.00     0.037 H 
ATOM     19  H14 <0> d          -1.781   1.655  -1.221  0.00  0.00     0.034 H 
ATOM     20  H15 <0> d          -0.773   3.123  -1.223  0.00  0.00     0.034 H 
ENDROOT
BRANCH   1  21
ATOM     21  C1  <0> d          -0.735   2.019   1.269  0.00  0.00    -0.069 C 
ATOM     22  H1  <0> d          -0.208   1.658   2.152  0.00  0.00     0.028 H 
ATOM     23  H2  <0> d          -0.750   3.109   1.275  0.00  0.00     0.028 H 
ATOM     24  H3  <0> d          -1.757   1.642   1.277  0.00  0.00     0.028 H 
ENDBRANCH   1  21
BRANCH   4  25
ATOM     25  O1  <0> d           1.844   0.243  -3.263  0.00  0.00    -0.390 OA
ATOM     26  H16 <0> d           2.161   0.952  -3.839  0.00  0.00     0.210 HD
ENDBRANCH   4  25
TORSDOF 2
