REMARK  1 active torsions:
REMARK  status: ('A' for Active; 'I' for Inactive)
REMARK    1  A    between atoms: C3_4  and  O2_9 
ROOT
ATOM      1  C1  <0> d          -0.796   1.614   1.237  0.00  0.00    -0.008 C 
ATOM      2  C2  <0> d          -0.013   1.086   0.008  0.00  0.00     0.026 C 
ATOM      3  O1  <0> d          -0.764   1.590  -1.117  0.00  0.00    -0.358 OA
ATOM      4  C3  <0> d          -1.170   2.929  -0.785  0.00  0.00     0.162 C 
ATOM      5  H1  <0> d          -0.435   3.642  -1.158  0.00  0.00     0.133 H 
ATOM      6  C4  <0> d          -1.250   3.015   0.752  0.00  0.00     0.164 C 
ATOM      7 Cl1  <0> d          -0.131   4.286   1.372  0.00  0.00    -0.096 Cl
ATOM      8 Cl2  <0> d          -2.942   3.349   1.278  0.00  0.00    -0.096 Cl
ATOM      9  H2  <0> d          -1.656   0.981   1.452  0.00  0.00     0.041 H 
ATOM     10  H3  <0> d          -0.146   1.693   2.108  0.00  0.00     0.041 H 
ATOM     11  H4  <0> d           0.002  -0.004   0.002  0.00  0.00     0.074 H 
ATOM     12  H5  <0> d           1.003   1.482   0.000  0.00  0.00     0.074 H 
ENDROOT
BRANCH   4  13
ATOM     13  O2  <0> d          -2.450   3.205  -1.357  0.00  0.00    -0.368 OA
ATOM     14  H6  <0> d          -2.467   3.156  -2.323  0.00  0.00     0.212 HD
ENDBRANCH   4  13
TORSDOF 1
