REMARK  2 active torsions:
REMARK  status: ('A' for Active; 'I' for Inactive)
REMARK    1  A    between atoms: C1_1  and  N1_2 
REMARK    2  A    between atoms: N1_2  and  C2_3 
ROOT
ATOM      1  C2  <0> d           0.606  -0.689  -1.055  0.00  0.00     0.027 A 
ATOM      2  C3  <0> d           1.194   0.018  -2.097  0.00  0.00    -0.058 A 
ATOM      3  C4  <0> d           1.791  -0.662  -3.140  0.00  0.00    -0.081 A 
ATOM      4  C5  <0> d           1.804  -2.044  -3.149  0.00  0.00    -0.083 A 
ATOM      5  C6  <0> d           1.220  -2.751  -2.114  0.00  0.00    -0.081 A 
ATOM      6  C7  <0> d           0.626  -2.077  -1.064  0.00  0.00    -0.058 A 
ATOM      7  H5  <0> d           1.183   1.098  -2.091  0.00  0.00     0.086 H 
ATOM      8  H6  <0> d           2.248  -0.113  -3.950  0.00  0.00     0.083 H 
ATOM      9  H7  <0> d           2.271  -2.574  -3.966  0.00  0.00     0.083 H 
ATOM     10  H8  <0> d           1.231  -3.831  -2.124  0.00  0.00     0.083 H 
ATOM     11  H9  <0> d           0.174  -2.630  -0.254  0.00  0.00     0.086 H 
ENDROOT
BRANCH   1  12
ATOM     12  N1  <0> d           0.002  -0.004   0.002  0.00  0.00    -0.394 N 
ATOM     13  H4  <0> d          -0.404  -0.499   0.731  0.00  0.00     0.159 HD
BRANCH  12  14
ATOM     14  C1  <0> d          -0.018   1.461   0.010  0.00  0.00    -0.021 C 
ATOM     15  H1  <0> d           1.005   1.838   0.002  0.00  0.00     0.056 H 
ATOM     16  H2  <0> d          -0.545   1.822  -0.873  0.00  0.00     0.056 H 
ATOM     17  H3  <0> d          -0.528   1.812   0.907  0.00  0.00     0.056 H 
ENDBRANCH  12  14
ENDBRANCH   1  12
TORSDOF 2
