REMARK  2 active torsions:
REMARK  status: ('A' for Active; 'I' for Inactive)
REMARK    1  A    between atoms: C1_1  and  C2_2 
REMARK    2  A    between atoms: C5_6  and  C7_8 
ROOT
ATOM      1  C2  <0> d           0.002  -0.004   0.002  0.00  0.00    -0.051 C 
ATOM      2  H1  <0> d          -1.011  -0.407  -0.003  0.00  0.00     0.040 H 
ATOM      3  C3  <0> d           0.819  -0.542  -1.196  0.00  0.00    -0.046 C 
ATOM      4  C4  <0> d           1.536  -1.757  -0.657  0.00  0.00    -0.101 C 
ATOM      5  C5  <0> d           1.533  -1.764   0.648  0.00  0.00    -0.087 C 
ATOM      6  C6  <0> d           0.813  -0.555   1.198  0.00  0.00    -0.042 C 
ATOM      7  H5  <0> d           0.155  -0.824  -2.013  0.00  0.00     0.039 H 
ATOM      8  H6  <0> d           1.538   0.206  -1.531  0.00  0.00     0.039 H 
ATOM      9  H7  <0> d           1.992  -2.520  -1.271  0.00  0.00     0.077 H 
ATOM     10  H8  <0> d           1.530   0.189   1.546  0.00  0.00     0.040 H 
ATOM     11  H9  <0> d           0.144  -0.846   2.008  0.00  0.00     0.040 H 
ENDROOT
BRANCH   1  12
ATOM     12  C1  <0> d          -0.019   1.526   0.010  0.00  0.00    -0.072 C 
ATOM     13  H2  <0> d           1.004   1.903   0.003  0.00  0.00     0.028 H 
ATOM     14  H3  <0> d          -0.546   1.887  -0.873  0.00  0.00     0.028 H 
ATOM     15  H4  <0> d          -0.529   1.877   0.907  0.00  0.00     0.028 H 
ENDBRANCH   1  12
BRANCH   5  16
ATOM     16  C7  <0> d           2.165  -2.838   1.496  0.00  0.00    -0.055 C 
ATOM     17  H10 <0> d           2.615  -3.593   0.851  0.00  0.00     0.033 H 
ATOM     18  H11 <0> d           2.933  -2.396   2.130  0.00  0.00     0.033 H 
ATOM     19  H12 <0> d           1.402  -3.304   2.121  0.00  0.00     0.033 H 
ENDBRANCH   5  16
TORSDOF 2
