REMARK  3 active torsions:
REMARK  status: ('A' for Active; 'I' for Inactive)
REMARK    1  A    between atoms: C4_5  and  C6_8 
REMARK    2  A    between atoms: C6_8  and  C7_9 
REMARK    3  A    between atoms: C7_9  and  O2_10 
ROOT
ATOM      1  C1  <0> d          -0.019   1.528   0.010  0.00  0.00    -0.061 C 
ATOM      2  C2  <0> d           0.002  -0.004   0.002  0.00  0.00    -0.045 C 
ATOM      3  C3  <0> d           0.808  -0.502   1.204  0.00  0.00     0.020 C 
ATOM      4  O1  <0> d           2.128   0.042   1.149  0.00  0.00    -0.386 OA
ATOM      5  C4  <0> d           2.174   1.469   1.202  0.00  0.00     0.040 C 
ATOM      6  H1  <0> d           1.705   1.814   2.123  0.00  0.00     0.083 H 
ATOM      7  C5  <0> d           1.422   2.047  -0.001  0.00  0.00    -0.041 C 
ATOM      8  H2  <0> d          -0.544   1.890  -0.873  0.00  0.00     0.033 H 
ATOM      9  H3  <0> d          -0.527   1.880   0.908  0.00  0.00     0.033 H 
ATOM     10  H4  <0> d          -1.018  -0.383   0.066  0.00  0.00     0.036 H 
ATOM     11  H5  <0> d           0.466  -0.357  -0.919  0.00  0.00     0.036 H 
ATOM     12  H6  <0> d           0.322  -0.183   2.126  0.00  0.00     0.074 H 
ATOM     13  H7  <0> d           0.862  -1.591   1.180  0.00  0.00     0.074 H 
ATOM     14  H8  <0> d           1.915   1.735  -0.922  0.00  0.00     0.036 H 
ATOM     15  H9  <0> d           1.418   3.135   0.061  0.00  0.00     0.036 H 
ENDROOT
BRANCH   5  16
ATOM     16  C6  <0> d           3.631   1.935   1.165  0.00  0.00    -0.021 C 
ATOM     17  H10 <0> d           4.124   1.517   0.287  0.00  0.00     0.040 H 
ATOM     18  H11 <0> d           3.663   3.024   1.115  0.00  0.00     0.040 H 
BRANCH  16  19
ATOM     19  C7  <0> d           4.350   1.461   2.429  0.00  0.00     0.019 C 
ATOM     20  H12 <0> d           3.857   1.879   3.306  0.00  0.00     0.074 H 
ATOM     21  H13 <0> d           4.318   0.373   2.479  0.00  0.00     0.074 H 
BRANCH  19  22
ATOM     22  O2  <0> d           5.711   1.896   2.394  0.00  0.00    -0.401 OA
ATOM     23  H14 <0> d           6.228   1.630   3.167  0.00  0.00     0.209 HD
ENDBRANCH  19  22
ENDBRANCH  16  19
ENDBRANCH   5  16
TORSDOF 3
