REMARK  4 active torsions:
REMARK  status: ('A' for Active; 'I' for Inactive)
REMARK    1  A    between atoms: C2_2  and  C3_3 
REMARK    2  A    between atoms: C3_3  and  C4_4 
REMARK    3  A    between atoms: C6_6  and  N1_11 
REMARK    4  A    between atoms: C9_9  and  O1_10 
ROOT
ATOM      1  C4  <0> d           1.369  -1.702   1.144  0.00  0.00    -0.019 A 
ATOM      2  C5  <0> d           1.099  -3.042   0.941  0.00  0.00    -0.049 A 
ATOM      3  C6  <0> d           1.151  -3.929   2.007  0.00  0.00     0.026 A 
ATOM      4  C7  <0> d           1.464  -3.468   3.279  0.00  0.00    -0.055 A 
ATOM      5  C8  <0> d           1.729  -2.128   3.481  0.00  0.00    -0.048 A 
ATOM      6  C9  <0> d           1.682  -1.242   2.414  0.00  0.00     0.072 A 
ATOM      7  H6  <0> d           0.852  -3.399  -0.048  0.00  0.00     0.087 H 
ATOM      8  H7  <0> d           1.500  -4.157   4.110  0.00  0.00     0.087 H 
ATOM      9  H8  <0> d           1.973  -1.768   4.470  0.00  0.00     0.087 H 
ENDROOT
BRANCH   1  10
ATOM     10  C3  <0> d           1.317  -0.740  -0.015  0.00  0.00    -0.024 C 
ATOM     11  H4  <0> d           1.413  -1.291  -0.950  0.00  0.00     0.046 H 
ATOM     12  H5  <0> d           2.135  -0.024   0.071  0.00  0.00     0.046 H 
BRANCH  10  13
ATOM     13  C2  <0> d           0.002  -0.004   0.002  0.00  0.00    -0.108 C 
ATOM     14  C1  <0> d          -0.016   1.306   0.009  0.00  0.00    -0.124 C 
ATOM     15  H1  <0> d           0.912   1.859   0.003  0.00  0.00     0.066 H 
ATOM     16  H2  <0> d          -0.958   1.833   0.017  0.00  0.00     0.066 H 
ATOM     17  H3  <0> d          -0.926  -0.557   0.008  0.00  0.00     0.076 H 
ENDBRANCH  10  13
ENDBRANCH   1  10
BRANCH   6  18
ATOM     18  O1  <0> d           1.942   0.077   2.614  0.00  0.00    -0.360 OA
ATOM     19  H9  <0> d           1.160   0.604   2.830  0.00  0.00     0.217 HD
ENDBRANCH   6  18
BRANCH   3  20
ATOM     20  N1  <0> d           0.883  -5.287   1.802  0.00  0.00    -0.399 N 
ATOM     21  H10 <0> d           0.915  -5.907   2.548  0.00  0.00     0.156 HD
ATOM     22  H11 <0> d           0.664  -5.609   0.913  0.00  0.00     0.156 HD
ENDBRANCH   3  20
TORSDOF 4
