REMARK  2 active torsions:
REMARK  status: ('A' for Active; 'I' for Inactive)
REMARK    1  A    between atoms: C4_4  and  C6_7 
REMARK    2  A    between atoms: C6_7  and  O1_8 
ROOT
ATOM      1  C1  <0> d          -0.013   1.076   0.008  0.00  0.00    -0.063 A 
ATOM      2  C2  <0> d          -1.218   1.761   0.017  0.00  0.00    -0.042 A 
ATOM      3  C3  <0> d          -1.188   3.149   0.031  0.00  0.00     0.143 A 
ATOM      4  C4  <0> d           0.036   3.797   0.022  0.00  0.00     0.096 A 
ATOM      5  N1  <0> d           1.161   3.110   0.007  0.00  0.00    -0.260 NA
ATOM      6  C5  <0> d           1.170   1.791   0.001  0.00  0.00     0.003 A 
ATOM      7  F1  <0> d          -2.338   3.858   0.046  0.00  0.00    -0.204 F 
ATOM      8  H1  <0> d           0.002  -0.004   0.002  0.00  0.00     0.085 H 
ATOM      9  H2  <0> d          -2.157   1.228   0.018  0.00  0.00     0.088 H 
ATOM     10  H3  <0> d           2.112   1.264  -0.011  0.00  0.00     0.114 H 
ENDROOT
BRANCH   4  11
ATOM     11  C6  <0> d           0.082   5.303   0.029  0.00  0.00     0.059 C 
ATOM     12  H4  <0> d          -0.791   5.691   0.553  0.00  0.00     0.083 H 
ATOM     13  H5  <0> d           0.988   5.636   0.536  0.00  0.00     0.083 H 
BRANCH  11  14
ATOM     14  O1  <0> d           0.084   5.786  -1.316  0.00  0.00    -0.395 OA
ATOM     15  H6  <0> d           0.112   6.750  -1.388  0.00  0.00     0.209 HD
ENDBRANCH  11  14
ENDBRANCH   4  11
TORSDOF 2
