REMARK  0 active torsions:
REMARK  status: ('A' for Active; 'I' for Inactive)
ROOT
ATOM      1  C1  <0> d          -0.019   1.554   0.011  0.00  0.00    -0.038 C 
ATOM      2  C2  <0> d           1.488   1.918  -0.002  0.00  0.00    -0.037 C 
ATOM      3  C3  <0> d           2.179   0.521  -0.016  0.00  0.00     0.054 C 
ATOM      4  H1  <0> d           3.202   0.510  -0.393  0.00  0.00     0.085 H 
ATOM      5  C4  <0> d           1.992  -0.046   1.423  0.00  0.00     0.057 C 
ATOM      6  H2  <0> d           2.606  -0.934   1.572  0.00  0.00     0.067 H 
ATOM      7  C5  <0> d           0.485  -0.409   1.455  0.00  0.00    -0.024 C 
ATOM      8  C6  <0> d           0.002  -0.004   0.002  0.00  0.00     0.040 C 
ATOM      9  H3  <0> d          -0.913  -0.482  -0.347  0.00  0.00     0.083 H 
ATOM     10  O1  <0> d           1.212  -0.269  -0.781  0.00  0.00    -0.379 OA
ATOM     11  C7  <0> d           2.306   0.978   2.433  0.00  0.00     0.066 C 
ATOM     12  N1  <0> d           2.549   1.769   3.212  0.00  0.00    -0.197 NA
ATOM     13  H4  <0> d          -0.499   1.929   0.914  0.00  0.00     0.036 H 
ATOM     14  H5  <0> d          -0.516   1.938  -0.880  0.00  0.00     0.036 H 
ATOM     15  H6  <0> d           1.741   2.483  -0.899  0.00  0.00     0.036 H 
ATOM     16  H7  <0> d           1.758   2.474   0.896  0.00  0.00     0.036 H 
ATOM     17  H8  <0> d           0.349  -1.478   1.619  0.00  0.00     0.038 H 
ATOM     18  H9  <0> d          -0.036   0.169   2.218  0.00  0.00     0.038 H 
ENDROOT
TORSDOF 0
