REMARK  1 active torsions:
REMARK  status: ('A' for Active; 'I' for Inactive)
REMARK    1  A    between atoms: C3_3  and  C6_8 
ROOT
ATOM      1  C1  <0> d           0.001   3.958   0.023  0.00  0.00    -0.060 A 
ATOM      2  C2  <0> d          -1.234   3.303   0.032  0.00  0.00    -0.059 A 
ATOM      3  C3  <0> d          -1.253   1.909   0.018  0.00  0.00     0.116 A 
ATOM      4  C4  <0> d          -0.014   1.214   0.009  0.00  0.00     0.304 A 
ATOM      5  O1  <0> d           0.002  -0.004   0.002  0.00  0.00    -0.259 OA
ATOM      6  O2  <0> d           1.139   1.903   0.001  0.00  0.00    -0.287 OA
ATOM      7  C5  <0> d           1.149   3.242   0.008  0.00  0.00     0.023 A 
ATOM      8  H1  <0> d           0.039   5.038   0.028  0.00  0.00     0.086 H 
ATOM      9  H2  <0> d          -2.156   3.866   0.044  0.00  0.00     0.085 H 
ATOM     10  H3  <0> d           2.096   3.762   0.002  0.00  0.00     0.123 H 
ENDROOT
BRANCH   3  11
ATOM     11  C6  <0> d          -2.526   1.176   0.021  0.00  0.00     0.215 C 
ATOM     12  O3  <0> d          -2.527  -0.040   0.015  0.00  0.00    -0.644 OA
ATOM     13  O4  <0> d          -3.693   1.851   0.030  0.00  0.00    -0.644 OA
ENDBRANCH   3  11
TORSDOF 1
