REMARK  5 active torsions:
REMARK  status: ('A' for Active; 'I' for Inactive)
REMARK    1  A    between atoms: C1_1  and  C2_2 
REMARK    2  A    between atoms: C2_2  and  C3_4 
REMARK    3  A    between atoms: C2_2  and  C6_9 
REMARK    4  A    between atoms: C3_4  and  C4_6 
REMARK    5  A    between atoms: C3_4  and  C5_7 
ROOT
ATOM      1  C2  <0> d          -1.329   1.940   0.019  0.00  0.00     0.039 C 
ATOM      2  H1  <0> d          -1.400   2.570  -0.867  0.00  0.00     0.057 H 
ENDROOT
BRANCH   1   3
ATOM      3  C1  <0> d          -1.417   2.811   1.273  0.00  0.00    -0.063 C 
ATOM      4  H3  <0> d          -1.346   2.181   2.160  0.00  0.00     0.028 H 
ATOM      5  H4  <0> d          -0.598   3.531   1.273  0.00  0.00     0.028 H 
ATOM      6  H5  <0> d          -2.368   3.344   1.281  0.00  0.00     0.028 H 
ENDBRANCH   1   3
BRANCH   1   7
ATOM      7  C3  <0> d          -2.479   0.930   0.019  0.00  0.00     0.039 C 
ATOM      8  H2  <0> d          -2.408   0.299   0.905  0.00  0.00     0.057 H 
BRANCH   7   9
ATOM      9  C4  <0> d          -2.392   0.058  -1.236  0.00  0.00    -0.063 C 
ATOM     10  H6  <0> d          -2.462   0.689  -2.122  0.00  0.00     0.028 H 
ATOM     11  H7  <0> d          -1.440  -0.474  -1.243  0.00  0.00     0.028 H 
ATOM     12  H8  <0> d          -3.211  -0.661  -1.236  0.00  0.00     0.028 H 
ENDBRANCH   7   9
BRANCH   7  13
ATOM     13  C5  <0> d          -3.794   1.665   0.029  0.00  0.00     0.177 C 
ATOM     14  O1  <0> d          -3.810   2.874   0.036  0.00  0.00    -0.648 OA
ATOM     15  O3  <0> d          -4.947   0.979   0.031  0.00  0.00    -0.648 OA
ENDBRANCH   7  13
ENDBRANCH   1   7
BRANCH   1  16
ATOM     16  C6  <0> d          -0.014   1.204   0.009  0.00  0.00     0.177 C 
ATOM     17  O2  <0> d           0.002  -0.004   0.002  0.00  0.00    -0.648 OA
ATOM     18  O4  <0> d           1.139   1.891   0.001  0.00  0.00    -0.648 OA
ENDBRANCH   1  16
TORSDOF 5
