REMARK  0 active torsions:
REMARK  status: ('A' for Active; 'I' for Inactive)
ROOT
ATOM      1  C1  <0> d          -0.019   1.530   0.011  0.00  0.00    -0.058 C 
ATOM      2  C2  <0> d           1.414   2.055  -0.000  0.00  0.00    -0.055 C 
ATOM      3  C3  <0> d           2.176   1.551  -1.224  0.00  0.00     0.026 A 
ATOM      4  H1  <0> d           2.585   2.325  -1.873  0.00  0.00     0.050 H 
ATOM      5  C4  <0> d           1.773   0.229  -1.874  0.00  0.00     0.076 A 
ATOM      6  H2  <0> d           1.906   0.142  -2.953  0.00  0.00     0.061 H 
ATOM      7  C5  <0> d           3.017   0.282  -1.023  0.00  0.00     0.259 A 
ATOM      8  F1  <0> d           4.252   0.215  -1.677  0.00  0.00    -0.205 F 
ATOM      9  F2  <0> d           2.962  -0.338   0.230  0.00  0.00    -0.205 F 
ATOM     10  C6  <0> d           0.561  -0.474  -1.313  0.00  0.00     0.137 C 
ATOM     11  O1  <0> d           0.015  -1.358  -1.928  0.00  0.00    -0.297 OA
ATOM     12  C7  <0> d           0.002  -0.004   0.002  0.00  0.00    -0.009 C 
ATOM     13  H3  <0> d          -0.528   1.882   0.907  0.00  0.00     0.033 H 
ATOM     14  H4  <0> d          -0.545   1.891  -0.873  0.00  0.00     0.033 H 
ATOM     15  H5  <0> d           1.396   3.145  -0.015  0.00  0.00     0.033 H 
ATOM     16  H6  <0> d           1.925   1.719   0.902  0.00  0.00     0.033 H 
ATOM     17  H7  <0> d           0.657  -0.370   0.792  0.00  0.00     0.044 H 
ATOM     18  H8  <0> d          -1.007  -0.389   0.149  0.00  0.00     0.044 H 
ENDROOT
TORSDOF 0
