REMARK  0 active torsions:
REMARK  status: ('A' for Active; 'I' for Inactive)
ROOT
ATOM      1  C1  <0> d           1.135   3.221   0.008  0.00  0.00    -0.020 A 
ATOM      2  C2  <0> d          -0.070   3.830   0.022  0.00  0.00    -0.018 A 
ATOM      3  N1  <0> d          -1.214   3.101   0.029  0.00  0.00    -0.356 N 
ATOM      4  H1  <0> d          -2.190   3.609   0.044  0.00  0.00     0.166 HD
ATOM      5  C3  <0> d          -1.190   1.744   0.017  0.00  0.00     0.107 A 
ATOM      6  C4  <0> d          -0.013   1.076   0.008  0.00  0.00     0.003 A 
ATOM      7  C5  <0> d           1.197   1.807   0.000  0.00  0.00     0.176 A 
ATOM      8  O1  <0> d           2.274   1.230  -0.012  0.00  0.00    -0.288 OA
ATOM      9 Cl1  <0> d          -2.682   0.858   0.019  0.00  0.00    -0.064 Cl
ATOM     10  H2  <0> d           2.042   3.807   0.003  0.00  0.00     0.091 H 
ATOM     11  H3  <0> d          -0.123   4.909   0.028  0.00  0.00     0.111 H 
ATOM     12  H4  <0> d           0.002  -0.004   0.002  0.00  0.00     0.094 H 
ENDROOT
TORSDOF 0
