REMARK  0 active torsions:
REMARK  status: ('A' for Active; 'I' for Inactive)
ROOT
ATOM      1  C1  <0> d          -0.019   1.525   0.010  0.00  0.00    -0.044 C 
ATOM      2  C2  <0> d           1.419   2.054  -0.001  0.00  0.00    -0.009 C 
ATOM      3  C3  <0> d           2.146   1.447  -1.180  0.00  0.00     0.127 C 
ATOM      4  O1  <0> d           2.748   2.143  -1.962  0.00  0.00    -0.298 OA
ATOM      5  C4  <0> d           2.099  -0.055  -1.356  0.00  0.00    -0.009 C 
ATOM      6  C5  <0> d           0.637  -0.507  -1.296  0.00  0.00    -0.044 C 
ATOM      7  C6  <0> d           0.002  -0.004   0.002  0.00  0.00     0.031 C 
ATOM      8  C7  <0> d           0.786  -0.489   1.150  0.00  0.00     0.064 C 
ATOM      9  N1  <0> d           1.391  -0.863   2.036  0.00  0.00    -0.197 NA
ATOM     10  H1  <0> d          -0.528   1.877   0.907  0.00  0.00     0.035 H 
ATOM     11  H2  <0> d          -0.545   1.887  -0.873  0.00  0.00     0.035 H 
ATOM     12  H3  <0> d           1.410   3.140  -0.096  0.00  0.00     0.044 H 
ATOM     13  H4  <0> d           1.921   1.770   0.924  0.00  0.00     0.044 H 
ATOM     14  H5  <0> d           2.526  -0.324  -2.322  0.00  0.00     0.044 H 
ATOM     15  H6  <0> d           2.664  -0.534  -0.556  0.00  0.00     0.044 H 
ATOM     16  H7  <0> d           0.094  -0.098  -2.148  0.00  0.00     0.035 H 
ATOM     17  H8  <0> d           0.591  -1.596  -1.325  0.00  0.00     0.035 H 
ATOM     18  H9  <0> d          -1.018  -0.381   0.076  0.00  0.00     0.062 H 
ENDROOT
TORSDOF 0
