REMARK  4 active torsions:
REMARK  status: ('A' for Active; 'I' for Inactive)
REMARK    1  A    between atoms: C1_1  and  C2_2 
REMARK    2  A    between atoms: C3_4  and  C6_10 
REMARK    3  A    between atoms: N2_5  and  C4_7 
REMARK    4  A    between atoms: C4_7  and  C5_8 
ROOT
ATOM      1  C2  <0> d           0.620  -2.067   0.322  0.00  0.00     0.144 A 
ATOM      2  N1  <0> d          -0.541  -2.054  -0.332  0.00  0.00    -0.218 NA
ATOM      3  C3  <0> d          -0.924  -0.820  -0.532  0.00  0.00     0.121 A 
ATOM      4  N2  <0> d           0.002  -0.004   0.002  0.00  0.00    -0.245 N 
ATOM      5  N3  <0> d           0.995  -0.835   0.545  0.00  0.00    -0.155 NA
ENDROOT
BRANCH   4   6
ATOM      6  C4  <0> d          -0.018   1.461   0.010  0.00  0.00     0.098 C 
ATOM      7  H4  <0> d           1.005   1.838   0.002  0.00  0.00     0.084 H 
ATOM      8  H5  <0> d          -0.545   1.822  -0.873  0.00  0.00     0.084 H 
BRANCH   6   9
ATOM      9  C5  <0> d          -0.723   1.947   1.250  0.00  0.00     0.193 C 
ATOM     10  O1  <0> d          -1.164   1.151   2.045  0.00  0.00    -0.647 OA
ATOM     11  O2  <0> d          -0.862   3.264   1.471  0.00  0.00    -0.647 OA
ENDBRANCH   6   9
ENDBRANCH   4   6
BRANCH   3  12
ATOM     12  C6  <0> d          -2.183  -0.387  -1.237  0.00  0.00    -0.020 C 
ATOM     13  H6  <0> d          -1.982  -0.270  -2.302  0.00  0.00     0.037 H 
ATOM     14  H7  <0> d          -2.957  -1.141  -1.094  0.00  0.00     0.037 H 
ATOM     15  H8  <0> d          -2.522   0.564  -0.826  0.00  0.00     0.037 H 
ENDBRANCH   3  12
BRANCH   1  16
ATOM     16  C1  <0> d           1.379  -3.302   0.734  0.00  0.00    -0.018 C 
ATOM     17  H1  <0> d           2.067  -3.588  -0.062  0.00  0.00     0.038 H 
ATOM     18  H2  <0> d           1.942  -3.096   1.644  0.00  0.00     0.038 H 
ATOM     19  H3  <0> d           0.678  -4.116   0.917  0.00  0.00     0.038 H 
ENDBRANCH   1  16
TORSDOF 4
