REMARK  0 active torsions:
REMARK  status: ('A' for Active; 'I' for Inactive)
ROOT
ATOM      1  C1  <0> d          -0.013   1.076   0.008  0.00  0.00    -0.061 A 
ATOM      2  C2  <0> d          -1.212   1.775   0.017  0.00  0.00    -0.041 A 
ATOM      3  C3  <0> d          -1.157   3.161   0.029  0.00  0.00     0.148 A 
ATOM      4  N1  <0> d           0.013   3.772   0.021  0.00  0.00    -0.138 NA
ATOM      5  N2  <0> d           1.122   3.124   0.008  0.00  0.00    -0.161 NA
ATOM      6  C4  <0> d           1.166   1.806   0.001  0.00  0.00     0.024 A 
ATOM      7 Cl1  <0> d          -2.624   4.090   0.048  0.00  0.00    -0.061 Cl
ATOM      8  H1  <0> d           0.002  -0.004   0.002  0.00  0.00     0.085 H 
ATOM      9  H2  <0> d          -2.159   1.255   0.019  0.00  0.00     0.088 H 
ATOM     10  H3  <0> d           2.118   1.296  -0.011  0.00  0.00     0.117 H 
ENDROOT
TORSDOF 0
