REMARK  5 active torsions:
REMARK  status: ('A' for Active; 'I' for Inactive)
REMARK    1  A    between atoms: C1_1  and  C2_2 
REMARK    2  A    between atoms: C1_1  and  C3_4 
REMARK    3  A    between atoms: C2_2  and  O1_3 
REMARK    4  A    between atoms: C3_4  and  C4_6 
REMARK    5  A    between atoms: C3_4  and  O2_10 
ROOT
ATOM      1  C1  <0> d          -1.433  -0.534   0.013  0.00  0.00    -0.013 C 
ATOM      2  H2  <0> d          -1.944  -0.182   0.910  0.00  0.00     0.040 H 
ATOM      3  H3  <0> d          -1.960  -0.173  -0.870  0.00  0.00     0.040 H 
ENDROOT
BRANCH   1   4
ATOM      4  C2  <0> d           0.002  -0.004   0.002  0.00  0.00     0.019 C 
ATOM      5  H4  <0> d           0.512  -0.356  -0.895  0.00  0.00     0.074 H 
ATOM      6  H5  <0> d           0.529  -0.365   0.885  0.00  0.00     0.074 H 
BRANCH   4   7
ATOM      7  O1  <0> d          -0.017   1.425   0.010  0.00  0.00    -0.401 OA
ATOM      8  H6  <0> d           0.861   1.830   0.004  0.00  0.00     0.209 HD
ENDBRANCH   4   7
ENDBRANCH   1   4
BRANCH   1   9
ATOM      9  C3  <0> d          -1.413  -2.063   0.004  0.00  0.00     0.131 C 
ATOM     10  H1  <0> d          -0.826  -2.414  -0.845  0.00  0.00     0.097 H 
BRANCH   9  11
ATOM     11  C4  <0> d          -2.844  -2.592  -0.110  0.00  0.00     0.413 C 
ATOM     12  F1  <0> d          -3.419  -2.127  -1.298  0.00  0.00    -0.168 F 
ATOM     13  F2  <0> d          -2.825  -3.991  -0.118  0.00  0.00    -0.168 F 
ATOM     14  F3  <0> d          -3.596  -2.142   0.980  0.00  0.00    -0.168 F 
ENDBRANCH   9  11
BRANCH   9  15
ATOM     15  O2  <0> d          -0.825  -2.539   1.217  0.00  0.00    -0.387 OA
ATOM     16  H7  <0> d          -1.296  -2.264   2.016  0.00  0.00     0.210 HD
ENDBRANCH   9  15
ENDBRANCH   1   9
TORSDOF 5
