REMARK  2 active torsions:
REMARK  status: ('A' for Active; 'I' for Inactive)
REMARK    1  A    between atoms: C1_1  and  C2_2 
REMARK    2  A    between atoms: C3_3  and  C6_8 
ROOT
ATOM      1  C2  <0> d           2.340   0.113   0.016  0.00  0.00     0.066 A 
ATOM      2  C3  <0> d           2.209   1.477  -0.245  0.00  0.00     0.157 A 
ATOM      3  N1  <0> d           1.002   2.034  -0.263  0.00  0.00    -0.251 NA
ATOM      4  C4  <0> d          -0.066   1.296  -0.035  0.00  0.00     0.020 A 
ATOM      5  C5  <0> d           0.067  -0.061   0.224  0.00  0.00     0.019 A 
ATOM      6  N2  <0> d           1.264  -0.619   0.243  0.00  0.00    -0.262 NA
ATOM      7  H4  <0> d          -1.047   1.747  -0.055  0.00  0.00     0.117 H 
ATOM      8  H5  <0> d          -0.811  -0.662   0.410  0.00  0.00     0.117 H 
ENDROOT
BRANCH   1   9
ATOM      9  C1  <0> d           3.705  -0.525   0.038  0.00  0.00    -0.033 C 
ATOM     10  H1  <0> d           4.008  -0.770  -0.980  0.00  0.00     0.035 H 
ATOM     11  H2  <0> d           4.423   0.170   0.473  0.00  0.00     0.035 H 
ATOM     12  H3  <0> d           3.672  -1.435   0.637  0.00  0.00     0.035 H 
ENDBRANCH   1   9
BRANCH   2  13
ATOM     13  C6  <0> d           3.412   2.302  -0.500  0.00  0.00     0.231 C 
ATOM     14  O1  <0> d           4.502   1.776  -0.587  0.00  0.00    -0.643 OA
ATOM     15  O2  <0> d           3.296   3.637  -0.635  0.00  0.00    -0.643 OA
ENDBRANCH   2  13
TORSDOF 2
