REMARK  1 active torsions:
REMARK  status: ('A' for Active; 'I' for Inactive)
REMARK    1  A    between atoms: C6_7  and  N2_9 
ROOT
ATOM      1  C1  <0> d           4.425   1.718  -0.498  0.00  0.00    -0.060 C 
ATOM      2  C2  <0> d           3.975   2.912   0.348  0.00  0.00    -0.060 C 
ATOM      3  C3  <0> d           2.516   3.245  -0.004  0.00  0.00    -0.033 C 
ATOM      4  C4  <0> d           1.734   1.975  -0.004  0.00  0.00     0.011 A 
ATOM      5  C5  <0> d           2.210   0.704  -0.016  0.00  0.00     0.050 A 
ATOM      6  N1  <0> d           1.294  -0.263  -0.012  0.00  0.00    -0.228 NA
ATOM      7  C6  <0> d           0.002  -0.004   0.002  0.00  0.00     0.165 A 
ATOM      8  S1  <0> d          -0.021   1.734   0.012  0.00  0.00    -0.055 SA
ATOM      9  C7  <0> d           3.712   0.446  -0.033  0.00  0.00    -0.024 C 
ATOM     10  H1  <0> d           5.512   1.589  -0.391  0.00  0.00     0.033 H 
ATOM     11  H2  <0> d           4.180   1.910  -1.553  0.00  0.00     0.033 H 
ATOM     12  H3  <0> d           4.052   2.655   1.415  0.00  0.00     0.033 H 
ATOM     13  H4  <0> d           4.618   3.778   0.132  0.00  0.00     0.033 H 
ATOM     14  H5  <0> d           2.108   3.940   0.745  0.00  0.00     0.041 H 
ATOM     15  H6  <0> d           2.477   3.713  -0.998  0.00  0.00     0.041 H 
ATOM     16  H9  <0> d           3.942  -0.377  -0.727  0.00  0.00     0.042 H 
ATOM     17  H10 <0> d           4.057   0.181   0.977  0.00  0.00     0.042 H 
ENDROOT
BRANCH   7  18
ATOM     18  N2  <0> d          -1.064  -0.890   0.007  0.00  0.00    -0.378 N 
ATOM     19  H7  <0> d          -2.096  -0.509   0.019  0.00  0.00     0.158 HD
ATOM     20  H8  <0> d          -0.878  -1.974  -0.001  0.00  0.00     0.158 HD
ENDBRANCH   7  18
TORSDOF 1
