REMARK  3 active torsions:
REMARK  status: ('A' for Active; 'I' for Inactive)
REMARK    1  A    between atoms: C1_1  and  C2_2 
REMARK    2  A    between atoms: C4_4  and  C7_10 
REMARK    3  A    between atoms: N1_5  and  C6_9 
ROOT
ATOM      1  C2  <0> d          -1.227   1.768   0.017  0.00  0.00     0.038 A 
ATOM      2  C3  <0> d          -0.013   1.076   0.008  0.00  0.00    -0.038 A 
ATOM      3  C4  <0> d           1.150   1.781   0.001  0.00  0.00     0.014 A 
ATOM      4  N1  <0> d           1.102   3.139   0.008  0.00  0.00    -0.307 N 
ATOM      5  C5  <0> d          -0.086   3.773   0.023  0.00  0.00     0.348 A 
ATOM      6  O1  <0> d          -0.116   4.992   0.030  0.00  0.00    -0.244 OA
ATOM      7  N2  <0> d          -1.231   3.086   0.031  0.00  0.00    -0.199 NA
ATOM      8  H4  <0> d           0.002  -0.004   0.002  0.00  0.00     0.089 H 
ENDROOT
BRANCH   1   9
ATOM      9  C1  <0> d          -2.529   1.009   0.019  0.00  0.00    -0.035 C 
ATOM     10  H1  <0> d          -2.838   0.821   1.048  0.00  0.00     0.035 H 
ATOM     11  H2  <0> d          -3.294   1.598  -0.488  0.00  0.00     0.035 H 
ATOM     12  H3  <0> d          -2.397   0.060  -0.500  0.00  0.00     0.035 H 
ENDBRANCH   1   9
BRANCH   3  13
ATOM     13  C7  <0> d           2.477   1.065  -0.015  0.00  0.00    -0.037 C 
ATOM     14  H8  <0> d           2.308  -0.011  -0.019  0.00  0.00     0.035 H 
ATOM     15  H9  <0> d           3.032   1.350  -0.909  0.00  0.00     0.035 H 
ATOM     16  H10 <0> d           3.049   1.341   0.871  0.00  0.00     0.035 H 
ENDBRANCH   3  13
BRANCH   4  17
ATOM     17  C6  <0> d           2.345   3.915   0.001  0.00  0.00    -0.010 C 
ATOM     18  H5  <0> d           2.643   4.113  -1.028  0.00  0.00     0.057 H 
ATOM     19  H6  <0> d           2.186   4.859   0.522  0.00  0.00     0.057 H 
ATOM     20  H7  <0> d           3.129   3.350   0.505  0.00  0.00     0.057 H 
ENDBRANCH   4  17
TORSDOF 3
