REMARK  1 active torsions:
REMARK  status: ('A' for Active; 'I' for Inactive)
REMARK    1  A    between atoms: C4_5  and  C6_7 
ROOT
ATOM      1  C6  <0> d           0.078   5.276   0.029  0.00  0.00    -0.033 C 
ATOM      2  C7  <0> d          -1.056   5.928  -0.063  0.00  0.00    -0.095 C 
ATOM      3  C8  <0> d          -1.162   7.425  -0.072  0.00  0.00    -0.049 C 
ATOM      4  C9  <0> d           0.135   8.049   0.446  0.00  0.00    -0.062 C 
ATOM      5  C10 <0> d           1.314   7.408  -0.296  0.00  0.00    -0.061 C 
ATOM      6  C11 <0> d           1.419   5.943   0.135  0.00  0.00    -0.039 C 
ATOM      7  H5  <0> d          -1.968   5.353  -0.132  0.00  0.00     0.077 H 
ATOM      8  H6  <0> d          -1.992   7.735   0.563  0.00  0.00     0.038 H 
ATOM      9  H7  <0> d          -1.343   7.762  -1.093  0.00  0.00     0.038 H 
ATOM     10  H8  <0> d           0.230   7.862   1.516  0.00  0.00     0.033 H 
ATOM     11  H9  <0> d           0.125   9.123   0.258  0.00  0.00     0.033 H 
ATOM     12  H10 <0> d           2.236   7.931  -0.041  0.00  0.00     0.033 H 
ATOM     13  H11 <0> d           1.148   7.462  -1.371  0.00  0.00     0.033 H 
ATOM     14  H12 <0> d           1.767   5.894   1.166  0.00  0.00     0.040 H 
ATOM     15  H13 <0> d           2.130   5.429  -0.512  0.00  0.00     0.040 H 
ENDROOT
BRANCH   1  16
ATOM     16  C4  <0> d           0.035   3.799   0.022  0.00  0.00     0.062 A 
ATOM     17  N1  <0> d          -1.119   3.175  -0.186  0.00  0.00    -0.261 NA
ATOM     18  C3  <0> d          -1.199   1.860  -0.200  0.00  0.00     0.003 A 
ATOM     19  C2  <0> d          -0.078   1.078   0.003  0.00  0.00    -0.066 A 
ATOM     20  H3  <0> d          -2.155   1.387  -0.372  0.00  0.00     0.114 H 
ATOM     21  C1  <0> d           1.148   1.689   0.230  0.00  0.00    -0.079 A 
ATOM     22  H2  <0> d          -0.155   0.001  -0.010  0.00  0.00     0.085 H 
ATOM     23  C5  <0> d           1.206   3.071   0.234  0.00  0.00    -0.055 A 
ATOM     24  H1  <0> d           2.037   1.099   0.396  0.00  0.00     0.083 H 
ATOM     25  H4  <0> d           2.144   3.579   0.403  0.00  0.00     0.087 H 
ENDBRANCH   1  16
TORSDOF 1
