REMARK  9 active torsions:
REMARK  status: ('A' for Active; 'I' for Inactive)
REMARK    1  A    between atoms: C1_1  and  C2_2 
REMARK    2  A    between atoms: C2_2  and  C3_3 
REMARK    3  A    between atoms: C3_3  and  C4_4 
REMARK    4  A    between atoms: C4_4  and  C5_5 
REMARK    5  A    between atoms: C5_5  and  C6_6 
REMARK    6  A    between atoms: C6_6  and  C7_7 
REMARK    7  A    between atoms: C6_6  and  C8_8 
REMARK    8  A    between atoms: C6_6  and  O1_10 
REMARK    9  A    between atoms: C8_8  and  C9_9 
ROOT
ATOM      1  C5  <0> d           0.742  -0.511   1.242  0.00  0.00    -0.037 C 
ATOM      2  H10 <0> d           0.835  -1.596   1.191  0.00  0.00     0.037 H 
ATOM      3  H11 <0> d           1.735  -0.063   1.280  0.00  0.00     0.037 H 
ENDROOT
BRANCH   1   4
ATOM      4  C4  <0> d          -0.042  -0.124   2.497  0.00  0.00    -0.062 C 
ATOM      5  H8  <0> d          -0.134   0.961   2.548  0.00  0.00     0.033 H 
ATOM      6  H9  <0> d          -1.034  -0.572   2.458  0.00  0.00     0.033 H 
BRANCH   4   7
ATOM      7  C3  <0> d           0.698  -0.630   3.737  0.00  0.00    -0.065 C 
ATOM      8  H6  <0> d           0.791  -1.715   3.686  0.00  0.00     0.033 H 
ATOM      9  H7  <0> d           1.691  -0.182   3.776  0.00  0.00     0.033 H 
BRANCH   7  10
ATOM     10  C2  <0> d          -0.085  -0.243   4.992  0.00  0.00    -0.069 C 
ATOM     11  H4  <0> d          -0.178   0.842   5.043  0.00  0.00     0.032 H 
ATOM     12  H5  <0> d          -1.078  -0.691   4.954  0.00  0.00     0.032 H 
BRANCH  10  13
ATOM     13  C1  <0> d           0.655  -0.750   6.232  0.00  0.00    -0.077 C 
ATOM     14  H1  <0> d           0.096  -0.474   7.127  0.00  0.00     0.027 H 
ATOM     15  H2  <0> d           0.747  -1.835   6.182  0.00  0.00     0.027 H 
ATOM     16  H3  <0> d           1.648  -0.302   6.271  0.00  0.00     0.027 H 
ENDBRANCH  10  13
ENDBRANCH   7  10
ENDBRANCH   4   7
ENDBRANCH   1   4
BRANCH   1  17
ATOM     17  C6  <0> d           0.002  -0.004   0.002  0.00  0.00     0.054 C 
BRANCH  17  18
ATOM     18  C7  <0> d          -1.433  -0.534   0.013  0.00  0.00    -0.048 C 
ATOM     19  H12 <0> d          -1.960  -0.173  -0.870  0.00  0.00     0.031 H 
ATOM     20  H13 <0> d          -1.419  -1.623   0.007  0.00  0.00     0.031 H 
ATOM     21  H14 <0> d          -1.944  -0.182   0.910  0.00  0.00     0.031 H 
ENDBRANCH  17  18
BRANCH  17  22
ATOM     22  C8  <0> d           0.718  -0.497  -1.257  0.00  0.00    -0.040 C 
ATOM     23  H15 <0> d           1.741  -0.120  -1.264  0.00  0.00     0.036 H 
ATOM     24  H16 <0> d           0.733  -1.587  -1.263  0.00  0.00     0.036 H 
BRANCH  22  25
ATOM     25  C9  <0> d          -0.022   0.009  -2.496  0.00  0.00    -0.074 C 
ATOM     26  H17 <0> d          -1.044  -0.368  -2.489  0.00  0.00     0.027 H 
ATOM     27  H18 <0> d          -0.037   1.099  -2.490  0.00  0.00     0.027 H 
ATOM     28  H19 <0> d           0.488  -0.342  -3.393  0.00  0.00     0.027 H 
ENDBRANCH  22  25
ENDBRANCH  17  22
BRANCH  17  29
ATOM     29  O1  <0> d          -0.017   1.425   0.010  0.00  0.00    -0.390 OA
ATOM     30  H20 <0> d           0.861   1.830   0.004  0.00  0.00     0.210 HD
ENDBRANCH  17  29
ENDBRANCH   1  17
TORSDOF 9
