REMARK  1 active torsions:
REMARK  status: ('A' for Active; 'I' for Inactive)
REMARK    1  A    between atoms: C1_1  and  C2_2 
ROOT
ATOM      1  C2  <0> d          -0.811   1.623  -1.203  0.00  0.00    -0.034 C 
ATOM      2  H1  <0> d          -1.541   0.890  -1.545  0.00  0.00     0.042 H 
ATOM      3  C3  <0> d          -0.013   1.086   0.008  0.00  0.00     0.014 C 
ATOM      4  C4  <0> d          -0.771   1.598   1.213  0.00  0.00     0.217 C 
ATOM      5  O1  <0> d          -0.643   1.179   2.344  0.00  0.00    -0.274 OA
ATOM      6  N1  <0> d          -1.608   2.586   0.844  0.00  0.00    -0.361 N 
ATOM      7  C5  <0> d          -1.511   2.859  -0.595  0.00  0.00    -0.001 C 
ATOM      8  H5  <0> d           0.002  -0.004   0.002  0.00  0.00     0.047 H 
ATOM      9  H6  <0> d           1.003   1.480   0.000  0.00  0.00     0.047 H 
ATOM     10  H7  <0> d          -2.199   3.058   1.451  0.00  0.00     0.162 HD
ATOM     11  H8  <0> d          -0.914   3.754  -0.770  0.00  0.00     0.064 H 
ATOM     12  H9  <0> d          -2.505   2.978  -1.025  0.00  0.00     0.064 H 
ENDROOT
BRANCH   1  13
ATOM     13  C1  <0> d           0.128   2.028  -2.341  0.00  0.00    -0.071 C 
ATOM     14  H2  <0> d           0.707   1.162  -2.660  0.00  0.00     0.028 H 
ATOM     15  H3  <0> d          -0.459   2.402  -3.180  0.00  0.00     0.028 H 
ATOM     16  H4  <0> d           0.804   2.809  -1.993  0.00  0.00     0.028 H 
ENDBRANCH   1  13
TORSDOF 1
