REMARK  2 active torsions:
REMARK  status: ('A' for Active; 'I' for Inactive)
REMARK    1  A    between atoms: C1_2  and  C2_3 
REMARK    2  A    between atoms: C2_3  and  C3_4 
ROOT
ATOM      1  C2  <0> d           1.423   1.615  -0.003  0.00  0.00     0.297 C 
ATOM      2  F3  <0> d           1.404   3.014   0.005  0.00  0.00    -0.201 F 
ATOM      3  F4  <0> d           2.099   1.152   1.131  0.00  0.00    -0.201 F 
ENDROOT
BRANCH   1   4
ATOM      4  C1  <0> d          -0.013   1.086   0.008  0.00  0.00    -0.011 C 
ATOM      5  H1  <0> d           0.002  -0.004   0.002  0.00  0.00     0.036 H 
ATOM      6  H2  <0> d          -0.540   1.447  -0.875  0.00  0.00     0.036 H 
ATOM      7  H3  <0> d          -0.523   1.437   0.905  0.00  0.00     0.036 H 
ENDBRANCH   1   4
BRANCH   1   8
ATOM      8  C3  <0> d           2.139   1.122  -1.262  0.00  0.00     0.269 C 
ATOM      9  F1  <0> d           1.462   1.585  -2.395  0.00  0.00    -0.208 F 
ATOM     10  F2  <0> d           3.451   1.606  -1.272  0.00  0.00    -0.208 F 
ATOM     11  H4  <0> d           2.154   0.032  -1.268  0.00  0.00     0.154 H 
ENDBRANCH   1   8
TORSDOF 2
