REMARK  3 active torsions:
REMARK  status: ('A' for Active; 'I' for Inactive)
REMARK    1  A    between atoms: C1_1  and  C2_2 
REMARK    2  A    between atoms: C1_1  and  O1_6 
REMARK    3  A    between atoms: C1_1  and  O2_7 
ROOT
ATOM      1  C1  <0> d          -0.733   1.888   1.268  0.00  0.00     0.221 C 
ATOM      2  H1  <0> d          -1.756   1.511   1.276  0.00  0.00     0.143 H 
ENDROOT
BRANCH   1   3
ATOM      3  C2  <0> d          -0.017   1.395   0.010  0.00  0.00     0.437 C 
ATOM      4  F1  <0> d           0.002  -0.004   0.002  0.00  0.00    -0.166 F 
ATOM      5  F2  <0> d           1.296   1.879  -0.000  0.00  0.00    -0.166 F 
ATOM      6  F3  <0> d          -0.694   1.858  -1.124  0.00  0.00    -0.166 F 
ENDBRANCH   1   3
BRANCH   1   7
ATOM      7  O1  <0> d          -0.042   1.415   2.426  0.00  0.00    -0.364 OA
ATOM      8  H2  <0> d          -0.441   1.690   3.263  0.00  0.00     0.213 HD
ENDBRANCH   1   7
BRANCH   1   9
ATOM      9  O2  <0> d          -0.752   3.317   1.276  0.00  0.00    -0.364 OA
ATOM     10  H3  <0> d           0.126   3.722   1.270  0.00  0.00     0.213 HD
ENDBRANCH   1   9
TORSDOF 3
