REMARK  4 active torsions:
REMARK  status: ('A' for Active; 'I' for Inactive)
REMARK    1  A    between atoms: C1_1  and  C2_2 
REMARK    2  A    between atoms: C4_5  and  C9_13 
REMARK    3  A    between atoms: C5_7  and  C8_12 
REMARK    4  A    between atoms: C6_9  and  C7_11 
ROOT
ATOM      1  C2  <0> d           1.618   5.256  -1.383  0.00  0.00    -0.053 C 
ATOM      2  H1  <0> d           1.038   6.009  -0.829  0.00  0.00     0.040 H 
ATOM      3  C3  <0> d           0.879   3.902  -1.520  0.00  0.00    -0.049 C 
ATOM      4  C4  <0> d           1.230   3.186  -0.192  0.00  0.00     0.034 C 
ATOM      5  H2  <0> d           0.557   3.448   0.637  0.00  0.00     0.057 H 
ATOM      6  C5  <0> d           2.698   3.578   0.075  0.00  0.00    -0.041 C 
ATOM      7  H3  <0> d           2.895   3.692   1.151  0.00  0.00     0.041 H 
ATOM      8  C6  <0> d           2.945   4.894  -0.686  0.00  0.00    -0.051 C 
ATOM      9  H4  <0> d           3.273   5.694  -0.005  0.00  0.00     0.040 H 
ATOM     10  H8  <0> d          -0.201   4.083  -1.632  0.00  0.00     0.034 H 
ATOM     11  H9  <0> d           1.254   3.367  -2.404  0.00  0.00     0.034 H 
ENDROOT
BRANCH   1  12
ATOM     12  C1  <0> d           1.886   5.861  -2.763  0.00  0.00    -0.072 C 
ATOM     13  H5  <0> d           0.929   6.113  -3.245  0.00  0.00     0.028 H 
ATOM     14  H6  <0> d           2.429   5.133  -3.384  0.00  0.00     0.028 H 
ATOM     15  H7  <0> d           2.492   6.773  -2.652  0.00  0.00     0.028 H 
ENDBRANCH   1  12
BRANCH   8  16
ATOM     16  C7  <0> d           4.049   4.701  -1.728  0.00  0.00    -0.072 C 
ATOM     17  H10 <0> d           4.991   4.443  -1.221  0.00  0.00     0.028 H 
ATOM     18  H11 <0> d           4.183   5.632  -2.298  0.00  0.00     0.028 H 
ATOM     19  H12 <0> d           3.768   3.888  -2.413  0.00  0.00     0.028 H 
ENDBRANCH   8  16
BRANCH   6  20
ATOM     20  C8  <0> d           3.635   2.487  -0.448  0.00  0.00    -0.072 C 
ATOM     21  H13 <0> d           4.679   2.775  -0.253  0.00  0.00     0.028 H 
ATOM     22  H14 <0> d           3.486   2.363  -1.531  0.00  0.00     0.028 H 
ATOM     23  H15 <0> d           3.415   1.538   0.063  0.00  0.00     0.028 H 
ENDBRANCH   6  20
BRANCH   4  24
ATOM     24  C9  <0> d           1.103   1.692  -0.349  0.00  0.00     0.177 C 
ATOM     25  O1  <0> d           1.194   1.190  -1.444  0.00  0.00    -0.648 OA
ATOM     26  O2  <0> d           0.888   0.920   0.728  0.00  0.00    -0.648 OA
ENDBRANCH   4  24
TORSDOF 4
