REMARK  1 active torsions:
REMARK  status: ('A' for Active; 'I' for Inactive)
REMARK    1  A    between atoms: C1_1  and  C2_2 
ROOT
ATOM      1  C2  <0> d           1.428   4.398   0.012  0.00  0.00    -0.034 A 
ATOM      2  C3  <0> d           0.752   5.598   0.026  0.00  0.00    -0.072 A 
ATOM      3  C4  <0> d          -0.635   5.630   0.039  0.00  0.00    -0.044 A 
ATOM      4  C5  <0> d          -1.359   4.456   0.039  0.00  0.00     0.129 A 
ATOM      5  C6  <0> d          -0.687   3.230   0.026  0.00  0.00     0.031 A 
ATOM      6  C7  <0> d           0.719   3.201   0.012  0.00  0.00     0.051 A 
ATOM      7  N1  <0> d           1.097   1.877   0.002  0.00  0.00    -0.365 N 
ATOM      8  H1  <0> d           2.014   1.559  -0.009  0.00  0.00     0.165 HD
ATOM      9  C8  <0> d          -0.013   1.076   0.008  0.00  0.00    -0.022 A 
ATOM     10  C9  <0> d          -1.122   1.831   0.017  0.00  0.00    -0.053 A 
ATOM     11  F1  <0> d          -2.709   4.490   0.053  0.00  0.00    -0.205 F 
ATOM     12  H5  <0> d           1.308   6.524   0.026  0.00  0.00     0.084 H 
ATOM     13  H6  <0> d          -1.151   6.579   0.050  0.00  0.00     0.088 H 
ATOM     14  H7  <0> d           0.002  -0.004   0.002  0.00  0.00     0.111 H 
ATOM     15  H8  <0> d          -2.142   1.476   0.019  0.00  0.00     0.087 H 
ENDROOT
BRANCH   1  16
ATOM     16  C1  <0> d           2.935   4.381  -0.002  0.00  0.00    -0.049 C 
ATOM     17  H2  <0> d           3.289   4.383  -1.033  0.00  0.00     0.033 H 
ATOM     18  H3  <0> d           3.313   5.265   0.513  0.00  0.00     0.033 H 
ATOM     19  H4  <0> d           3.293   3.485   0.504  0.00  0.00     0.033 H 
ENDBRANCH   1  16
TORSDOF 1
