REMARK  5 active torsions:
REMARK  status: ('A' for Active; 'I' for Inactive)
REMARK    1  A    between atoms: C1_1  and  C2_2 
REMARK    2  A    between atoms: C2_2  and  O1_3 
REMARK    3  A    between atoms: O1_3  and  C3_4 
REMARK    4  A    between atoms: C3_4  and  C4_6 
REMARK    5  A    between atoms: C4_6  and  C5_7 
ROOT
ATOM      1  C3  <0> d           1.908  -2.278  -1.449  0.00  0.00     0.266 C 
ATOM      2  O2  <0> d           1.639  -1.532  -2.361  0.00  0.00    -0.265 OA
ENDROOT
BRANCH   1   3
ATOM      3  O1  <0> d           2.345  -3.521  -1.705  0.00  0.00    -0.322 OA
BRANCH   3   4
ATOM      4  C2  <0> d           2.468  -3.902  -3.101  0.00  0.00     0.025 C 
ATOM      5  H4  <0> d           1.494  -3.827  -3.586  0.00  0.00     0.074 H 
ATOM      6  H5  <0> d           3.173  -3.236  -3.598  0.00  0.00     0.074 H 
BRANCH   4   7
ATOM      7  C1  <0> d           2.975  -5.342  -3.194  0.00  0.00    -0.056 C 
ATOM      8  H1  <0> d           3.949  -5.417  -2.709  0.00  0.00     0.030 H 
ATOM      9  H2  <0> d           2.270  -6.008  -2.696  0.00  0.00     0.030 H 
ATOM     10  H3  <0> d           3.068  -5.628  -4.242  0.00  0.00     0.030 H 
ENDBRANCH   4   7
ENDBRANCH   3   4
ENDBRANCH   1   3
BRANCH   1  11
ATOM     11  C4  <0> d           1.755  -1.812  -0.024  0.00  0.00     0.076 C 
ATOM     12  H6  <0> d           2.720  -1.861   0.480  0.00  0.00     0.060 H 
ATOM     13  H7  <0> d           1.041  -2.453   0.493  0.00  0.00     0.060 H 
BRANCH  11  14
ATOM     14  C5  <0> d           1.254  -0.390  -0.012  0.00  0.00     0.183 A 
ATOM     15  N3  <0> d           2.001   0.715  -0.013  0.00  0.00    -0.111 NA
ATOM     16  N2  <0> d           1.196   1.723  -0.000  0.00  0.00    -0.021 NA
ATOM     17  N4  <0> d          -0.013   1.283   0.009  0.00  0.00    -0.021 NA
ATOM     18  N1  <0> d           0.002  -0.004   0.002  0.00  0.00    -0.111 NA
ENDBRANCH  11  14
ENDBRANCH   1  11
TORSDOF 5
