REMARK  8 active torsions:
REMARK  status: ('A' for Active; 'I' for Inactive)
REMARK    1  A    between atoms: C1_1  and  C2_2 
REMARK    2  A    between atoms: C2_2  and  C3_3 
REMARK    3  A    between atoms: C3_3  and  C4_4 
REMARK    4  A    between atoms: C4_4  and  C5_6 
REMARK    5  A    between atoms: C4_4  and  C8_11 
REMARK    6  A    between atoms: C5_6  and  C6_7 
REMARK    7  A    between atoms: C6_7  and  C7_9 
REMARK    8  A    between atoms: C6_7  and  O1_10 
ROOT
ATOM      1  C4  <0> d          -0.776   1.642   1.380  0.00  0.00     0.033 C 
ATOM      2  H1  <0> d          -0.798   2.434   2.128  0.00  0.00     0.056 H 
ENDROOT
BRANCH   1   3
ATOM      3  C3  <0> d          -0.582   2.257  -0.007  0.00  0.00    -0.053 C 
ATOM      4  H8  <0> d          -0.648   1.475  -0.764  0.00  0.00     0.034 H 
ATOM      5  H9  <0> d           0.399   2.731  -0.061  0.00  0.00     0.034 H 
BRANCH   3   6
ATOM      6  C2  <0> d          -1.668   3.304  -0.259  0.00  0.00    -0.068 C 
ATOM      7  H6  <0> d          -2.649   2.830  -0.206  0.00  0.00     0.032 H 
ATOM      8  H7  <0> d          -1.601   4.086   0.498  0.00  0.00     0.032 H 
BRANCH   6   9
ATOM      9  C1  <0> d          -1.474   3.919  -1.646  0.00  0.00    -0.076 C 
ATOM     10  H3  <0> d          -0.493   4.393  -1.699  0.00  0.00     0.027 H 
ATOM     11  H4  <0> d          -1.540   3.137  -2.403  0.00  0.00     0.027 H 
ATOM     12  H5  <0> d          -2.248   4.665  -1.825  0.00  0.00     0.027 H 
ENDBRANCH   6   9
ENDBRANCH   3   6
ENDBRANCH   1   3
BRANCH   1  13
ATOM     13  C5  <0> d           0.380   0.687   1.681  0.00  0.00    -0.029 C 
ATOM     14  H10 <0> d           0.189   0.171   2.623  0.00  0.00     0.038 H 
ATOM     15  H11 <0> d           0.467  -0.044   0.877  0.00  0.00     0.038 H 
BRANCH  13  16
ATOM     16  C6  <0> d           1.683   1.482   1.791  0.00  0.00     0.033 C 
ATOM     17  H2  <0> d           1.841   2.048   0.873  0.00  0.00     0.082 H 
BRANCH  16  18
ATOM     18  C7  <0> d           2.852   0.518   2.003  0.00  0.00    -0.052 C 
ATOM     19  H12 <0> d           2.915  -0.168   1.158  0.00  0.00     0.030 H 
ATOM     20  H13 <0> d           3.780   1.084   2.080  0.00  0.00     0.030 H 
ATOM     21  H14 <0> d           2.694  -0.048   2.921  0.00  0.00     0.030 H 
ENDBRANCH  16  18
BRANCH  16  22
ATOM     22  O1  <0> d           1.601   2.382   2.897  0.00  0.00    -0.396 OA
ATOM     23  H15 <0> d           1.460   1.946   3.749  0.00  0.00     0.210 HD
ENDBRANCH  16  22
ENDBRANCH  13  16
ENDBRANCH   1  13
BRANCH   1  24
ATOM     24  C8  <0> d          -2.077   0.883   1.414  0.00  0.00     0.177 C 
ATOM     25  O2  <0> d          -2.455   0.286   0.434  0.00  0.00    -0.648 OA
ATOM     26  O3  <0> d          -2.817   0.868   2.535  0.00  0.00    -0.648 OA
ENDBRANCH   1  24
TORSDOF 8
