REMARK  5 active torsions:
REMARK  status: ('A' for Active; 'I' for Inactive)
REMARK    1  A    between atoms: C1_1  and  C2_2 
REMARK    2  A    between atoms: C2_2  and  C3_4 
REMARK    3  A    between atoms: C2_2  and  N1_7 
REMARK    4  A    between atoms: C3_4  and  C4_5 
REMARK       I    between atoms: N1_7  and  C5_8 
REMARK    5  A    between atoms: C5_8  and  C6_10 
ROOT
ATOM      1  C2  <0> d           2.696   3.548  -0.005  0.00  0.00     0.018 C 
ATOM      2  H1  <0> d           3.210   3.097  -0.854  0.00  0.00     0.072 H 
ENDROOT
BRANCH   1   3
ATOM      3  C1  <0> d           2.756   5.072  -0.123  0.00  0.00    -0.057 C 
ATOM      4  H2  <0> d           3.797   5.396  -0.131  0.00  0.00     0.030 H 
ATOM      5  H3  <0> d           2.271   5.384  -1.048  0.00  0.00     0.030 H 
ATOM      6  H4  <0> d           2.242   5.523   0.726  0.00  0.00     0.030 H 
ENDBRANCH   1   3
BRANCH   1   7
ATOM      7  C3  <0> d           1.235   3.094   0.007  0.00  0.00     0.034 C 
ATOM      8  H5  <0> d           0.727   3.482  -0.876  0.00  0.00     0.052 H 
ATOM      9  H6  <0> d           0.744   3.473   0.904  0.00  0.00     0.052 H 
BRANCH   7  10
ATOM     10  C4  <0> d           1.177   1.588  -0.001  0.00  0.00     0.174 C 
ATOM     11  O1  <0> d           2.199   0.944  -0.014  0.00  0.00    -0.648 OA
ATOM     12  O3  <0> d          -0.011   0.963   0.007  0.00  0.00    -0.648 OA
ENDBRANCH   7  10
ENDBRANCH   1   7
BRANCH   1  13
ATOM     13  N1  <0> d           3.348   3.129   1.239  0.00  0.00    -0.357 N 
ATOM     14  C5  <0> d           4.683   2.950   1.273  0.00  0.00     0.213 C 
ATOM     15  O2  <0> d           5.345   3.136   0.274  0.00  0.00    -0.274 OA
ATOM     16  H7  <0> d           2.818   2.980   2.038  0.00  0.00     0.162 HD
BRANCH  14  17
ATOM     17  C6  <0> d           5.353   2.518   2.552  0.00  0.00    -0.003 C 
ATOM     18  H8  <0> d           5.389   1.430   2.594  0.00  0.00     0.040 H 
ATOM     19  H9  <0> d           6.367   2.917   2.583  0.00  0.00     0.040 H 
ATOM     20  H10 <0> d           4.787   2.896   3.404  0.00  0.00     0.040 H 
ENDBRANCH  14  17
ENDBRANCH   1  13
TORSDOF 5
