REMARK  1 active torsions:
REMARK  status: ('A' for Active; 'I' for Inactive)
REMARK    1  A    between atoms: C1_1  and  C2_2 
ROOT
ATOM      1  C2  <0> d           1.401   1.910  -0.001  0.00  0.00    -0.013 C 
ATOM      2  H1  <0> d           1.673   2.243  -1.003  0.00  0.00     0.049 H 
ATOM      3  C3  <0> d           2.282   0.717   0.424  0.00  0.00    -0.052 C 
ATOM      4  C4  <0> d           1.433  -0.496  -0.014  0.00  0.00    -0.022 C 
ATOM      5  C5  <0> d           0.002  -0.004   0.002  0.00  0.00     0.059 A 
ATOM      6  C6  <0> d          -0.017   1.380   0.010  0.00  0.00     0.062 A 
ATOM      7  N1  <0> d          -1.174   2.023   0.019  0.00  0.00    -0.262 NA
ATOM      8  C7  <0> d          -2.309   1.348   0.030  0.00  0.00     0.019 A 
ATOM      9  C8  <0> d          -2.290  -0.035   0.023  0.00  0.00     0.019 A 
ATOM     10  N2  <0> d          -1.137  -0.678   0.009  0.00  0.00    -0.262 NA
ATOM     11  H5  <0> d           2.434   0.713   1.504  0.00  0.00     0.034 H 
ATOM     12  H6  <0> d           3.238   0.731  -0.100  0.00  0.00     0.034 H 
ATOM     13  H7  <0> d           1.558  -1.319   0.689  0.00  0.00     0.042 H 
ATOM     14  H8  <0> d           1.713  -0.812  -1.019  0.00  0.00     0.042 H 
ATOM     15  H9  <0> d          -3.251   1.876   0.042  0.00  0.00     0.117 H 
ATOM     16  H10 <0> d          -3.218  -0.588   0.029  0.00  0.00     0.117 H 
ENDROOT
BRANCH   1  17
ATOM     17  C1  <0> d           1.545   3.059   0.999  0.00  0.00    -0.067 C 
ATOM     18  H2  <0> d           1.282   2.708   1.996  0.00  0.00     0.028 H 
ATOM     19  H3  <0> d           2.576   3.414   0.999  0.00  0.00     0.028 H 
ATOM     20  H4  <0> d           0.880   3.875   0.713  0.00  0.00     0.028 H 
ENDBRANCH   1  17
TORSDOF 1
