REMARK  4 active torsions:
REMARK  status: ('A' for Active; 'I' for Inactive)
REMARK    1  A    between atoms: C1_1  and  C2_2 
REMARK    2  A    between atoms: C6_7  and  C10_13 
REMARK    3  A    between atoms: N1_9  and  C7_10 
REMARK    4  A    between atoms: C7_10  and  C8_11 
ROOT
ATOM      1  C8  <0> d           3.211   3.684   1.568  0.00  0.00    -0.087 C 
ATOM      2  C9  <0> d           3.067   4.811   1.863  0.00  0.00    -0.152 C 
ATOM      3  H14 <0> d           2.931   5.867   2.140  0.00  0.00     0.166 H 
ENDROOT
BRANCH   1   4
ATOM      4  C7  <0> d           3.393   2.272   1.197  0.00  0.00     0.167 C 
ATOM      5  H12 <0> d           4.045   1.780   1.934  0.00  0.00     0.099 H 
ATOM      6  H13 <0> d           3.854   2.210   0.200  0.00  0.00     0.099 H 
BRANCH   4   7
ATOM      7  N1  <0> d           2.086   1.600   1.174  0.00  0.00     0.107 N 
ATOM      8  C2  <0> d           1.207   2.193   0.159  0.00  0.00     0.133 C 
ATOM      9  H1  <0> d           1.162   3.274   0.358  0.00  0.00     0.087 H 
ATOM     10  C3  <0> d          -0.186   1.570   0.261  0.00  0.00    -0.036 C 
ATOM     11  C4  <0> d          -0.080   0.057   0.050  0.00  0.00    -0.061 C 
ATOM     12  H6  <0> d          -0.607   1.774   1.257  0.00  0.00     0.036 H 
ATOM     13  H7  <0> d          -0.840   2.004  -0.509  0.00  0.00     0.036 H 
ATOM     14  C5  <0> d           0.878  -0.530   1.090  0.00  0.00    -0.036 C 
ATOM     15  H8  <0> d          -1.074  -0.400   0.165  0.00  0.00     0.033 H 
ATOM     16  H9  <0> d           0.302  -0.146  -0.961  0.00  0.00     0.033 H 
ATOM     17  C6  <0> d           2.241   0.155   0.963  0.00  0.00     0.133 C 
ATOM     18  H10 <0> d           0.474  -0.360   2.099  0.00  0.00     0.036 H 
ATOM     19  H11 <0> d           0.991  -1.610   0.917  0.00  0.00     0.036 H 
ATOM     20  H2  <0> d           2.651   0.015  -0.048  0.00  0.00     0.087 H 
BRANCH   8  21
ATOM     21  C1  <0> d           1.784   1.927  -1.234  0.00  0.00    -0.047 C 
ATOM     22  H3  <0> d           1.125   2.371  -1.994  0.00  0.00     0.030 H 
ATOM     23  H4  <0> d           1.855   0.842  -1.399  0.00  0.00     0.030 H 
ATOM     24  H5  <0> d           2.785   2.376  -1.308  0.00  0.00     0.030 H 
ENDBRANCH   8  21
BRANCH  17  25
ATOM     25  C10 <0> d           3.197  -0.414   2.014  0.00  0.00    -0.047 C 
ATOM     26  H15 <0> d           4.177   0.078   1.923  0.00  0.00     0.030 H 
ATOM     27  H16 <0> d           3.314  -1.496   1.856  0.00  0.00     0.030 H 
ATOM     28  H17 <0> d           2.788  -0.233   3.019  0.00  0.00     0.030 H 
ENDBRANCH  17  25
ENDBRANCH   4   7
ENDBRANCH   1   4
TORSDOF 4
