REMARK  1 active torsions:
REMARK  status: ('A' for Active; 'I' for Inactive)
REMARK    1  A    between atoms: C1_1  and  C2_2 
ROOT
ATOM      1  C2  <0> d          -3.673   1.816   0.455  0.00  0.00     0.133 C 
ATOM      2  H1  <0> d          -3.586   2.097   1.515  0.00  0.00     0.087 H 
ATOM      3  C3  <0> d          -2.497   0.940   0.022  0.00  0.00    -0.012 C 
ATOM      4  C4  <0> d          -1.225   1.749   0.017  0.00  0.00    -0.048 A 
ATOM      5  C5  <0> d          -0.013   1.076   0.008  0.00  0.00    -0.076 A 
ATOM      6  C6  <0> d           1.175   1.779   0.000  0.00  0.00    -0.082 A 
ATOM      7  C7  <0> d           1.157   3.161   0.009  0.00  0.00    -0.082 A 
ATOM      8  C8  <0> d          -0.049   3.832   0.026  0.00  0.00    -0.075 A 
ATOM      9  C9  <0> d          -1.244   3.127   0.035  0.00  0.00    -0.024 A 
ATOM     10  C10 <0> d          -2.534   3.904   0.061  0.00  0.00     0.136 C 
ATOM     11  N1  <0> d          -3.655   3.051  -0.345  0.00  0.00     0.092 N 
ATOM     12  H5  <0> d          -2.388   0.099   0.723  0.00  0.00     0.043 H 
ATOM     13  H6  <0> d          -2.682   0.552  -0.991  0.00  0.00     0.043 H 
ATOM     14  H7  <0> d           0.002  -0.004   0.002  0.00  0.00     0.084 H 
ATOM     15  H8  <0> d           2.117   1.250  -0.012  0.00  0.00     0.083 H 
ATOM     16  H9  <0> d           2.084   3.715   0.001  0.00  0.00     0.083 H 
ATOM     17  H10 <0> d          -0.063   4.912   0.034  0.00  0.00     0.084 H 
ATOM     18  H11 <0> d          -2.719   4.275   1.080  0.00  0.00     0.086 H 
ATOM     19  H12 <0> d          -2.464   4.755  -0.632  0.00  0.00     0.086 H 
ATOM     20  H13 <0> d          -3.546   2.796  -1.410  0.00  0.00     0.316 HD
ENDROOT
BRANCH   1  21
ATOM     21  C1  <0> d          -4.986   1.067   0.217  0.00  0.00    -0.047 C 
ATOM     22  H2  <0> d          -4.996   0.145   0.817  0.00  0.00     0.030 H 
ATOM     23  H3  <0> d          -5.075   0.813  -0.849  0.00  0.00     0.030 H 
ATOM     24  H4  <0> d          -5.831   1.706   0.514  0.00  0.00     0.030 H 
ENDBRANCH   1  21
TORSDOF 1
