REMARK  2 active torsions:
REMARK  status: ('A' for Active; 'I' for Inactive)
REMARK    1  A    between atoms: N2_4  and  C4_6 
REMARK    2  A    between atoms: C7_9  and  N3_12 
ROOT
ATOM      1  C4  <0> d           1.180   1.786   0.000  0.00  0.00     0.058 A 
ATOM      2  C5  <0> d          -0.013   1.076   0.008  0.00  0.00    -0.053 A 
ATOM      3  C6  <0> d          -1.217   1.750   0.017  0.00  0.00    -0.056 A 
ATOM      4  C7  <0> d          -1.236   3.139   0.030  0.00  0.00     0.025 A 
ATOM      5  C8  <0> d          -0.042   3.849   0.023  0.00  0.00    -0.056 A 
ATOM      6  C9  <0> d           1.162   3.175   0.008  0.00  0.00    -0.053 A 
ATOM      7  H4  <0> d           0.002  -0.004   0.002  0.00  0.00     0.087 H 
ATOM      8  H5  <0> d          -2.145   1.197   0.018  0.00  0.00     0.087 H 
ATOM      9  H6  <0> d          -0.056   4.929   0.029  0.00  0.00     0.087 H 
ATOM     10  H7  <0> d           2.090   3.727   0.002  0.00  0.00     0.087 H 
ENDROOT
BRANCH   1  11
ATOM     11  N2  <0> d           2.405   1.101  -0.015  0.00  0.00    -0.245 N 
ATOM     12  N1  <0> d           2.571  -0.290  -0.025  0.00  0.00    -0.180 NA
ATOM     13  C2  <0> d           3.854  -0.549  -0.040  0.00  0.00     0.023 A 
ATOM     14  C1  <0> d           4.546   0.667  -0.040  0.00  0.00    -0.048 A 
ATOM     15  H2  <0> d           4.302  -1.531  -0.051  0.00  0.00     0.117 H 
ATOM     16  C3  <0> d           3.633   1.666  -0.030  0.00  0.00     0.006 A 
ATOM     17  H1  <0> d           5.619   0.788  -0.050  0.00  0.00     0.087 H 
ATOM     18  H3  <0> d           3.847   2.725  -0.030  0.00  0.00     0.114 H 
ENDBRANCH   1  11
BRANCH   4  19
ATOM     19  N3  <0> d          -2.456   3.821   0.045  0.00  0.00    -0.399 N 
ATOM     20  H8  <0> d          -2.469   4.791   0.049  0.00  0.00     0.156 HD
ATOM     21  H9  <0> d          -3.289   3.325   0.050  0.00  0.00     0.156 HD
ENDBRANCH   4  19
TORSDOF 2
