REMARK  4 active torsions:
REMARK  status: ('A' for Active; 'I' for Inactive)
REMARK    1  A    between atoms: C2_2  and  C3_3 
REMARK    2  A    between atoms: C2_2  and  C4_5 
REMARK    3  A    between atoms: C3_3  and  O1_4 
REMARK    4  A    between atoms: C4_5  and  O2_6 
ROOT
ATOM      1  C1  <0> d          -0.013   1.076   0.008  0.00  0.00    -0.115 C 
ATOM      2  C2  <0> d          -1.156   1.715   0.017  0.00  0.00    -0.043 C 
ATOM      3  H1  <0> d           0.002  -0.004   0.002  0.00  0.00     0.067 H 
ATOM      4  H2  <0> d           0.915   1.629   0.002  0.00  0.00     0.067 H 
ENDROOT
BRANCH   2   5
ATOM      5  C3  <0> d          -1.176   3.222   0.025  0.00  0.00     0.038 C 
ATOM      6  H3  <0> d          -1.699   3.583  -0.860  0.00  0.00     0.081 H 
ATOM      7  H4  <0> d          -1.691   3.574   0.919  0.00  0.00     0.081 H 
BRANCH   5   8
ATOM      8  O1  <0> d           0.164   3.717   0.021  0.00  0.00    -0.397 OA
ATOM      9  H5  <0> d           0.228   4.682   0.026  0.00  0.00     0.209 HD
ENDBRANCH   5   8
ENDBRANCH   2   5
BRANCH   2  10
ATOM     10  C4  <0> d          -2.451   0.944   0.019  0.00  0.00     0.038 C 
ATOM     11  H6  <0> d          -3.021   1.195   0.913  0.00  0.00     0.081 H 
ATOM     12  H7  <0> d          -3.030   1.204  -0.867  0.00  0.00     0.081 H 
BRANCH  10  13
ATOM     13  O2  <0> d          -2.170  -0.457   0.010  0.00  0.00    -0.397 OA
ATOM     14  H8  <0> d          -2.960  -1.016   0.011  0.00  0.00     0.209 HD
ENDBRANCH  10  13
ENDBRANCH   2  10
TORSDOF 4
