REMARK  5 active torsions:
REMARK  status: ('A' for Active; 'I' for Inactive)
REMARK    1  A    between atoms: C1_1  and  C2_2 
REMARK    2  A    between atoms: C2_2  and  C3_3 
REMARK    3  A    between atoms: C3_3  and  O1_4 
REMARK    4  A    between atoms: O1_4  and  C4_5 
REMARK    5  A    between atoms: C4_5  and  C5_6 
ROOT
ATOM      1  C3  <0> d           1.280   2.024   0.001  0.00  0.00     0.020 C 
ATOM      2  H6  <0> d           1.834   1.705   0.884  0.00  0.00     0.074 H 
ATOM      3  H7  <0> d           1.817   1.714  -0.896  0.00  0.00     0.074 H 
ENDROOT
BRANCH   1   4
ATOM      4  C2  <0> d           1.139   3.547   0.010  0.00  0.00    -0.049 C 
ATOM      5  H4  <0> d           0.585   3.866  -0.873  0.00  0.00     0.035 H 
ATOM      6  H5  <0> d           0.602   3.857   0.907  0.00  0.00     0.035 H 
BRANCH   4   7
ATOM      7  C1  <0> d           2.528   4.188   0.000  0.00  0.00    -0.075 C 
ATOM      8  H1  <0> d           2.427   5.274   0.007  0.00  0.00     0.027 H 
ATOM      9  H2  <0> d           3.081   3.869   0.883  0.00  0.00     0.027 H 
ATOM     10  H3  <0> d           3.064   3.879  -0.896  0.00  0.00     0.027 H 
ENDBRANCH   4   7
ENDBRANCH   1   4
BRANCH   1  11
ATOM     11  O1  <0> d          -0.017   1.425   0.010  0.00  0.00    -0.381 OA
BRANCH  11  12
ATOM     12  C4  <0> d           0.002  -0.004   0.002  0.00  0.00     0.099 C 
ATOM     13  H8  <0> d           0.512  -0.356  -0.895  0.00  0.00     0.091 H 
ATOM     14  H9  <0> d           0.529  -0.365   0.885  0.00  0.00     0.091 H 
BRANCH  12  15
ATOM     15  C5  <0> d          -1.412  -0.526   0.013  0.00  0.00     0.197 C 
ATOM     16  O2  <0> d          -2.341   0.247   0.026  0.00  0.00    -0.646 OA
ATOM     17  O3  <0> d          -1.639  -1.849   0.008  0.00  0.00    -0.646 OA
ENDBRANCH  12  15
ENDBRANCH  11  12
ENDBRANCH   1  11
TORSDOF 5
