REMARK  1 active torsions:
REMARK  status: ('A' for Active; 'I' for Inactive)
REMARK    1  A    between atoms: C1_1  and  C2_2 
REMARK       I    between atoms: C2_2  and  N1_4 
ROOT
ATOM      1  C2  <0> d           1.841   3.933  -1.103  0.00  0.00     0.216 C 
ATOM      2  O1  <0> d           1.568   5.086  -1.363  0.00  0.00    -0.274 OA
ATOM      3  N1  <0> d           1.061   3.230  -0.258  0.00  0.00    -0.349 N 
ATOM      4  C3  <0> d          -0.059   3.864   0.459  0.00  0.00     0.001 C 
ATOM      5  C4  <0> d          -1.351   3.172   0.018  0.00  0.00    -0.035 C 
ATOM      6  C5  <0> d          -1.173   1.683   0.011  0.00  0.00    -0.103 C 
ATOM      7  C6  <0> d          -0.027   1.080  -0.006  0.00  0.00    -0.089 C 
ATOM      8  C7  <0> d           1.293   1.799  -0.014  0.00  0.00     0.012 C 
ATOM      9  H4  <0> d           0.076   3.744   1.534  0.00  0.00     0.064 H 
ATOM     10  H5  <0> d          -0.105   4.924   0.209  0.00  0.00     0.064 H 
ATOM     11  H6  <0> d          -2.155   3.438   0.705  0.00  0.00     0.041 H 
ATOM     12  H7  <0> d          -1.613   3.502  -0.987  0.00  0.00     0.041 H 
ATOM     13  H8  <0> d          -2.062   1.071   0.025  0.00  0.00     0.076 H 
ATOM     14  H9  <0> d          -0.020   0.000  -0.019  0.00  0.00     0.078 H 
ATOM     15  H10 <0> d           1.784   1.669   0.950  0.00  0.00     0.070 H 
ATOM     16  H11 <0> d           1.924   1.393  -0.803  0.00  0.00     0.070 H 
ENDROOT
BRANCH   1  17
ATOM     17  C1  <0> d           3.052   3.287  -1.725  0.00  0.00    -0.003 C 
ATOM     18  H1  <0> d           3.086   2.234  -1.445  0.00  0.00     0.040 H 
ATOM     19  H2  <0> d           2.992   3.372  -2.810  0.00  0.00     0.040 H 
ATOM     20  H3  <0> d           3.953   3.787  -1.370  0.00  0.00     0.040 H 
ENDBRANCH   1  17
TORSDOF 1
