REMARK  4 active torsions:
REMARK  status: ('A' for Active; 'I' for Inactive)
REMARK    1  A    between atoms: C1_1  and  C2_2 
REMARK    2  A    between atoms: C2_2  and  C3_4 
REMARK    3  A    between atoms: C2_2  and  N1_7 
REMARK    4  A    between atoms: C3_4  and  C4_5 
ROOT
ATOM      1  C2  <0> d          -2.502   1.389   0.021  0.00  0.00     0.040 C 
ATOM      2  H1  <0> d          -3.145   2.158  -0.407  0.00  0.00     0.076 H 
ENDROOT
BRANCH   1   3
ATOM      3  C1  <0> d          -2.611   0.110  -0.813  0.00  0.00    -0.055 C 
ATOM      4  H2  <0> d          -1.968  -0.658  -0.385  0.00  0.00     0.030 H 
ATOM      5  H3  <0> d          -3.644  -0.237  -0.810  0.00  0.00     0.030 H 
ATOM      6  H4  <0> d          -2.300   0.316  -1.837  0.00  0.00     0.030 H 
ENDBRANCH   1   3
BRANCH   1   7
ATOM      7  C3  <0> d          -2.938   1.100   1.458  0.00  0.00     0.036 C 
ATOM      8  H5  <0> d          -2.354   0.270   1.856  0.00  0.00     0.052 H 
ATOM      9  H6  <0> d          -2.776   1.986   2.072  0.00  0.00     0.052 H 
BRANCH   7  10
ATOM     10  C4  <0> d          -4.401   0.737   1.476  0.00  0.00     0.174 C 
ATOM     11  O1  <0> d          -5.029   0.712   0.444  0.00  0.00    -0.648 OA
ATOM     12  O2  <0> d          -5.005   0.442   2.637  0.00  0.00    -0.648 OA
ENDBRANCH   7  10
ENDBRANCH   1   7
BRANCH   1  13
ATOM     13  N1  <0> d          -1.113   1.857   0.017  0.00  0.00    -0.276 N 
ATOM     14  N2  <0> d          -0.694   3.193   0.025  0.00  0.00    -0.185 NA
ATOM     15  C7  <0> d           0.614   3.211   0.013  0.00  0.00     0.023 A 
ATOM     16  C6  <0> d           1.069   1.888   0.002  0.00  0.00    -0.048 A 
ATOM     17  H9  <0> d           1.236   4.094   0.012  0.00  0.00     0.117 H 
ATOM     18  C5  <0> d          -0.013   1.076   0.008  0.00  0.00     0.000 A 
ATOM     19  H8  <0> d           2.102   1.572  -0.009  0.00  0.00     0.087 H 
ATOM     20  H7  <0> d           0.002  -0.004   0.002  0.00  0.00     0.114 H 
ENDBRANCH   1  13
TORSDOF 4
