REMARK  5 active torsions:
REMARK  status: ('A' for Active; 'I' for Inactive)
REMARK    1  A    between atoms: C1_1  and  C2_2 
REMARK    2  A    between atoms: C2_2  and  C3_3 
REMARK    3  A    between atoms: C3_3  and  C4_5 
REMARK    4  A    between atoms: C3_3  and  N1_6 
REMARK    5  A    between atoms: C7_9  and  N3_11 
ROOT
ATOM      1  C3  <0> d           1.472   4.362   0.012  0.00  0.00     0.030 C 
ATOM      2  H1  <0> d           0.874   5.177  -0.422  0.00  0.00     0.075 H 
ENDROOT
BRANCH   1   3
ATOM      3  C2  <0> d           1.881   4.700   1.447  0.00  0.00    -0.048 C 
ATOM      4  H5  <0> d           2.519   3.897   1.845  0.00  0.00     0.035 H 
ATOM      5  H6  <0> d           0.981   4.796   2.072  0.00  0.00     0.035 H 
BRANCH   3   6
ATOM      6  C1  <0> d           2.654   6.020   1.460  0.00  0.00    -0.075 C 
ATOM      7  H2  <0> d           2.948   6.263   2.492  0.00  0.00     0.027 H 
ATOM      8  H3  <0> d           2.016   6.823   1.062  0.00  0.00     0.027 H 
ATOM      9  H4  <0> d           3.554   5.924   0.835  0.00  0.00     0.027 H 
ENDBRANCH   3   6
ENDBRANCH   1   3
BRANCH   1  10
ATOM     10  C4  <0> d           2.724   4.106  -0.829  0.00  0.00    -0.055 C 
ATOM     11  H7  <0> d           2.430   3.864  -1.860  0.00  0.00     0.030 H 
ATOM     12  H8  <0> d           3.287   3.264  -0.400  0.00  0.00     0.030 H 
ATOM     13  H9  <0> d           3.356   5.007  -0.829  0.00  0.00     0.030 H 
ENDBRANCH   1  10
BRANCH   1  14
ATOM     14  N1  <0> d           0.631   3.163   0.013  0.00  0.00    -0.275 N 
ATOM     15  N2  <0> d          -0.770   3.140   0.026  0.00  0.00    -0.155 NA
ATOM     16  C7  <0> d          -1.159   1.887   0.017  0.00  0.00     0.142 A 
ATOM     17  C6  <0> d          -0.013   1.076   0.008  0.00  0.00    -0.021 A 
ATOM     18  C5  <0> d           1.070   1.887   0.002  0.00  0.00     0.003 A 
ATOM     19  H11 <0> d           0.002  -0.004   0.002  0.00  0.00     0.091 H 
ATOM     20  H10 <0> d           2.102   1.570  -0.009  0.00  0.00     0.114 H 
BRANCH  16  21
ATOM     21  N3  <0> d          -2.485   1.438   0.019  0.00  0.00    -0.383 N 
ATOM     22  H12 <0> d          -3.311   2.163   0.027  0.00  0.00     0.157 HD
ATOM     23  H13 <0> d          -2.699   0.359   0.014  0.00  0.00     0.157 HD
ENDBRANCH  16  21
ENDBRANCH   1  14
TORSDOF 5
