REMARK  3 active torsions:
REMARK  status: ('A' for Active; 'I' for Inactive)
REMARK    1  A    between atoms: C1_1  and  C2_2 
REMARK    2  A    between atoms: C4_5  and  C8_11 
REMARK    3  A    between atoms: C6_8  and  O1_10 
ROOT
ATOM      1  C2  <0> d          -0.013   1.086   0.008  0.00  0.00    -0.055 C 
ATOM      2  H1  <0> d           0.002  -0.004   0.002  0.00  0.00     0.039 H 
ATOM      3  C3  <0> d          -0.729   1.579   1.267  0.00  0.00    -0.059 C 
ATOM      4  C4  <0> d          -0.750   3.109   1.275  0.00  0.00    -0.055 C 
ATOM      5  H2  <0> d          -1.277   3.470   0.392  0.00  0.00     0.039 H 
ATOM      6  C5  <0> d           0.686   3.639   1.264  0.00  0.00    -0.038 C 
ATOM      7  C6  <0> d           1.402   3.145   0.006  0.00  0.00     0.036 C 
ATOM      8  C7  <0> d           1.423   1.615  -0.003  0.00  0.00    -0.038 C 
ATOM      9  H6  <0> d          -1.751   1.202   1.275  0.00  0.00     0.034 H 
ATOM     10  H7  <0> d          -0.202   1.218   2.150  0.00  0.00     0.034 H 
ATOM     11  H8  <0> d           1.213   3.278   2.147  0.00  0.00     0.037 H 
ATOM     12  H9  <0> d           0.671   4.729   1.270  0.00  0.00     0.037 H 
ATOM     13  H10 <0> d           0.875   3.506  -0.877  0.00  0.00     0.082 H 
ATOM     14  H11 <0> d           1.950   1.254   0.880  0.00  0.00     0.037 H 
ATOM     15  H12 <0> d           1.933   1.264  -0.900  0.00  0.00     0.037 H 
ENDROOT
BRANCH   1  16
ATOM     16  C1  <0> d          -0.753   1.593  -1.232  0.00  0.00    -0.073 C 
ATOM     17  H3  <0> d          -0.242   1.241  -2.128  0.00  0.00     0.028 H 
ATOM     18  H4  <0> d          -1.775   1.215  -1.224  0.00  0.00     0.028 H 
ATOM     19  H5  <0> d          -0.767   2.683  -1.226  0.00  0.00     0.028 H 
ENDBRANCH   1  16
BRANCH   7  20
ATOM     20  O1  <0> d           2.743   3.640  -0.005  0.00  0.00    -0.396 OA
ATOM     21  H13 <0> d           2.806   4.605  -0.000  0.00  0.00     0.210 HD
ENDBRANCH   7  20
BRANCH   4  22
ATOM     22  C8  <0> d          -1.466   3.603   2.534  0.00  0.00    -0.073 C 
ATOM     23  H14 <0> d          -1.480   4.692   2.540  0.00  0.00     0.028 H 
ATOM     24  H15 <0> d          -2.488   3.225   2.542  0.00  0.00     0.028 H 
ATOM     25  H16 <0> d          -0.939   3.241   3.417  0.00  0.00     0.028 H 
ENDBRANCH   4  22
TORSDOF 3
