REMARK  9 active torsions:
REMARK  status: ('A' for Active; 'I' for Inactive)
REMARK    1  A    between atoms: C1_1  and  C2_2 
REMARK    2  A    between atoms: C2_2  and  C3_3 
REMARK    3  A    between atoms: C3_3  and  C4_4 
REMARK    4  A    between atoms: C3_3  and  C5_5 
REMARK    5  A    between atoms: C3_3  and  O1_10 
REMARK    6  A    between atoms: C5_5  and  C6_6 
REMARK    7  A    between atoms: C6_6  and  C7_7 
REMARK    8  A    between atoms: C7_7  and  C8_8 
REMARK    9  A    between atoms: C7_7  and  C9_9 
ROOT
ATOM      1  C5  <0> d           2.040   1.127  -1.261  0.00  0.00    -0.036 C 
ATOM      2  H9  <0> d           3.059   1.512  -1.225  0.00  0.00     0.037 H 
ATOM      3  H10 <0> d           2.063   0.039  -1.313  0.00  0.00     0.037 H 
ENDROOT
BRANCH   1   4
ATOM      4  C3  <0> d           1.286   1.562  -0.002  0.00  0.00     0.054 C 
BRANCH   4   5
ATOM      5  C2  <0> d           2.064   1.114   1.238  0.00  0.00    -0.040 C 
ATOM      6  H4  <0> d           2.164   0.029   1.231  0.00  0.00     0.036 H 
ATOM      7  H5  <0> d           3.053   1.571   1.231  0.00  0.00     0.036 H 
BRANCH   5   8
ATOM      8  C1  <0> d           1.310   1.548   2.497  0.00  0.00    -0.074 C 
ATOM      9  H1  <0> d           1.209   2.634   2.503  0.00  0.00     0.027 H 
ATOM     10  H2  <0> d           0.321   1.091   2.503  0.00  0.00     0.027 H 
ATOM     11  H3  <0> d           1.864   1.229   3.380  0.00  0.00     0.027 H 
ENDBRANCH   5   8
ENDBRANCH   4   5
BRANCH   4  12
ATOM     12  C4  <0> d           1.145   3.085   0.008  0.00  0.00    -0.048 C 
ATOM     13  H6  <0> d           0.608   3.395   0.904  0.00  0.00     0.031 H 
ATOM     14  H7  <0> d           2.135   3.542   0.001  0.00  0.00     0.031 H 
ATOM     15  H8  <0> d           0.591   3.404  -0.875  0.00  0.00     0.031 H 
ENDBRANCH   4  12
BRANCH   4  16
ATOM     16  O1  <0> d          -0.011   0.963   0.007  0.00  0.00    -0.390 OA
ATOM     17  H20 <0> d           0.002  -0.004   0.002  0.00  0.00     0.210 HD
ENDBRANCH   4  16
ENDBRANCH   1   4
BRANCH   1  18
ATOM     18  C6  <0> d           1.329   1.682  -2.497  0.00  0.00    -0.060 C 
ATOM     19  H11 <0> d           0.310   1.298  -2.533  0.00  0.00     0.033 H 
ATOM     20  H12 <0> d           1.306   2.770  -2.445  0.00  0.00     0.033 H 
BRANCH  18  21
ATOM     21  C7  <0> d           2.083   1.248  -3.756  0.00  0.00    -0.061 C 
ATOM     22  H13 <0> d           3.126   1.555  -3.679  0.00  0.00     0.038 H 
BRANCH  21  23
ATOM     23  C8  <0> d           2.009  -0.274  -3.895  0.00  0.00    -0.073 C 
ATOM     24  H14 <0> d           2.545  -0.584  -4.792  0.00  0.00     0.028 H 
ATOM     25  H15 <0> d           2.462  -0.742  -3.021  0.00  0.00     0.028 H 
ATOM     26  H16 <0> d           0.966  -0.582  -3.971  0.00  0.00     0.028 H 
ENDBRANCH  21  23
BRANCH  21  27
ATOM     27  C9  <0> d           1.446   1.903  -4.983  0.00  0.00    -0.073 C 
ATOM     28  H17 <0> d           1.499   2.987  -4.884  0.00  0.00     0.028 H 
ATOM     29  H18 <0> d           1.983   1.594  -5.880  0.00  0.00     0.028 H 
ATOM     30  H19 <0> d           0.403   1.596  -5.059  0.00  0.00     0.028 H 
ENDBRANCH  21  27
ENDBRANCH  18  21
ENDBRANCH   1  18
TORSDOF 9
