REMARK  2 active torsions:
REMARK  status: ('A' for Active; 'I' for Inactive)
REMARK    1  A    between atoms: C2_2  and  C4_7 
REMARK    2  A    between atoms: C4_7  and  O1_8 
ROOT
ATOM      1  C1  <0> d          -0.075   1.275   2.616  0.00  0.00    -0.024 A 
ATOM      2  C2  <0> d          -0.729   1.579   1.267  0.00  0.00     0.003 A 
ATOM      3  H1  <0> d          -1.258   2.527   1.166  0.00  0.00     0.048 H 
ATOM      4  C3  <0> d          -1.339   0.524   2.192  0.00  0.00     0.119 A 
ATOM      5 Cl1  <0> d          -2.878   0.944   3.032  0.00  0.00    -0.101 Cl
ATOM      6 Cl2  <0> d          -1.159  -1.205   1.715  0.00  0.00    -0.101 Cl
ATOM      7  H2  <0> d           0.865   0.724   2.607  0.00  0.00     0.038 H 
ATOM      8  H3  <0> d          -0.175   2.023   3.403  0.00  0.00     0.038 H 
ENDROOT
BRANCH   2   9
ATOM      9  C4  <0> d          -0.013   1.086   0.008  0.00  0.00     0.023 C 
ATOM     10  H4  <0> d           0.002  -0.004   0.002  0.00  0.00     0.074 H 
ATOM     11  H5  <0> d           1.010   1.463   0.000  0.00  0.00     0.074 H 
BRANCH   9  12
ATOM     12  O1  <0> d          -0.704   1.559  -1.150  0.00  0.00    -0.400 OA
ATOM     13  H6  <0> d          -0.304   1.284  -1.986  0.00  0.00     0.209 HD
ENDBRANCH   9  12
ENDBRANCH   2   9
TORSDOF 2
