REMARK  6 active torsions:
REMARK  status: ('A' for Active; 'I' for Inactive)
REMARK    1  A    between atoms: C1_1  and  C2_2 
REMARK    2  A    between atoms: C2_2  and  O1_3 
REMARK    3  A    between atoms: O1_3  and  C3_4 
REMARK    4  A    between atoms: C3_4  and  C4_5 
REMARK    5  A    between atoms: C4_5  and  C5_6 
REMARK    6  A    between atoms: C5_6  and  C6_7 
ROOT
ATOM      1  C3  <0> d           2.755   5.077   0.003  0.00  0.00     0.020 C 
ATOM      2  H6  <0> d           2.260   5.458   0.908  0.00  0.00     0.074 H 
ATOM      3  H7  <0> d           2.243   5.468  -0.888  0.00  0.00     0.074 H 
ENDROOT
BRANCH   1   4
ATOM      4  O1  <0> d           4.120   5.501  -0.008  0.00  0.00    -0.391 OA
BRANCH   4   5
ATOM      5  C2  <0> d           4.288   6.920  -0.002  0.00  0.00     0.016 C 
ATOM      6  H4  <0> d           3.825   7.340   0.903  0.00  0.00     0.073 H 
ATOM      7  H5  <0> d           3.808   7.350  -0.893  0.00  0.00     0.073 H 
BRANCH   5   8
ATOM      8  C1  <0> d           5.780   7.257  -0.014  0.00  0.00    -0.056 C 
ATOM      9  H1  <0> d           5.910   8.349  -0.010  0.00  0.00     0.030 H 
ATOM     10  H2  <0> d           6.244   6.836  -0.919  0.00  0.00     0.030 H 
ATOM     11  H3  <0> d           6.261   6.827   0.877  0.00  0.00     0.030 H 
ENDBRANCH   5   8
ENDBRANCH   4   5
ENDBRANCH   1   4
BRANCH   1  12
ATOM     12  C4  <0> d           2.696   3.548  -0.005  0.00  0.00    -0.036 C 
ATOM     13  H8  <0> d           3.192   3.166  -0.910  0.00  0.00     0.036 H 
ATOM     14  H9  <0> d           3.209   3.157   0.887  0.00  0.00     0.036 H 
BRANCH  12  15
ATOM     15  C5  <0> d           1.235   3.094   0.007  0.00  0.00     0.018 C 
ATOM     16  H10 <0> d           0.740   3.476   0.912  0.00  0.00     0.049 H 
ATOM     17  H11 <0> d           0.723   3.486  -0.884  0.00  0.00     0.049 H 
BRANCH  15  18
ATOM     18  C6  <0> d           1.177   1.588  -0.001  0.00  0.00     0.172 C 
ATOM     19  O2  <0> d           2.199   0.944  -0.014  0.00  0.00    -0.648 OA
ATOM     20  O3  <0> d          -0.011   0.963   0.007  0.00  0.00    -0.648 OA
ENDBRANCH  15  18
ENDBRANCH  12  15
ENDBRANCH   1  12
TORSDOF 6
