REMARK  2 active torsions:
REMARK  status: ('A' for Active; 'I' for Inactive)
REMARK    1  A    between atoms: C1_1  and  O1_2 
REMARK    2  A    between atoms: O1_2  and  C2_3 
ROOT
ATOM      1  C2  <0> d           0.050   3.769   0.021  0.00  0.00     0.188 A 
ATOM      2  C3  <0> d          -1.194   3.150   0.029  0.00  0.00     0.006 A 
ATOM      3  C4  <0> d          -1.228   1.758   0.017  0.00  0.00     0.130 A 
ATOM      4  C5  <0> d          -0.013   1.076   0.007  0.00  0.00     0.059 A 
ATOM      5  N1  <0> d           1.118   1.751  -0.000  0.00  0.00    -0.157 NA
ATOM      6  N2  <0> d           1.151   3.034   0.006  0.00  0.00    -0.125 NA
ATOM      7  O2  <0> d          -2.408   1.086   0.020  0.00  0.00    -0.190 OA
ATOM      8  H4  <0> d          -2.028   3.702   0.044  0.00  0.00     0.094 H 
ATOM      9  H5  <0> d           0.002   0.076   0.005  0.00  0.00     0.122 H 
ENDROOT
BRANCH   1  10
ATOM     10  O1  <0> d           0.136   5.123   0.027  0.00  0.00    -0.338 OA
BRANCH  10  11
ATOM     11  C1  <0> d           1.448   5.690   0.018  0.00  0.00     0.012 C 
ATOM     12  H1  <0> d           1.373   6.787   0.025  0.00  0.00     0.067 H 
ATOM     13  H2  <0> d           1.982   5.364  -0.886  0.00  0.00     0.067 H 
ATOM     14  H3  <0> d           1.998   5.355   0.910  0.00  0.00     0.067 H 
ENDBRANCH  10  11
ENDBRANCH   1  10
TORSDOF 2
