REMARK  3 active torsions:
REMARK  status: ('A' for Active; 'I' for Inactive)
REMARK    1  A    between atoms: C3_3  and  C8_9 
REMARK    2  A    between atoms: C6_6  and  C7_7 
REMARK    3  A    between atoms: C7_7  and  O1_8 
ROOT
ATOM      1  C1  <0> d          -0.360   2.779   1.819  0.00  0.00    -0.074 A 
ATOM      2  C2  <0> d          -1.010   3.227   2.954  0.00  0.00    -0.076 A 
ATOM      3  C3  <0> d          -2.012   2.463   3.523  0.00  0.00    -0.054 A 
ATOM      4  C4  <0> d          -2.366   1.254   2.955  0.00  0.00    -0.076 A 
ATOM      5  C5  <0> d          -1.719   0.808   1.818  0.00  0.00    -0.074 A 
ATOM      6  C6  <0> d          -0.718   1.572   1.248  0.00  0.00    -0.035 A 
ATOM      7  H1  <0> d           0.425   3.373   1.376  0.00  0.00     0.084 H 
ATOM      8  H2  <0> d          -0.732   4.171   3.398  0.00  0.00     0.084 H 
ATOM      9  H3  <0> d          -3.149   0.657   3.400  0.00  0.00     0.084 H 
ATOM     10  H4  <0> d          -1.996  -0.137   1.374  0.00  0.00     0.084 H 
ENDROOT
BRANCH   3  11
ATOM     11  C8  <0> d          -2.717   2.949   4.763  0.00  0.00    -0.029 A 
ATOM     12  C10 <0> d          -1.865   3.190   6.011  0.00  0.00    -0.057 A 
ATOM     13  C9  <0> d          -2.427   4.378   5.226  0.00  0.00    -0.057 A 
ATOM     14  H11 <0> d          -2.316   2.968   6.979  0.00  0.00     0.034 H 
ATOM     15  H12 <0> d          -0.795   2.997   5.935  0.00  0.00     0.034 H 
ATOM     16  H9  <0> d          -1.727   4.967   4.634  0.00  0.00     0.034 H 
ATOM     17  H10 <0> d          -3.247   4.937   5.678  0.00  0.00     0.034 H 
ATOM     18  H8  <0> d          -3.727   2.567   4.909  0.00  0.00     0.047 H 
ENDBRANCH   3  11
BRANCH   6  19
ATOM     19  C7  <0> d          -0.013   1.086   0.008  0.00  0.00     0.040 C 
ATOM     20  H5  <0> d           0.002  -0.004   0.002  0.00  0.00     0.081 H 
ATOM     21  H6  <0> d           1.010   1.463   0.000  0.00  0.00     0.081 H 
BRANCH  19  22
ATOM     22  O1  <0> d          -0.704   1.559  -1.150  0.00  0.00    -0.396 OA
ATOM     23  H7  <0> d          -0.304   1.284  -1.986  0.00  0.00     0.209 HD
ENDBRANCH  19  22
ENDBRANCH   6  19
TORSDOF 3
