REMARK  3 active torsions:
REMARK  status: ('A' for Active; 'I' for Inactive)
REMARK    1  A    between atoms: C1_1  and  C2_2 
REMARK    2  A    between atoms: C1_1  and  N1_4 
REMARK    3  A    between atoms: N1_4  and  C3_5 
ROOT
ATOM      1  N1  <0> d           1.637  -1.773  -0.024  0.00  0.00    -0.210 N 
ATOM      2  H3  <0> d           0.972  -2.479  -0.021  0.00  0.00     0.178 HD
ENDROOT
BRANCH   1   3
ATOM      3  C1  <0> d           3.063  -2.110  -0.040  0.00  0.00     0.089 C 
ATOM      4  H1  <0> d           3.526  -1.688  -0.932  0.00  0.00     0.081 H 
ATOM      5  H2  <0> d           3.543  -1.699   0.848  0.00  0.00     0.081 H 
BRANCH   3   6
ATOM      6  C2  <0> d           3.225  -3.608  -0.050  0.00  0.00     0.191 C 
ATOM      7  O1  <0> d           2.250  -4.322  -0.045  0.00  0.00    -0.647 OA
ATOM      8  O2  <0> d           4.453  -4.150  -0.065  0.00  0.00    -0.647 OA
ENDBRANCH   3   6
ENDBRANCH   1   3
BRANCH   1   9
ATOM      9  C3  <0> d           1.240  -0.448  -0.012  0.00  0.00     0.762 A 
ATOM     10  N4  <0> d           0.002  -0.004   0.002  0.00  0.00     0.067 NA
ATOM     11  N3  <0> d          -0.015   1.280   0.009  0.00  0.00    -0.006 NA
ATOM     12  N2  <0> d           1.187   1.744   0.000  0.00  0.00    -0.006 NA
ATOM     13  N5  <0> d           2.023   0.635  -0.014  0.00  0.00     0.067 NA
ENDBRANCH   1   9
TORSDOF 3
