REMARK  5 active torsions:
REMARK  status: ('A' for Active; 'I' for Inactive)
REMARK    1  A    between atoms: C1_1  and  C2_2 
REMARK    2  A    between atoms: C2_2  and  C3_3 
REMARK    3  A    between atoms: C3_3  and  C4_5 
REMARK    4  A    between atoms: C3_3  and  O1_12 
REMARK    5  A    between atoms: C7_8  and  N1_11 
ROOT
ATOM      1  C4  <0> d          -0.074   0.981   2.485  0.00  0.00    -0.030 A 
ATOM      2  C5  <0> d           1.041   1.585   3.036  0.00  0.00    -0.072 A 
ATOM      3  C6  <0> d           1.641   1.042   4.155  0.00  0.00    -0.057 A 
ATOM      4  C7  <0> d           1.129  -0.119   4.721  0.00  0.00     0.025 A 
ATOM      5  C8  <0> d           0.012  -0.727   4.162  0.00  0.00    -0.057 A 
ATOM      6  C9  <0> d          -0.586  -0.175   3.046  0.00  0.00    -0.072 A 
ATOM      7  H7  <0> d           1.442   2.485   2.592  0.00  0.00     0.084 H 
ATOM      8  H8  <0> d           2.509   1.517   4.587  0.00  0.00     0.086 H 
ATOM      9  H9  <0> d          -0.388  -1.629   4.599  0.00  0.00     0.086 H 
ATOM     10  H10 <0> d          -1.454  -0.647   2.610  0.00  0.00     0.084 H 
ENDROOT
BRANCH   1  11
ATOM     11  C3  <0> d          -0.729   1.579   1.267  0.00  0.00     0.060 C 
ATOM     12  H1  <0> d          -1.776   1.277   1.232  0.00  0.00     0.090 H 
BRANCH  11  13
ATOM     13  C2  <0> d          -0.013   1.086   0.008  0.00  0.00    -0.041 C 
ATOM     14  H5  <0> d           0.002  -0.004   0.002  0.00  0.00     0.036 H 
ATOM     15  H6  <0> d           1.010   1.463   0.000  0.00  0.00     0.036 H 
BRANCH  13  16
ATOM     16  C1  <0> d          -0.753   1.593  -1.232  0.00  0.00    -0.074 C 
ATOM     17  H2  <0> d          -0.242   1.241  -2.128  0.00  0.00     0.027 H 
ATOM     18  H3  <0> d          -1.775   1.215  -1.224  0.00  0.00     0.027 H 
ATOM     19  H4  <0> d          -0.767   2.683  -1.226  0.00  0.00     0.027 H 
ENDBRANCH  13  16
ENDBRANCH  11  13
BRANCH  11  20
ATOM     20  O1  <0> d          -0.647   3.004   1.334  0.00  0.00    -0.391 OA
ATOM     21  H13 <0> d           0.258   3.345   1.368  0.00  0.00     0.210 HD
ENDBRANCH  11  20
ENDBRANCH   1  11
BRANCH   4  22
ATOM     22  N1  <0> d           1.736  -0.674   5.850  0.00  0.00    -0.399 N 
ATOM     23  H11 <0> d           1.378  -1.485   6.244  0.00  0.00     0.156 HD
ATOM     24  H12 <0> d           2.516  -0.249   6.239  0.00  0.00     0.156 HD
ENDBRANCH   4  22
TORSDOF 5
