REMARK  2 active torsions:
REMARK  status: ('A' for Active; 'I' for Inactive)
REMARK    1  A    between atoms: C4_4  and  C7_7 
REMARK    2  A    between atoms: C7_7  and  C8_9 
ROOT
ATOM      1  C8  <0> d          -0.013   1.086   0.008  0.00  0.00     0.034 C 
ATOM      2  C9  <0> d          -0.725   1.573  -1.185  0.00  0.00     0.060 C 
ATOM      3  N1  <0> d          -1.274   1.950  -2.105  0.00  0.00    -0.197 NA
ATOM      4  H7  <0> d           0.002  -0.004   0.002  0.00  0.00     0.057 H 
ATOM      5  H8  <0> d           1.010   1.463   0.000  0.00  0.00     0.057 H 
ENDROOT
BRANCH   1   6
ATOM      6  C7  <0> d          -0.729   1.579   1.267  0.00  0.00     0.067 C 
ATOM      7  H1  <0> d          -1.776   1.277   1.232  0.00  0.00     0.071 H 
ATOM      8  C10 <0> d          -0.644   3.047   1.336  0.00  0.00     0.069 C 
ATOM      9  N2  <0> d          -0.579   4.180   1.389  0.00  0.00    -0.197 NA
BRANCH   6  10
ATOM     10  C4  <0> d          -0.074   0.981   2.485  0.00  0.00    -0.040 A 
ATOM     11  C3  <0> d          -0.809   0.185   3.344  0.00  0.00    -0.075 A 
ATOM     12  C2  <0> d          -0.208  -0.364   4.462  0.00  0.00    -0.082 A 
ATOM     13  H4  <0> d          -1.852  -0.006   3.143  0.00  0.00     0.084 H 
ATOM     14  C1  <0> d           1.128  -0.118   4.719  0.00  0.00    -0.083 A 
ATOM     15  H3  <0> d          -0.782  -0.984   5.133  0.00  0.00     0.083 H 
ATOM     16  C6  <0> d           1.863   0.676   3.859  0.00  0.00    -0.082 A 
ATOM     17  H2  <0> d           1.597  -0.547   5.592  0.00  0.00     0.083 H 
ATOM     18  C5  <0> d           1.263   1.222   2.739  0.00  0.00    -0.075 A 
ATOM     19  H6  <0> d           2.907   0.868   4.060  0.00  0.00     0.083 H 
ATOM     20  H5  <0> d           1.839   1.839   2.065  0.00  0.00     0.084 H 
ENDBRANCH   6  10
ENDBRANCH   1   6
TORSDOF 2
