REMARK  0 active torsions:
REMARK  status: ('A' for Active; 'I' for Inactive)
ROOT
ATOM      1  C1  <0> d          -0.018   1.512   0.010  0.00  0.00     0.015 A 
ATOM      2  C2  <0> d           1.452   1.881  -0.002  0.00  0.00     0.009 A 
ATOM      3  N1  <0> d           2.098   0.762  -0.014  0.00  0.00    -0.166 NA
ATOM      4  N2  <0> d           1.251  -0.341  -0.012  0.00  0.00    -0.147 NA
ATOM      5  C3  <0> d           0.002  -0.004   0.002  0.00  0.00     0.107 A 
ATOM      6 Br1  <0> d          -1.491  -1.164   0.011  0.00  0.00    -0.032 Br
ATOM      7  H1  <0> d          -0.501   1.885   0.914  0.00  0.00     0.051 H 
ATOM      8  H2  <0> d          -0.518   1.894  -0.880  0.00  0.00     0.051 H 
ATOM      9  H3  <0> d           1.873   2.875  -0.001  0.00  0.00     0.111 H 
ENDROOT
TORSDOF 0
