REMARK  1 active torsions:
REMARK  status: ('A' for Active; 'I' for Inactive)
REMARK    1  A    between atoms: C2_2  and  C3_3 
ROOT
ATOM      1  C3  <0> d          -1.263  -0.758   0.010  0.00  0.00    -0.036 A 
ATOM      2  C4  <0> d          -2.549  -0.039   0.020  0.00  0.00    -0.072 A 
ATOM      3  C5  <0> d          -3.679  -0.712   0.027  0.00  0.00    -0.071 A 
ATOM      4  C6  <0> d          -3.659  -2.185   0.025  0.00  0.00    -0.026 A 
ATOM      5  C7  <0> d          -2.511  -2.828   0.015  0.00  0.00    -0.025 A 
ATOM      6  C8  <0> d          -1.246  -2.074   0.003  0.00  0.00    -0.062 A 
ATOM      7  C9  <0> d          -3.230  -4.113   0.018  0.00  0.00    -0.071 A 
ATOM      8  C10 <0> d          -4.379  -3.471   0.028  0.00  0.00    -0.071 A 
ATOM      9  H4  <0> d          -2.564   1.041   0.022  0.00  0.00     0.084 H 
ATOM     10  H5  <0> d          -4.622  -0.185   0.035  0.00  0.00     0.084 H 
ATOM     11  H6  <0> d          -0.303  -2.601  -0.009  0.00  0.00     0.086 H 
ATOM     12  H7  <0> d          -2.937  -5.152   0.015  0.00  0.00     0.084 H 
ATOM     13  H8  <0> d          -5.418  -3.764   0.036  0.00  0.00     0.084 H 
ENDROOT
BRANCH   1  14
ATOM     14  C2  <0> d           0.002  -0.004   0.002  0.00  0.00    -0.082 C 
ATOM     15  C1  <0> d          -0.016   1.306   0.009  0.00  0.00    -0.120 C 
ATOM     16  H1  <0> d           0.912   1.859   0.003  0.00  0.00     0.066 H 
ATOM     17  H2  <0> d          -0.958   1.833   0.017  0.00  0.00     0.066 H 
ATOM     18  H3  <0> d           0.945  -0.531  -0.010  0.00  0.00     0.083 H 
ENDBRANCH   1  14
TORSDOF 1
