REMARK  2 active torsions:
REMARK  status: ('A' for Active; 'I' for Inactive)
REMARK    1  A    between atoms: C1_1  and  O1_2 
REMARK    2  A    between atoms: O1_2  and  C2_3 
ROOT
ATOM      1  C2  <0> d          -1.201  -0.638   0.010  0.00  0.00     0.070 A 
ATOM      2  C3  <0> d          -2.376   0.108   0.020  0.00  0.00    -0.048 A 
ATOM      3  C4  <0> d          -3.593  -0.512   0.028  0.00  0.00    -0.050 A 
ATOM      4  C5  <0> d          -3.665  -1.907   0.027  0.00  0.00     0.085 A 
ATOM      5  C6  <0> d          -2.481  -2.663   0.017  0.00  0.00     0.064 A 
ATOM      6  C7  <0> d          -1.250  -2.020   0.003  0.00  0.00    -0.023 A 
ATOM      7  N1  <0> d          -2.872  -3.987   0.019  0.00  0.00    -0.349 N 
ATOM      8  H1  <0> d          -2.286  -4.760   0.013  0.00  0.00     0.167 HD
ATOM      9  C8  <0> d          -4.234  -4.006   0.029  0.00  0.00     0.065 A 
ATOM     10  N2  <0> d          -4.697  -2.791   0.034  0.00  0.00    -0.242 NA
ATOM     11  H5  <0> d          -2.326   1.187   0.021  0.00  0.00     0.087 H 
ATOM     12  H6  <0> d          -4.499   0.076   0.036  0.00  0.00     0.087 H 
ATOM     13  H7  <0> d          -0.337  -2.596  -0.009  0.00  0.00     0.091 H 
ATOM     14  H8  <0> d          -4.840  -4.900   0.032  0.00  0.00     0.143 H 
ENDROOT
BRANCH   1  15
ATOM     15  O1  <0> d           0.002  -0.004   0.002  0.00  0.00    -0.356 OA
BRANCH  15  16
ATOM     16  C1  <0> d          -0.017   1.425   0.010  0.00  0.00     0.010 C 
ATOM     17  H2  <0> d           1.005   1.802   0.002  0.00  0.00     0.066 H 
ATOM     18  H3  <0> d          -0.544   1.786  -0.873  0.00  0.00     0.066 H 
ATOM     19  H4  <0> d          -0.527   1.776   0.907  0.00  0.00     0.066 H 
ENDBRANCH  15  16
ENDBRANCH   1  15
TORSDOF 2
