REMARK  3 active torsions:
REMARK  status: ('A' for Active; 'I' for Inactive)
REMARK    1  A    between atoms: C4_4  and  C7_7 
REMARK    2  A    between atoms: C7_7  and  C8_9 
REMARK    3  A    between atoms: C7_7  and  O1_12 
ROOT
ATOM      1  C8  <0> d          -0.013   1.086   0.008  0.00  0.00     0.042 C 
ATOM      2  C9  <0> d          -0.725   1.573  -1.185  0.00  0.00     0.062 C 
ATOM      3  N1  <0> d          -1.274   1.950  -2.105  0.00  0.00    -0.197 NA
ATOM      4  H7  <0> d           0.002  -0.004   0.002  0.00  0.00     0.059 H 
ATOM      5  H8  <0> d           1.010   1.463   0.000  0.00  0.00     0.059 H 
ENDROOT
BRANCH   1   6
ATOM      6  C7  <0> d          -0.729   1.579   1.267  0.00  0.00     0.072 C 
ATOM      7  H1  <0> d          -1.776   1.277   1.232  0.00  0.00     0.092 H 
BRANCH   6   8
ATOM      8  C4  <0> d          -0.074   0.981   2.485  0.00  0.00    -0.029 A 
ATOM      9  C3  <0> d          -0.584  -0.175   3.047  0.00  0.00    -0.074 A 
ATOM     10  C2  <0> d           0.017  -0.724   4.164  0.00  0.00    -0.082 A 
ATOM     11  H4  <0> d          -1.453  -0.648   2.613  0.00  0.00     0.084 H 
ATOM     12  C1  <0> d           1.128  -0.118   4.719  0.00  0.00    -0.083 A 
ATOM     13  H3  <0> d          -0.383  -1.626   4.603  0.00  0.00     0.083 H 
ATOM     14  C6  <0> d           1.639   1.036   4.157  0.00  0.00    -0.082 A 
ATOM     15  H2  <0> d           1.597  -0.547   5.592  0.00  0.00     0.083 H 
ATOM     16  C5  <0> d           1.041   1.583   3.037  0.00  0.00    -0.074 A 
ATOM     17  H6  <0> d           2.508   1.510   4.590  0.00  0.00     0.083 H 
ATOM     18  H5  <0> d           1.443   2.483   2.595  0.00  0.00     0.084 H 
ENDBRANCH   6   8
BRANCH   6  19
ATOM     19  O1  <0> d          -0.647   3.004   1.334  0.00  0.00    -0.390 OA
ATOM     20  H9  <0> d           0.258   3.345   1.368  0.00  0.00     0.210 HD
ENDBRANCH   6  19
ENDBRANCH   1   6
TORSDOF 3
