REMARK  6 active torsions:
REMARK  status: ('A' for Active; 'I' for Inactive)
REMARK    1  A    between atoms: C1_1  and  C2_2 
REMARK    2  A    between atoms: C2_2  and  O1_3 
REMARK    3  A    between atoms: O1_3  and  C3_4 
REMARK    4  A    between atoms: C3_4  and  C4_6 
REMARK    5  A    between atoms: C4_6  and  C5_7 
REMARK    6  A    between atoms: C5_7  and  C7_9 
ROOT
ATOM      1  C4  <0> d          -1.329   1.940   0.019  0.00  0.00     0.035 C 
ATOM      2  H6  <0> d          -1.392   2.566   0.921  0.00  0.00     0.054 H 
ATOM      3  H7  <0> d          -1.401   2.576  -0.875  0.00  0.00     0.054 H 
ENDROOT
BRANCH   1   4
ATOM      4  C3  <0> d          -0.014   1.204   0.009  0.00  0.00     0.262 C 
ATOM      5  O2  <0> d           0.002  -0.004   0.002  0.00  0.00    -0.265 OA
BRANCH   4   6
ATOM      6  O1  <0> d           1.139   1.891   0.001  0.00  0.00    -0.322 OA
BRANCH   6   7
ATOM      7  C2  <0> d           2.367   1.117  -0.015  0.00  0.00     0.025 C 
ATOM      8  H4  <0> d           2.392   0.487  -0.916  0.00  0.00     0.074 H 
ATOM      9  H5  <0> d           2.409   0.478   0.880  0.00  0.00     0.074 H 
BRANCH   7  10
ATOM     10  C1  <0> d           3.568   2.065  -0.021  0.00  0.00    -0.056 C 
ATOM     11  H1  <0> d           4.498   1.479  -0.033  0.00  0.00     0.030 H 
ATOM     12  H2  <0> d           3.542   2.695   0.881  0.00  0.00     0.030 H 
ATOM     13  H3  <0> d           3.525   2.704  -0.915  0.00  0.00     0.030 H 
ENDBRANCH   7  10
ENDBRANCH   6   7
ENDBRANCH   4   6
ENDBRANCH   1   4
BRANCH   1  14
ATOM     14  C5  <0> d          -2.462   0.945   0.019  0.00  0.00    -0.084 C 
ATOM     15  C6  <0> d          -3.014   0.581   1.150  0.00  0.00    -0.119 C 
ATOM     16  H8  <0> d          -3.840  -0.145   1.150  0.00  0.00     0.067 H 
ATOM     17  H9  <0> d          -2.651   1.001   2.099  0.00  0.00     0.067 H 
BRANCH  14  18
ATOM     18  C7  <0> d          -2.959   0.369  -1.282  0.00  0.00    -0.055 C 
ATOM     19  H10 <0> d          -3.782  -0.333  -1.082  0.00  0.00     0.033 H 
ATOM     20  H11 <0> d          -2.138  -0.163  -1.785  0.00  0.00     0.033 H 
ATOM     21  H12 <0> d          -3.320   1.183  -1.929  0.00  0.00     0.033 H 
ENDBRANCH  14  18
ENDBRANCH   1  14
TORSDOF 6
