REMARK  2 active torsions:
REMARK  status: ('A' for Active; 'I' for Inactive)
REMARK    1  A    between atoms: C4_4  and  O2_10 
REMARK    2  A    between atoms: C5_6  and  O1_9 
ROOT
ATOM      1  C1  <0> d          -0.013   1.086   0.008  0.00  0.00    -0.063 C 
ATOM      2  C2  <0> d          -0.753   1.593  -1.232  0.00  0.00    -0.063 C 
ATOM      3  C3  <0> d          -2.188   1.063  -1.221  0.00  0.00    -0.039 C 
ATOM      4  C4  <0> d          -2.904   1.556   0.038  0.00  0.00     0.060 C 
ATOM      5  H1  <0> d          -2.919   2.646   0.044  0.00  0.00     0.086 H 
ATOM      6  C5  <0> d          -2.164   1.050   1.278  0.00  0.00     0.060 C 
ATOM      7  H2  <0> d          -2.674   1.401   2.175  0.00  0.00     0.086 H 
ATOM      8  C6  <0> d          -0.729   1.579   1.267  0.00  0.00    -0.039 C 
ATOM      9  H3  <0> d           0.002  -0.004   0.002  0.00  0.00     0.033 H 
ATOM     10  H4  <0> d           1.010   1.463   0.000  0.00  0.00     0.033 H 
ATOM     11  H5  <0> d          -0.767   2.683  -1.226  0.00  0.00     0.033 H 
ATOM     12  H6  <0> d          -0.242   1.241  -2.128  0.00  0.00     0.033 H 
ATOM     13  H7  <0> d          -2.715   1.424  -2.104  0.00  0.00     0.036 H 
ATOM     14  H8  <0> d          -2.173  -0.027  -1.227  0.00  0.00     0.036 H 
ATOM     15  H9  <0> d          -0.202   1.218   2.150  0.00  0.00     0.036 H 
ATOM     16  H10 <0> d          -0.744   2.669   1.273  0.00  0.00     0.036 H 
ENDROOT
BRANCH   4  17
ATOM     17  O2  <0> d          -4.245   1.062   0.048  0.00  0.00    -0.393 OA
ATOM     18  H12 <0> d          -4.774   1.344  -0.710  0.00  0.00     0.210 HD
ENDBRANCH   4  17
BRANCH   6  19
ATOM     19  O1  <0> d          -2.145  -0.379   1.270  0.00  0.00    -0.393 OA
ATOM     20  H11 <0> d          -1.691  -0.771   2.029  0.00  0.00     0.210 HD
ENDBRANCH   6  19
TORSDOF 2
