REMARK  2 active torsions:
REMARK  status: ('A' for Active; 'I' for Inactive)
REMARK    1  A    between atoms: C1_1  and  C2_2 
REMARK    2  A    between atoms: C2_2  and  C3_4 
ROOT
ATOM      1  C3  <0> d           0.002  -0.004   0.002  0.00  0.00     0.089 C 
ATOM      2  H1  <0> d          -0.479  -0.371   0.798  0.00  0.00     0.067 H 
ATOM      3  C4  <0> d           1.500  -0.379   0.046  0.00  0.00    -0.026 C 
ATOM      4  C5  <0> d           2.157   0.953   0.474  0.00  0.00     0.030 C 
ATOM      5  O2  <0> d           1.236   1.981   0.001  0.00  0.00    -0.321 OA
ATOM      6  C6  <0> d          -0.018   1.509   0.010  0.00  0.00     0.270 C 
ATOM      7  O3  <0> d          -1.016   2.190   0.019  0.00  0.00    -0.264 OA
ATOM      8  H5  <0> d           1.684  -1.158   0.786  0.00  0.00     0.038 H 
ATOM      9  H6  <0> d           1.851  -0.690  -0.938  0.00  0.00     0.038 H 
ATOM     10  H7  <0> d           2.253   0.999   1.559  0.00  0.00     0.075 H 
ATOM     11  H8  <0> d           3.131   1.067  -0.000  0.00  0.00     0.075 H 
ENDROOT
BRANCH   1  12
ATOM     12  C2  <0> d          -0.636  -0.530  -1.258  0.00  0.00     0.136 C 
ATOM     13  O1  <0> d           0.048  -0.787  -2.219  0.00  0.00    -0.297 OA
BRANCH  12  14
ATOM     14  C1  <0> d          -2.128  -0.737  -1.317  0.00  0.00    -0.020 C 
ATOM     15  H2  <0> d          -2.535  -0.477  -0.442  0.00  0.00     0.037 H 
ATOM     16  H3  <0> d          -2.548  -0.120  -2.111  0.00  0.00     0.037 H 
ATOM     17  H4  <0> d          -2.341  -1.786  -1.520  0.00  0.00     0.037 H 
ENDBRANCH  12  14
ENDBRANCH   1  12
TORSDOF 2
