REMARK  2 active torsions:
REMARK  status: ('A' for Active; 'I' for Inactive)
REMARK    1  A    between atoms: C1_1  and  C2_2 
REMARK    2  A    between atoms: C6_6  and  C7_8 
ROOT
ATOM      1  C2  <0> d           0.002  -0.004   0.002  0.00  0.00     0.032 A 
ATOM      2  C3  <0> d           0.006  -0.681  -1.210  0.00  0.00    -0.057 A 
ATOM      3  C4  <0> d           0.025  -2.065  -1.215  0.00  0.00    -0.041 A 
ATOM      4  C5  <0> d           0.040  -2.732   0.004  0.00  0.00     0.152 A 
ATOM      5  C6  <0> d           0.035  -1.985   1.185  0.00  0.00     0.172 A 
ATOM      6  N1  <0> d           0.022  -0.657   1.142  0.00  0.00    -0.244 NA
ATOM      7  F1  <0> d           0.059  -4.082   0.047  0.00  0.00    -0.203 F 
ATOM      8  H4  <0> d          -0.007  -0.133  -2.140  0.00  0.00     0.086 H 
ATOM      9  H5  <0> d           0.028  -2.614  -2.145  0.00  0.00     0.088 H 
ENDROOT
BRANCH   1  10
ATOM     10  C1  <0> d          -0.018   1.503   0.010  0.00  0.00    -0.035 C 
ATOM     11  H1  <0> d           1.004   1.880   0.003  0.00  0.00     0.035 H 
ATOM     12  H2  <0> d          -0.545   1.864  -0.873  0.00  0.00     0.035 H 
ATOM     13  H3  <0> d          -0.529   1.854   0.907  0.00  0.00     0.035 H 
ENDBRANCH   1  10
BRANCH   5  14
ATOM     14  C7  <0> d           0.051  -2.677   2.490  0.00  0.00     0.232 C 
ATOM     15  O1  <0> d           0.068  -3.898   2.534  0.00  0.00    -0.643 OA
ATOM     16  O2  <0> d           0.047  -2.027   3.526  0.00  0.00    -0.643 OA
ENDBRANCH   5  14
TORSDOF 2
