REMARK  4 active torsions:
REMARK  status: ('A' for Active; 'I' for Inactive)
REMARK    1  A    between atoms: C2_2  and  N4_9 
REMARK    2  A    between atoms: N4_9  and  C4_10 
REMARK    3  A    between atoms: C4_10  and  C5_11 
REMARK    4  A    between atoms: C5_11  and  O2_12 
ROOT
ATOM      1  N4  <0> d          -0.112   5.003   0.029  0.00  0.00    -0.371 N 
ATOM      2  H3  <0> d           0.725   5.494   0.024  0.00  0.00     0.161 HD
ENDROOT
BRANCH   1   3
ATOM      3  C2  <0> d          -0.102   3.628   0.022  0.00  0.00     0.148 A 
ATOM      4  C1  <0> d           1.121   2.915   0.007  0.00  0.00     0.066 A 
ATOM      5  N3  <0> d           1.102   1.610   0.000  0.00  0.00    -0.179 NA
ATOM      6  H2  <0> d           2.061   3.446   0.001  0.00  0.00     0.123 H 
ATOM      7  N2  <0> d          -0.011   0.966   0.007  0.00  0.00    -0.227 N 
ATOM      8  C3  <0> d          -1.193   1.608   0.017  0.00  0.00     0.364 A 
ATOM      9  H1  <0> d           0.003  -0.034   0.006  0.00  0.00     0.194 HD
ATOM     10  N1  <0> d          -1.239   2.943   0.029  0.00  0.00    -0.174 NA
ATOM     11  O1  <0> d          -2.231   0.966   0.018  0.00  0.00    -0.243 OA
ENDBRANCH   1   3
BRANCH   1  12
ATOM     12  C4  <0> d          -1.385   5.727   0.045  0.00  0.00     0.013 C 
ATOM     13  H4  <0> d          -1.963   5.464  -0.842  0.00  0.00     0.067 H 
ATOM     14  H5  <0> d          -1.947   5.455   0.938  0.00  0.00     0.067 H 
BRANCH  12  15
ATOM     15  C5  <0> d          -1.117   7.233   0.050  0.00  0.00     0.031 C 
ATOM     16  H6  <0> d          -2.060   7.770   0.151  0.00  0.00     0.076 H 
ATOM     17  H7  <0> d          -0.465   7.483   0.887  0.00  0.00     0.076 H 
BRANCH  15  18
ATOM     18  O2  <0> d          -0.483   7.608  -1.175  0.00  0.00    -0.399 OA
ATOM     19  H8  <0> d          -0.283   8.552  -1.241  0.00  0.00     0.209 HD
ENDBRANCH  15  18
ENDBRANCH  12  15
ENDBRANCH   1  12
TORSDOF 4
