REMARK  3 active torsions:
REMARK  status: ('A' for Active; 'I' for Inactive)
REMARK    1  A    between atoms: C1_1  and  C2_2 
REMARK    2  A    between atoms: C4_4  and  C8_11 
REMARK    3  A    between atoms: C5_6  and  C6_8 
ROOT
ATOM      1  C6  <0> d          -1.342   2.029   0.019  0.00  0.00     0.071 C 
ATOM      2  C7  <0> d          -1.767   2.255   1.410  0.00  0.00     0.066 C 
ATOM      3  N3  <0> d          -2.096   2.429   2.484  0.00  0.00    -0.197 NA
ATOM      4  H5  <0> d          -1.241   2.997  -0.494  0.00  0.00     0.067 H 
ATOM      5  H6  <0> d          -2.094   1.416  -0.499  0.00  0.00     0.067 H 
ENDROOT
BRANCH   1   6
ATOM      6  C5  <0> d          -0.016   1.314   0.009  0.00  0.00     0.139 A 
ATOM      7  N1  <0> d           0.002  -0.004   0.002  0.00  0.00    -0.237 NA
ATOM      8  C4  <0> d           1.148  -0.666  -0.013  0.00  0.00     0.034 A 
ATOM      9  C3  <0> d           2.337   0.044  -0.020  0.00  0.00    -0.036 A 
ATOM     10  C2  <0> d           2.278   1.429  -0.012  0.00  0.00     0.034 A 
ATOM     11  H4  <0> d           3.288  -0.468  -0.032  0.00  0.00     0.089 H 
ATOM     12  N2  <0> d           1.095   2.022   0.003  0.00  0.00    -0.237 NA
BRANCH   8  13
ATOM     13  C8  <0> d           1.158  -2.173  -0.020  0.00  0.00    -0.035 C 
ATOM     14  H7  <0> d           0.124  -2.547  -0.012  0.00  0.00     0.035 H 
ATOM     15  H8  <0> d           1.688  -2.541   0.871  0.00  0.00     0.035 H 
ATOM     16  H9  <0> d           1.671  -2.532  -0.925  0.00  0.00     0.035 H 
ENDBRANCH   8  13
BRANCH  10  17
ATOM     17  C1  <0> d           3.543   2.248  -0.019  0.00  0.00    -0.035 C 
ATOM     18  H1  <0> d           4.414   1.576  -0.031  0.00  0.00     0.035 H 
ATOM     19  H2  <0> d           3.578   2.877   0.882  0.00  0.00     0.035 H 
ATOM     20  H3  <0> d           3.561   2.887  -0.914  0.00  0.00     0.035 H 
ENDBRANCH  10  17
ENDBRANCH   1   6
TORSDOF 3
