REMARK  5 active torsions:
REMARK  status: ('A' for Active; 'I' for Inactive)
REMARK    1  A    between atoms: C1_1  and  C2_2 
REMARK    2  A    between atoms: C2_2  and  O1_3 
REMARK    3  A    between atoms: O1_3  and  C3_4 
REMARK    4  A    between atoms: C3_4  and  C4_6 
REMARK    5  A    between atoms: C4_6  and  C5_7 
ROOT
ATOM      1  C4  <0> d           1.705   3.173   0.870  0.00  0.00     0.040 C 
ATOM      2  H7  <0> d           1.485   2.928   1.919  0.00  0.00     0.051 H 
ATOM      3  H8  <0> d           1.042   3.985   0.537  0.00  0.00     0.051 H 
ENDROOT
BRANCH   1   4
ATOM      4  C3  <0> d           3.141   3.614   0.747  0.00  0.00     0.261 C 
ATOM      5  O2  <0> d           3.901   3.002   0.035  0.00  0.00    -0.265 OA
BRANCH   4   6
ATOM      6  O1  <0> d           3.574   4.686   1.428  0.00  0.00    -0.322 OA
BRANCH   6   7
ATOM      7  C2  <0> d           4.969   5.053   1.261  0.00  0.00     0.025 C 
ATOM      8  H5  <0> d           5.166   5.276   0.202  0.00  0.00     0.074 H 
ATOM      9  H6  <0> d           5.609   4.219   1.585  0.00  0.00     0.074 H 
BRANCH   7  10
ATOM     10  C1  <0> d           5.276   6.290   2.108  0.00  0.00    -0.056 C 
ATOM     11  H2  <0> d           6.333   6.567   1.982  0.00  0.00     0.030 H 
ATOM     12  H3  <0> d           5.080   6.066   3.167  0.00  0.00     0.030 H 
ATOM     13  H4  <0> d           4.636   7.124   1.784  0.00  0.00     0.030 H 
ENDBRANCH   7  10
ENDBRANCH   6   7
ENDBRANCH   4   6
ENDBRANCH   1   4
BRANCH   1  14
ATOM     14  C5  <0> d           1.474   1.937  -0.002  0.00  0.00     0.047 C 
ATOM     15  H1  <0> d           1.874   2.147  -1.004  0.00  0.00     0.084 H 
ATOM     16  O3  <0> d           2.163   0.795   0.553  0.00  0.00    -0.385 OA
ATOM     17  C8  <0> d           1.506  -0.359  -0.014  0.00  0.00     0.020 C 
ATOM     18  C7  <0> d           0.002  -0.004   0.002  0.00  0.00    -0.043 C 
ATOM     19  H13 <0> d           1.675  -1.263   0.589  0.00  0.00     0.074 H 
ATOM     20  H14 <0> d           1.827  -0.544  -1.050  0.00  0.00     0.074 H 
ATOM     21  C6  <0> d          -0.019   1.541   0.011  0.00  0.00    -0.038 C 
ATOM     22  H11 <0> d          -0.503  -0.383   0.903  0.00  0.00     0.036 H 
ATOM     23  H12 <0> d          -0.520  -0.373  -0.893  0.00  0.00     0.036 H 
ATOM     24  H9  <0> d          -0.497   1.943   0.915  0.00  0.00     0.036 H 
ATOM     25  H10 <0> d          -0.515   1.953  -0.881  0.00  0.00     0.036 H 
ENDBRANCH   1  14
TORSDOF 5
