REMARK  5 active torsions:
REMARK  status: ('A' for Active; 'I' for Inactive)
REMARK    1  A    between atoms: C1_1  and  C2_2 
REMARK    2  A    between atoms: C2_2  and  C3_4 
REMARK    3  A    between atoms: C2_2  and  O2_12 
REMARK    4  A    between atoms: C3_4  and  O1_5 
REMARK    5  A    between atoms: O1_5  and  C4_6 
ROOT
ATOM      1  O1  <0> d           0.863  -1.933   1.175  0.00  0.00    -0.349 OA
ENDROOT
BRANCH   1   2
ATOM      2  C3  <0> d           0.742  -0.511   1.242  0.00  0.00     0.049 C 
ATOM      3  H5  <0> d           1.735  -0.063   1.280  0.00  0.00     0.079 H 
ATOM      4  H6  <0> d           0.184  -0.235   2.136  0.00  0.00     0.079 H 
BRANCH   2   5
ATOM      5  C2  <0> d           0.002  -0.004   0.002  0.00  0.00     0.053 C 
ATOM      6  H1  <0> d           0.512  -0.356  -0.895  0.00  0.00     0.085 H 
BRANCH   5   7
ATOM      7  C1  <0> d          -0.019   1.526   0.010  0.00  0.00    -0.050 C 
ATOM      8  H2  <0> d           1.004   1.903   0.003  0.00  0.00     0.031 H 
ATOM      9  H3  <0> d          -0.546   1.887  -0.873  0.00  0.00     0.031 H 
ATOM     10  H4  <0> d          -0.529   1.877   0.907  0.00  0.00     0.031 H 
ENDBRANCH   5   7
BRANCH   5  11
ATOM     11  O2  <0> d          -1.339  -0.499   0.012  0.00  0.00    -0.394 OA
ATOM     12  H12 <0> d          -1.853  -0.225   0.784  0.00  0.00     0.210 HD
ENDBRANCH   5  11
ENDBRANCH   2   5
ENDBRANCH   1   2
BRANCH   1  13
ATOM     13  C4  <0> d           1.501  -2.547   2.207  0.00  0.00     0.068 A 
ATOM     14  C9  <0> d           1.654  -3.925   2.208  0.00  0.00    -0.051 A 
ATOM     15  C8  <0> d           2.307  -4.546   3.255  0.00  0.00    -0.080 A 
ATOM     16  H11 <0> d           1.267  -4.513   1.388  0.00  0.00     0.087 H 
ATOM     17  C7  <0> d           2.797  -3.795   4.308  0.00  0.00    -0.083 A 
ATOM     18  H10 <0> d           2.431  -5.619   3.254  0.00  0.00     0.083 H 
ATOM     19  C6  <0> d           2.641  -2.422   4.312  0.00  0.00    -0.080 A 
ATOM     20  H9  <0> d           3.304  -4.283   5.128  0.00  0.00     0.083 H 
ATOM     21  C5  <0> d           1.994  -1.796   3.264  0.00  0.00    -0.051 A 
ATOM     22  H8  <0> d           3.025  -1.837   5.135  0.00  0.00     0.083 H 
ATOM     23  H7  <0> d           1.872  -0.723   3.268  0.00  0.00     0.087 H 
ENDBRANCH   1  13
TORSDOF 5
