REMARK  5 active torsions:
REMARK  status: ('A' for Active; 'I' for Inactive)
REMARK    1  A    between atoms: C1_1  and  C2_2 
REMARK    2  A    between atoms: C2_2  and  O1_3 
REMARK    3  A    between atoms: O1_3  and  C3_4 
REMARK    4  A    between atoms: C3_4  and  C4_6 
REMARK    5  A    between atoms: C3_4  and  C5_7 
REMARK       I    between atoms: C5_7  and  N1_9 
ROOT
ATOM      1  C3  <0> d          -0.013   1.086   0.008  0.00  0.00     0.111 C 
ATOM      2  H1  <0> d           0.002  -0.004   0.002  0.00  0.00     0.097 H 
ENDROOT
BRANCH   1   3
ATOM      3  O1  <0> d          -0.704   1.559  -1.150  0.00  0.00    -0.377 OA
BRANCH   3   4
ATOM      4  C2  <0> d          -1.724   0.676  -1.619  0.00  0.00     0.017 C 
ATOM      5  H5  <0> d          -1.281  -0.285  -1.880  0.00  0.00     0.073 H 
ATOM      6  H6  <0> d          -2.469   0.532  -0.837  0.00  0.00     0.073 H 
BRANCH   4   7
ATOM      7  C1  <0> d          -2.393   1.280  -2.855  0.00  0.00    -0.056 C 
ATOM      8  H2  <0> d          -2.837   2.242  -2.594  0.00  0.00     0.030 H 
ATOM      9  H3  <0> d          -1.649   1.424  -3.638  0.00  0.00     0.030 H 
ATOM     10  H4  <0> d          -3.172   0.607  -3.213  0.00  0.00     0.030 H 
ENDBRANCH   4   7
ENDBRANCH   3   4
ENDBRANCH   1   3
BRANCH   1  11
ATOM     11  C4  <0> d          -0.729   1.579   1.267  0.00  0.00    -0.044 C 
ATOM     12  H7  <0> d          -0.744   2.669   1.273  0.00  0.00     0.031 H 
ATOM     13  H8  <0> d          -1.751   1.202   1.275  0.00  0.00     0.031 H 
ATOM     14  H9  <0> d          -0.202   1.218   2.150  0.00  0.00     0.031 H 
ENDBRANCH   1  11
BRANCH   1  15
ATOM     15  C5  <0> d           1.401   1.607  -0.003  0.00  0.00     0.244 C 
ATOM     16  O2  <0> d           1.753   2.387  -0.862  0.00  0.00    -0.271 OA
ATOM     17  N1  <0> d           2.274   1.208   0.943  0.00  0.00    -0.368 N 
ATOM     18  H10 <0> d           1.992   0.584   1.631  0.00  0.00     0.159 HD
ATOM     19  H11 <0> d           3.184   1.543   0.936  0.00  0.00     0.159 HD
ENDBRANCH   1  15
TORSDOF 5
