REMARK  2 active torsions:
REMARK  status: ('A' for Active; 'I' for Inactive)
REMARK    1  A    between atoms: C1_1  and  C2_2 
REMARK    2  A    between atoms: C2_2  and  C7_13 
ROOT
ATOM      1  C2  <0> d          -2.244   1.379  -0.101  0.00  0.00     0.158 C 
ATOM      2  O1  <0> d          -1.094   1.539   0.766  0.00  0.00    -0.345 OA
ATOM      3  C3  <0> d          -0.013   1.086   0.008  0.00  0.00     0.097 C 
ATOM      4  H1  <0> d           0.002  -0.004   0.002  0.00  0.00     0.091 H 
ATOM      5  C4  <0> d           1.397   1.614  -0.003  0.00  0.00     0.056 C 
ATOM      6  O2  <0> d           1.791   1.572  -1.425  0.00  0.00    -0.317 OA
ATOM      7  C5  <0> d           0.722   1.180  -2.192  0.00  0.00     0.290 C 
ATOM      8  O3  <0> d           0.743   0.610  -3.257  0.00  0.00    -0.262 OA
ATOM      9  C6  <0> d          -0.464   1.616  -1.414  0.00  0.00     0.152 C 
ATOM     10  H2  <0> d          -0.530   2.704  -1.407  0.00  0.00     0.103 H 
ATOM     11  O4  <0> d          -1.748   1.049  -1.436  0.00  0.00    -0.338 OA
ATOM     12  H6  <0> d           1.423   2.638   0.370  0.00  0.00     0.079 H 
ATOM     13  H7  <0> d           2.048   0.975   0.594  0.00  0.00     0.079 H 
ENDROOT
BRANCH   1  14
ATOM     14  C1  <0> d          -3.032   2.690  -0.151  0.00  0.00    -0.025 C 
ATOM     15  H3  <0> d          -3.891   2.573  -0.812  0.00  0.00     0.035 H 
ATOM     16  H4  <0> d          -3.377   2.945   0.851  0.00  0.00     0.035 H 
ATOM     17  H5  <0> d          -2.390   3.486  -0.527  0.00  0.00     0.035 H 
ENDBRANCH   1  14
BRANCH   1  18
ATOM     18  C7  <0> d          -3.143   0.252   0.412  0.00  0.00    -0.025 C 
ATOM     19  H8  <0> d          -2.578  -0.680   0.436  0.00  0.00     0.035 H 
ATOM     20  H9  <0> d          -3.488   0.493   1.418  0.00  0.00     0.035 H 
ATOM     21  H10 <0> d          -4.001   0.141  -0.250  0.00  0.00     0.035 H 
ENDBRANCH   1  18
TORSDOF 2
