REMARK  1 active torsions:
REMARK  status: ('A' for Active; 'I' for Inactive)
REMARK    1  A    between atoms: C6_8  and  N3_10 
ROOT
ATOM      1  C1  <0> d           2.380   0.093  -0.021  0.00  0.00    -0.063 A 
ATOM      2  C2  <0> d           1.219  -0.666  -0.014  0.00  0.00    -0.045 A 
ATOM      3  C3  <0> d           0.002  -0.004   0.002  0.00  0.00     0.127 A 
ATOM      4  C4  <0> d          -0.017   1.401   0.010  0.00  0.00     0.187 A 
ATOM      5  N1  <0> d           1.123   2.084   0.003  0.00  0.00    -0.239 NA
ATOM      6  C5  <0> d           2.291   1.474  -0.013  0.00  0.00     0.005 A 
ATOM      7  N2  <0> d          -1.325   1.768   0.030  0.00  0.00    -0.186 NA
ATOM      8  C6  <0> d          -2.067   0.688   0.026  0.00  0.00     0.246 A 
ATOM      9  O1  <0> d          -1.288  -0.407   0.013  0.00  0.00    -0.274 OA
ATOM     10  H1  <0> d           3.346  -0.390  -0.033  0.00  0.00     0.085 H 
ATOM     11  H2  <0> d           1.263  -1.745  -0.020  0.00  0.00     0.088 H 
ATOM     12  H3  <0> d           3.196   2.063  -0.018  0.00  0.00     0.114 H 
ENDROOT
BRANCH   8  13
ATOM     13  N3  <0> d          -3.442   0.677   0.040  0.00  0.00    -0.363 N 
ATOM     14  H4  <0> d          -3.984  -0.280   0.035  0.00  0.00     0.159 HD
ATOM     15  H5  <0> d          -3.999   1.625   0.055  0.00  0.00     0.159 HD
ENDBRANCH   8  13
TORSDOF 1
