REMARK  4 active torsions:
REMARK  status: ('A' for Active; 'I' for Inactive)
REMARK    1  A    between atoms: C1_1  and  N1_2 
REMARK    2  A    between atoms: N1_2  and  C2_3 
REMARK    3  A    between atoms: C7_8  and  O1_9 
REMARK    4  A    between atoms: O1_9  and  C8_10 
ROOT
ATOM      1  C2  <0> d          -0.749   1.596   3.568  0.00  0.00     0.061 A 
ATOM      2  C3  <0> d          -0.200   1.220   4.785  0.00  0.00    -0.055 A 
ATOM      3  C4  <0> d           0.939   0.438   4.818  0.00  0.00    -0.081 A 
ATOM      4  C5  <0> d           1.534   0.028   3.640  0.00  0.00    -0.080 A 
ATOM      5  C6  <0> d           0.990   0.393   2.422  0.00  0.00    -0.049 A 
ATOM      6  C7  <0> d          -0.148   1.182   2.381  0.00  0.00     0.094 A 
ATOM      7  H5  <0> d          -0.663   1.539   5.708  0.00  0.00     0.087 H 
ATOM      8  H6  <0> d           1.365   0.146   5.767  0.00  0.00     0.083 H 
ATOM      9  H7  <0> d           2.423  -0.584   3.670  0.00  0.00     0.083 H 
ATOM     10  H8  <0> d           1.454   0.067   1.503  0.00  0.00     0.087 H 
ENDROOT
BRANCH   1  11
ATOM     11  N1  <0> d          -1.902   2.387   3.532  0.00  0.00    -0.392 N 
ATOM     12  H4  <0> d          -2.285   2.649   2.680  0.00  0.00     0.159 HD
BRANCH  11  13
ATOM     13  C1  <0> d          -2.532   2.821   4.781  0.00  0.00    -0.021 C 
ATOM     14  H1  <0> d          -3.411   3.425   4.555  0.00  0.00     0.056 H 
ATOM     15  H2  <0> d          -2.830   1.948   5.361  0.00  0.00     0.056 H 
ATOM     16  H3  <0> d          -1.823   3.415   5.358  0.00  0.00     0.056 H 
ENDBRANCH  11  13
ENDBRANCH   1  11
BRANCH   6  17
ATOM     17  O1  <0> d          -0.682   1.547   1.184  0.00  0.00    -0.354 OA
BRANCH  17  18
ATOM     18  C8  <0> d          -0.013   1.086   0.008  0.00  0.00     0.010 C 
ATOM     19  H9  <0> d           0.002  -0.004   0.002  0.00  0.00     0.066 H 
ATOM     20  H10 <0> d           1.010   1.463   0.000  0.00  0.00     0.066 H 
ATOM     21  H11 <0> d          -0.540   1.447  -0.875  0.00  0.00     0.066 H 
ENDBRANCH  17  18
ENDBRANCH   6  17
TORSDOF 4
