REMARK  7 active torsions:
REMARK  status: ('A' for Active; 'I' for Inactive)
REMARK    1  A    between atoms: C1_1  and  C2_2 
REMARK    2  A    between atoms: C2_2  and  C3_4 
REMARK    3  A    between atoms: C3_4  and  C4_5 
REMARK    4  A    between atoms: C3_4  and  O2_6 
REMARK    5  A    between atoms: C3_4  and  O3_8 
REMARK    6  A    between atoms: O2_6  and  C5_7 
REMARK    7  A    between atoms: O3_8  and  C6_9 
ROOT
ATOM      1  C3  <0> d           1.305   2.002   0.026  0.00  0.00     0.221 C 
ENDROOT
BRANCH   1   2
ATOM      2  C2  <0> d           0.001   1.288  -0.221  0.00  0.00     0.184 C 
ATOM      3  O1  <0> d          -0.007   0.096  -0.413  0.00  0.00    -0.292 OA
BRANCH   2   4
ATOM      4  C1  <0> d          -1.292   2.062  -0.234  0.00  0.00    -0.016 C 
ATOM      5  H1  <0> d          -2.052   1.438  -0.415  0.00  0.00     0.037 H 
ATOM      6  H2  <0> d          -1.438   2.542   0.733  0.00  0.00     0.037 H 
ATOM      7  H3  <0> d          -1.252   2.822  -1.015  0.00  0.00     0.037 H 
ENDBRANCH   2   4
ENDBRANCH   1   2
BRANCH   1   8
ATOM      8  C4  <0> d           1.517   3.065  -1.054  0.00  0.00    -0.018 C 
ATOM      9  H4  <0> d           0.697   3.783  -1.023  0.00  0.00     0.035 H 
ATOM     10  H5  <0> d           2.460   3.582  -0.876  0.00  0.00     0.035 H 
ATOM     11  H6  <0> d           1.544   2.587  -2.034  0.00  0.00     0.035 H 
ENDBRANCH   1   8
BRANCH   1  12
ATOM     12  O2  <0> d           1.269   2.629   1.310  0.00  0.00    -0.354 OA
BRANCH  12  13
ATOM     13  C5  <0> d           2.464   3.338   1.644  0.00  0.00     0.008 C 
ATOM     14  H7  <0> d           3.307   2.647   1.647  0.00  0.00     0.066 H 
ATOM     15  H8  <0> d           2.639   4.122   0.908  0.00  0.00     0.066 H 
ATOM     16  H9  <0> d           2.357   3.784   2.633  0.00  0.00     0.066 H 
ENDBRANCH  12  13
ENDBRANCH   1  12
BRANCH   1  17
ATOM     17  O3  <0> d           2.379   1.061  -0.015  0.00  0.00    -0.354 OA
BRANCH  17  18
ATOM     18  C6  <0> d           2.357   0.108   1.050  0.00  0.00     0.008 C 
ATOM     19  H10 <0> d           1.490  -0.543   0.937  0.00  0.00     0.066 H 
ATOM     20  H11 <0> d           3.268  -0.491   1.020  0.00  0.00     0.066 H 
ATOM     21  H12 <0> d           2.297   0.631   2.004  0.00  0.00     0.066 H 
ENDBRANCH  17  18
ENDBRANCH   1  17
TORSDOF 7
