REMARK  3 active torsions:
REMARK  status: ('A' for Active; 'I' for Inactive)
REMARK    1  A    between atoms: C1_1  and  C2_2 
REMARK    2  A    between atoms: C2_2  and  C3_3 
REMARK    3  A    between atoms: C6_6  and  O1_9 
ROOT
ATOM      1  C3  <0> d          -1.412  -0.526   0.013  0.00  0.00    -0.058 A 
ATOM      2  C4  <0> d          -2.050  -0.766   1.216  0.00  0.00    -0.074 A 
ATOM      3  C5  <0> d          -3.346  -1.244   1.228  0.00  0.00    -0.051 A 
ATOM      4  C6  <0> d          -4.007  -1.484   0.032  0.00  0.00     0.065 A 
ATOM      5  C7  <0> d          -3.365  -1.242  -1.173  0.00  0.00    -0.051 A 
ATOM      6  C8  <0> d          -2.071  -0.758  -1.180  0.00  0.00    -0.074 A 
ATOM      7  H6  <0> d          -1.534  -0.579   2.146  0.00  0.00     0.084 H 
ATOM      8  H7  <0> d          -3.843  -1.432   2.168  0.00  0.00     0.087 H 
ATOM      9  H8  <0> d          -3.877  -1.427  -2.106  0.00  0.00     0.087 H 
ATOM     10  H9  <0> d          -1.572  -0.565  -2.119  0.00  0.00     0.084 H 
ENDROOT
BRANCH   1  11
ATOM     11  C2  <0> d           0.002  -0.004   0.002  0.00  0.00    -0.044 C 
ATOM     12  H4  <0> d           0.512  -0.356  -0.895  0.00  0.00     0.039 H 
ATOM     13  H5  <0> d           0.529  -0.365   0.885  0.00  0.00     0.039 H 
BRANCH  11  14
ATOM     14  C1  <0> d          -0.019   1.526   0.010  0.00  0.00    -0.073 C 
ATOM     15  H1  <0> d           1.004   1.903   0.003  0.00  0.00     0.028 H 
ATOM     16  H2  <0> d          -0.546   1.887  -0.873  0.00  0.00     0.028 H 
ATOM     17  H3  <0> d          -0.529   1.877   0.907  0.00  0.00     0.028 H 
ENDBRANCH  11  14
ENDBRANCH   1  11
BRANCH   4  18
ATOM     18  O1  <0> d          -5.282  -1.955   0.042  0.00  0.00    -0.361 OA
ATOM     19  H10 <0> d          -5.957  -1.263   0.048  0.00  0.00     0.217 HD
ENDBRANCH   4  18
TORSDOF 3
