REMARK  0 active torsions:
REMARK  status: ('A' for Active; 'I' for Inactive)
ROOT
ATOM      1  C1  <0> d           1.164   2.081   0.002  0.00  0.00    -0.070 A 
ATOM      2  C2  <0> d          -0.017   1.401   0.010  0.00  0.00    -0.017 A 
ATOM      3  C3  <0> d           0.002  -0.004   0.002  0.00  0.00     0.245 A 
ATOM      4  O1  <0> d          -1.046  -0.629   0.009  0.00  0.00    -0.268 OA
ATOM      5  N1  <0> d           1.176  -0.660  -0.013  0.00  0.00    -0.327 N 
ATOM      6  H1  <0> d           1.192  -1.760  -0.019  0.00  0.00     0.169 HD
ATOM      7  C4  <0> d           2.360   0.015  -0.020  0.00  0.00     0.018 A 
ATOM      8  C5  <0> d           2.374   1.368  -0.013  0.00  0.00    -0.035 A 
ATOM      9  C6  <0> d           3.800   1.877  -0.025  0.00  0.00    -0.039 C 
ATOM     10  C7  <0> d           4.652   0.671  -0.477  0.00  0.00    -0.056 C 
ATOM     11  C8  <0> d           3.777  -0.522  -0.037  0.00  0.00    -0.026 C 
ATOM     12  H2  <0> d           1.169   3.161   0.007  0.00  0.00     0.084 H 
ATOM     13  H3  <0> d          -0.956   1.935   0.017  0.00  0.00     0.092 H 
ATOM     14  H4  <0> d           3.884   2.719  -0.727  0.00  0.00     0.040 H 
ATOM     15  H5  <0> d           4.078   2.214   0.985  0.00  0.00     0.040 H 
ATOM     16  H6  <0> d           4.804   0.717  -1.565  0.00  0.00     0.034 H 
ATOM     17  H7  <0> d           5.628   0.701   0.031  0.00  0.00     0.034 H 
ATOM     18  H8  <0> d           4.047  -0.874   0.970  0.00  0.00     0.042 H 
ATOM     19  H9  <0> d           3.844  -1.358  -0.748  0.00  0.00     0.042 H 
ENDROOT
TORSDOF 0
