REMARK  7 active torsions:
REMARK  status: ('A' for Active; 'I' for Inactive)
REMARK    1  A    between atoms: C1_1  and  C2_2 
REMARK    2  A    between atoms: C2_2  and  C3_4 
REMARK    3  A    between atoms: C2_2  and  O3_11 
REMARK    4  A    between atoms: C3_4  and  C4_6 
REMARK    5  A    between atoms: C3_4  and  N1_10 
REMARK    6  A    between atoms: C4_6  and  O2_8 
REMARK    7  A    between atoms: O2_8  and  C5_9 
ROOT
ATOM      1  C3  <0> d           0.718  -0.497  -1.257  0.00  0.00     0.236 C 
ATOM      2  H2  <0> d           0.191  -0.136  -2.140  0.00  0.00     0.108 H 
ENDROOT
BRANCH   1   3
ATOM      3  C2  <0> d           0.002  -0.004   0.002  0.00  0.00     0.071 C 
ATOM      4  H1  <0> d          -1.020  -0.381   0.010  0.00  0.00     0.086 H 
BRANCH   3   5
ATOM      5  C1  <0> d          -0.019   1.526   0.010  0.00  0.00    -0.050 C 
ATOM      6  H3  <0> d           1.004   1.903   0.003  0.00  0.00     0.031 H 
ATOM      7  H4  <0> d          -0.546   1.887  -0.873  0.00  0.00     0.031 H 
ATOM      8  H5  <0> d          -0.529   1.877   0.907  0.00  0.00     0.031 H 
ENDBRANCH   3   5
BRANCH   3   9
ATOM      9  O3  <0> d           0.693  -0.477   1.160  0.00  0.00    -0.393 OA
ATOM     10  H11 <0> d           0.294  -0.202   1.996  0.00  0.00     0.210 HD
ENDBRANCH   3   9
ENDBRANCH   1   3
BRANCH   1  11
ATOM     11  C4  <0> d           0.739  -2.004  -1.265  0.00  0.00     0.294 C 
ATOM     12  O1  <0> d           1.733  -2.597  -0.920  0.00  0.00    -0.263 OA
BRANCH  11  13
ATOM     13  O2  <0> d          -0.348  -2.688  -1.656  0.00  0.00    -0.325 OA
BRANCH  13  14
ATOM     14  C5  <0> d          -0.258  -4.114  -1.639  0.00  0.00     0.013 C 
ATOM     15  H6  <0> d           0.544  -4.436  -2.303  0.00  0.00     0.067 H 
ATOM     16  H7  <0> d          -0.049  -4.453  -0.624  0.00  0.00     0.067 H 
ATOM     17  H8  <0> d          -1.202  -4.542  -1.977  0.00  0.00     0.067 H 
ENDBRANCH  13  14
ENDBRANCH  11  13
ENDBRANCH   1  11
BRANCH   1  18
ATOM     18  N1  <0> d           2.096   0.011  -1.267  0.00  0.00     0.095 N 
ATOM     19  H9  <0> d           2.110   1.018  -1.327  0.00  0.00     0.314 HD
ATOM     20  H10 <0> d           2.606  -0.310  -0.458  0.00  0.00     0.314 HD
ENDBRANCH   1  18
TORSDOF 7
