REMARK  2 active torsions:
REMARK  status: ('A' for Active; 'I' for Inactive)
REMARK    1  A    between atoms: C1_1  and  O1_2 
REMARK    2  A    between atoms: O1_2  and  C2_3 
ROOT
ATOM      1  C2  <0> d          -2.581   1.705   0.022  0.00  0.00     0.176 A 
ATOM      2  C3  <0> d          -1.200   1.931   0.018  0.00  0.00     0.045 A 
ATOM      3  C4  <0> d          -0.013   1.076   0.008  0.00  0.00    -0.052 A 
ATOM      4  C5  <0> d           1.056   1.890   0.002  0.00  0.00    -0.021 A 
ATOM      5  N1  <0> d           0.645   3.197   0.013  0.00  0.00    -0.365 N 
ATOM      6  H1  <0> d           1.235   3.967   0.011  0.00  0.00     0.165 HD
ATOM      7  C6  <0> d          -0.724   3.256   0.026  0.00  0.00     0.048 A 
ATOM      8  C7  <0> d          -1.660   4.291   0.041  0.00  0.00    -0.039 A 
ATOM      9  C8  <0> d          -2.991   3.983   0.036  0.00  0.00     0.007 A 
ATOM     10  N2  <0> d          -3.415   2.729   0.031  0.00  0.00    -0.236 NA
ATOM     11  H5  <0> d           0.002  -0.004   0.002  0.00  0.00     0.087 H 
ATOM     12  H6  <0> d           2.085   1.563  -0.010  0.00  0.00     0.111 H 
ATOM     13  H7  <0> d          -1.337   5.321   0.044  0.00  0.00     0.089 H 
ATOM     14  H8  <0> d          -3.716   4.784   0.043  0.00  0.00     0.115 H 
ENDROOT
BRANCH   1  15
ATOM     15  O1  <0> d          -3.062   0.437   0.018  0.00  0.00    -0.339 OA
BRANCH  15  16
ATOM     16  C1  <0> d          -4.482   0.282   0.022  0.00  0.00     0.012 C 
ATOM     17  H2  <0> d          -4.903   0.757  -0.863  0.00  0.00     0.067 H 
ATOM     18  H3  <0> d          -4.732  -0.779   0.018  0.00  0.00     0.067 H 
ATOM     19  H4  <0> d          -4.896   0.749   0.916  0.00  0.00     0.067 H 
ENDBRANCH  15  16
ENDBRANCH   1  15
TORSDOF 2
