REMARK  5 active torsions:
REMARK  status: ('A' for Active; 'I' for Inactive)
REMARK    1  A    between atoms: C1_1  and  C2_2 
REMARK    2  A    between atoms: C2_2  and  C3_3 
REMARK    3  A    between atoms: C3_3  and  O1_4 
REMARK    4  A    between atoms: O1_4  and  C4_5 
REMARK    5  A    between atoms: C9_10  and  N1_11 
ROOT
ATOM      1  C4  <0> d          -0.017   1.389   0.010  0.00  0.00     0.094 A 
ATOM      2  C5  <0> d           1.175   2.094   0.002  0.00  0.00    -0.049 A 
ATOM      3  C6  <0> d           2.380   1.416  -0.013  0.00  0.00    -0.080 A 
ATOM      4  C7  <0> d           2.400   0.034  -0.021  0.00  0.00    -0.081 A 
ATOM      5  C8  <0> d           1.215  -0.677  -0.013  0.00  0.00    -0.055 A 
ATOM      6  C9  <0> d           0.002  -0.004   0.002  0.00  0.00     0.059 A 
ATOM      7  H8  <0> d           1.163   3.174   0.008  0.00  0.00     0.087 H 
ATOM      8  H9  <0> d           3.308   1.968  -0.020  0.00  0.00     0.083 H 
ATOM      9  H10 <0> d           3.344  -0.491  -0.033  0.00  0.00     0.083 H 
ATOM     10  H11 <0> d           1.233  -1.757  -0.019  0.00  0.00     0.087 H 
ENDROOT
BRANCH   1  11
ATOM     11  O1  <0> d          -1.203   2.055   0.019  0.00  0.00    -0.349 OA
BRANCH  11  12
ATOM     12  C3  <0> d          -1.145   3.482   0.026  0.00  0.00     0.026 C 
ATOM     13  H6  <0> d          -0.613   3.820   0.916  0.00  0.00     0.075 H 
ATOM     14  H7  <0> d          -0.622   3.830  -0.864  0.00  0.00     0.075 H 
BRANCH  12  15
ATOM     15  C2  <0> d          -2.566   4.050   0.036  0.00  0.00    -0.048 C 
ATOM     16  H4  <0> d          -3.099   3.712  -0.853  0.00  0.00     0.035 H 
ATOM     17  H5  <0> d          -3.090   3.703   0.927  0.00  0.00     0.035 H 
BRANCH  15  18
ATOM     18  C1  <0> d          -2.505   5.579   0.044  0.00  0.00    -0.075 C 
ATOM     19  H1  <0> d          -1.973   5.916   0.934  0.00  0.00     0.027 H 
ATOM     20  H2  <0> d          -1.981   5.926  -0.846  0.00  0.00     0.027 H 
ATOM     21  H3  <0> d          -3.517   5.983   0.051  0.00  0.00     0.027 H 
ENDBRANCH  15  18
ENDBRANCH  12  15
ENDBRANCH  11  12
ENDBRANCH   1  11
BRANCH   6  22
ATOM     22  N1  <0> d          -1.199  -0.722   0.009  0.00  0.00    -0.397 N 
ATOM     23  H12 <0> d          -2.046  -0.250   0.019  0.00  0.00     0.156 HD
ATOM     24  H13 <0> d          -1.185  -1.692   0.004  0.00  0.00     0.156 HD
ENDBRANCH   6  22
TORSDOF 5
