REMARK  4 active torsions:
REMARK  status: ('A' for Active; 'I' for Inactive)
REMARK    1  A    between atoms: C2_2  and  O4_12 
REMARK    2  A    between atoms: C3_4  and  C5_10 
REMARK    3  A    between atoms: C4_7  and  O2_9 
REMARK    4  A    between atoms: C5_10  and  O3_11 
ROOT
ATOM      1  C1  <0> d           1.153   3.100   0.003  0.00  0.00     0.007 C 
ATOM      2  C2  <0> d           2.290   3.531  -0.965  0.00  0.00     0.067 C 
ATOM      3  H1  <0> d           3.247   3.589  -0.446  0.00  0.00     0.087 H 
ATOM      4  C3  <0> d           2.276   2.358  -1.978  0.00  0.00     0.086 C 
ATOM      5  H2  <0> d           1.499   2.515  -2.727  0.00  0.00     0.090 H 
ATOM      6  O1  <0> d           1.985   1.190  -1.196  0.00  0.00    -0.351 OA
ATOM      7  C4  <0> d           1.286   1.562  -0.002  0.00  0.00     0.131 C 
ATOM      8  H3  <0> d           1.850   1.237   0.873  0.00  0.00     0.128 H 
ATOM      9  H4  <0> d           0.180   3.406  -0.381  0.00  0.00     0.044 H 
ATOM     10  H5  <0> d           1.321   3.501   1.003  0.00  0.00     0.044 H 
ENDROOT
BRANCH   4  11
ATOM     11  C5  <0> d           3.642   2.220  -2.653  0.00  0.00     0.043 C 
ATOM     12  H7  <0> d           3.899   3.156  -3.148  0.00  0.00     0.078 H 
ATOM     13  H8  <0> d           4.396   1.986  -1.902  0.00  0.00     0.078 H 
BRANCH  11  14
ATOM     14  O3  <0> d           3.591   1.168  -3.619  0.00  0.00    -0.398 OA
ATOM     15  H9  <0> d           4.425   1.023  -4.087  0.00  0.00     0.209 HD
ENDBRANCH  11  14
ENDBRANCH   4  11
BRANCH   2  16
ATOM     16  O4  <0> d           1.980   4.769  -1.606  0.00  0.00    -0.393 OA
ATOM     17  H10 <0> d           1.978   5.531  -1.010  0.00  0.00     0.210 HD
ENDBRANCH   2  16
BRANCH   7  18
ATOM     18  O2  <0> d          -0.011   0.963   0.007  0.00  0.00    -0.371 OA
ATOM     19  H6  <0> d           0.002  -0.004   0.002  0.00  0.00     0.212 HD
ENDBRANCH   7  18
TORSDOF 4
