REMARK  2 active torsions:
REMARK  status: ('A' for Active; 'I' for Inactive)
REMARK    1  A    between atoms: C1_1  and  C2_2 
REMARK    2  A    between atoms: C7_8  and  N2_11 
ROOT
ATOM      1  C2  <0> d          -0.729   1.579   1.267  0.00  0.00    -0.053 C 
ATOM      2  H1  <0> d          -1.751   1.202   1.274  0.00  0.00     0.040 H 
ATOM      3  C3  <0> d           0.010   1.069   2.506  0.00  0.00    -0.057 C 
ATOM      4  C4  <0> d          -0.843   1.303   3.759  0.00  0.00    -0.022 C 
ATOM      5  C5  <0> d          -1.286   2.743   3.763  0.00  0.00     0.072 A 
ATOM      6  C6  <0> d          -1.237   3.568   2.619  0.00  0.00     0.022 A 
ATOM      7  C7  <0> d          -1.710   4.761   3.040  0.00  0.00     0.174 A 
ATOM      8  O1  <0> d          -2.004   4.599   4.346  0.00  0.00    -0.195 OA
ATOM      9  N1  <0> d          -1.760   3.470   4.721  0.00  0.00    -0.130 NA
ATOM     10  C8  <0> d          -0.752   3.115   1.272  0.00  0.00    -0.032 C 
ATOM     11  H5  <0> d           0.207   0.003   2.396  0.00  0.00     0.034 H 
ATOM     12  H6  <0> d           0.955   1.603   2.608  0.00  0.00     0.034 H 
ATOM     13  H7  <0> d          -1.716   0.649   3.737  0.00  0.00     0.042 H 
ATOM     14  H8  <0> d          -0.252   1.097   4.651  0.00  0.00     0.042 H 
ATOM     15  H11 <0> d           0.253   3.499   1.094  0.00  0.00     0.041 H 
ATOM     16  H12 <0> d          -1.428   3.476   0.497  0.00  0.00     0.041 H 
ENDROOT
BRANCH   1  17
ATOM     17  C1  <0> d          -0.013   1.086   0.008  0.00  0.00    -0.073 C 
ATOM     18  H2  <0> d           0.002  -0.004   0.002  0.00  0.00     0.028 H 
ATOM     19  H3  <0> d           1.010   1.463   0.000  0.00  0.00     0.028 H 
ATOM     20  H4  <0> d          -0.540   1.447  -0.875  0.00  0.00     0.028 H 
ENDBRANCH   1  17
BRANCH   7  21
ATOM     21  N2  <0> d          -1.860   5.912   2.289  0.00  0.00    -0.378 N 
ATOM     22  H9  <0> d          -2.212   6.717   2.699  0.00  0.00     0.158 HD
ATOM     23  H10 <0> d          -1.613   5.914   1.351  0.00  0.00     0.158 HD
ENDBRANCH   7  21
TORSDOF 2
