REMARK  2 active torsions:
REMARK  status: ('A' for Active; 'I' for Inactive)
REMARK    1  A    between atoms: C1_1  and  C2_2 
REMARK    2  A    between atoms: C2_2  and  O1_11 
ROOT
ATOM      1  C2  <0> d          -2.299   1.040  -0.747  0.00  0.00     0.062 C 
ATOM      2  C3  <0> d          -2.286   1.032   0.801  0.00  0.00    -0.030 C 
ATOM      3  C4  <0> d          -0.904   1.670   1.164  0.00  0.00    -0.035 C 
ATOM      4  H1  <0> d          -0.549   1.512   2.183  0.00  0.00     0.046 H 
ATOM      5  C5  <0> d          -0.013   1.086   0.008  0.00  0.00    -0.050 C 
ATOM      6  C6  <0> d          -0.926   1.682  -1.125  0.00  0.00    -0.008 C 
ATOM      7  H2  <0> d          -0.591   1.535  -2.151  0.00  0.00     0.050 H 
ATOM      8  C7  <0> d          -1.043   3.129  -0.631  0.00  0.00    -0.099 C 
ATOM      9  C8  <0> d          -1.030   3.122   0.689  0.00  0.00    -0.102 C 
ATOM     10  H6  <0> d          -3.103   1.637   1.195  0.00  0.00     0.038 H 
ATOM     11  H7  <0> d          -2.349   0.012   1.180  0.00  0.00     0.038 H 
ATOM     12  H8  <0> d           0.002  -0.004   0.002  0.00  0.00     0.035 H 
ATOM     13  H9  <0> d           0.992   1.509   0.001  0.00  0.00     0.035 H 
ATOM     14  H10 <0> d          -1.121   4.006  -1.257  0.00  0.00     0.077 H 
ATOM     15  H11 <0> d          -1.096   3.992   1.326  0.00  0.00     0.076 H 
ENDROOT
BRANCH   1  16
ATOM     16  C1  <0> d          -3.455   1.895  -1.270  0.00  0.00    -0.047 C 
ATOM     17  H3  <0> d          -3.387   1.972  -2.356  0.00  0.00     0.031 H 
ATOM     18  H4  <0> d          -4.403   1.431  -0.997  0.00  0.00     0.031 H 
ATOM     19  H5  <0> d          -3.398   2.891  -0.831  0.00  0.00     0.031 H 
ENDBRANCH   1  16
BRANCH   1  20
ATOM     20  O1  <0> d          -2.388  -0.292  -1.256  0.00  0.00    -0.390 OA
ATOM     21  H12 <0> d          -3.221  -0.737  -1.049  0.00  0.00     0.210 HD
ENDBRANCH   1  20
TORSDOF 2
