REMARK  4 active torsions:
REMARK  status: ('A' for Active; 'I' for Inactive)
REMARK    1  A    between atoms: C1_1  and  C2_2 
REMARK    2  A    between atoms: C2_2  and  O1_3 
REMARK    3  A    between atoms: O1_3  and  C3_4 
REMARK    4  A    between atoms: C5_6  and  C7_10 
ROOT
ATOM      1  C3  <0> d           1.182   2.056   0.002  0.00  0.00     0.167 A 
ATOM      2  C4  <0> d           1.248   3.449   0.009  0.00  0.00    -0.009 A 
ATOM      3  C5  <0> d           2.494   4.046  -0.000  0.00  0.00     0.036 A 
ATOM      4  N1  <0> d           3.577   3.283  -0.015  0.00  0.00    -0.247 NA
ATOM      5  C6  <0> d           3.479   1.968  -0.021  0.00  0.00     0.089 A 
ATOM      6  N2  <0> d           2.311   1.358  -0.007  0.00  0.00    -0.218 NA
ATOM      7  H6  <0> d           0.348   4.046   0.020  0.00  0.00     0.093 H 
ATOM      8  H7  <0> d           4.382   1.375  -0.033  0.00  0.00     0.146 H 
ENDROOT
BRANCH   1   9
ATOM      9  O1  <0> d          -0.017   1.425   0.010  0.00  0.00    -0.335 OA
BRANCH   9  10
ATOM     10  C2  <0> d           0.002  -0.004   0.002  0.00  0.00     0.024 C 
ATOM     11  H4  <0> d           0.534  -0.369   0.893  0.00  0.00     0.074 H 
ATOM     12  H5  <0> d           0.517  -0.359  -0.903  0.00  0.00     0.074 H 
BRANCH  10  13
ATOM     13  C1  <0> d          -1.433  -0.534   0.013  0.00  0.00    -0.056 C 
ATOM     14  H1  <0> d          -1.418  -1.633   0.007  0.00  0.00     0.030 H 
ATOM     15  H2  <0> d          -1.965  -0.169  -0.878  0.00  0.00     0.030 H 
ATOM     16  H3  <0> d          -1.948  -0.179   0.918  0.00  0.00     0.030 H 
ENDBRANCH  10  13
ENDBRANCH   9  10
ENDBRANCH   1   9
BRANCH   3  17
ATOM     17  C7  <0> d           2.620   5.548   0.007  0.00  0.00    -0.035 C 
ATOM     18  H8  <0> d           3.684   5.827  -0.002  0.00  0.00     0.035 H 
ATOM     19  H9  <0> d           2.143   5.952   0.912  0.00  0.00     0.035 H 
ATOM     20  H10 <0> d           2.125   5.962  -0.884  0.00  0.00     0.035 H 
ENDBRANCH   3  17
TORSDOF 4
