REMARK  7 active torsions:
REMARK  status: ('A' for Active; 'I' for Inactive)
REMARK    1  A    between atoms: C1_1  and  C2_2 
REMARK    2  A    between atoms: C2_2  and  C3_3 
REMARK    3  A    between atoms: C2_2  and  C4_4 
REMARK    4  A    between atoms: C4_4  and  O2_6 
REMARK    5  A    between atoms: O2_6  and  C5_7 
REMARK    6  A    between atoms: C5_7  and  C6_9 
REMARK    7  A    between atoms: C5_7  and  C7_10 
ROOT
ATOM      1  C4  <0> d          -1.687   0.783  -1.661  0.00  0.00     0.263 C 
ATOM      2  O1  <0> d          -1.942  -0.270  -1.127  0.00  0.00    -0.265 OA
ENDROOT
BRANCH   1   3
ATOM      3  C2  <0> d          -2.459   1.216  -2.880  0.00  0.00     0.023 C 
ATOM      4  H5  <0> d          -2.962   2.161  -2.675  0.00  0.00     0.054 H 
BRANCH   3   5
ATOM      5  C1  <0> d          -1.498   1.396  -4.056  0.00  0.00    -0.065 C 
ATOM      6  H2  <0> d          -0.995   0.451  -4.262  0.00  0.00     0.028 H 
ATOM      7  H3  <0> d          -2.056   1.709  -4.938  0.00  0.00     0.028 H 
ATOM      8  H4  <0> d          -0.756   2.155  -3.807  0.00  0.00     0.028 H 
ENDBRANCH   3   5
BRANCH   3   9
ATOM      9  C3  <0> d          -3.500   0.151  -3.230  0.00  0.00    -0.065 C 
ATOM     10  H6  <0> d          -4.185   0.023  -2.392  0.00  0.00     0.028 H 
ATOM     11  H7  <0> d          -4.059   0.464  -4.112  0.00  0.00     0.028 H 
ATOM     12  H8  <0> d          -2.997  -0.794  -3.436  0.00  0.00     0.028 H 
ENDBRANCH   3   9
ENDBRANCH   1   3
BRANCH   1  13
ATOM     13  O2  <0> d          -0.715   1.567  -1.168  0.00  0.00    -0.305 OA
BRANCH  13  14
ATOM     14  C5  <0> d          -0.013   1.086   0.008  0.00  0.00     0.128 C 
ATOM     15  H1  <0> d           0.002  -0.004   0.002  0.00  0.00     0.100 H 
BRANCH  14  16
ATOM     16  C6  <0> d          -0.729   1.579   1.267  0.00  0.00    -0.042 C 
ATOM     17  H9  <0> d          -0.744   2.669   1.273  0.00  0.00     0.031 H 
ATOM     18  H10 <0> d          -1.751   1.202   1.275  0.00  0.00     0.031 H 
ATOM     19  H11 <0> d          -0.202   1.218   2.150  0.00  0.00     0.031 H 
ENDBRANCH  14  16
BRANCH  14  20
ATOM     20  C7  <0> d           1.401   1.607  -0.003  0.00  0.00     0.203 C 
ATOM     21  O3  <0> d           1.752   2.384  -0.859  0.00  0.00    -0.646 OA
ATOM     22  O4  <0> d           2.271   1.209   0.939  0.00  0.00    -0.646 OA
ENDBRANCH  14  20
ENDBRANCH  13  14
ENDBRANCH   1  13
TORSDOF 7
