REMARK  7 active torsions:
REMARK  status: ('A' for Active; 'I' for Inactive)
REMARK    1  A    between atoms: C1_1  and  C2_2 
REMARK    2  A    between atoms: C2_2  and  C3_3 
REMARK    3  A    between atoms: C3_3  and  C4_4 
REMARK    4  A    between atoms: C4_4  and  C5_6 
REMARK    5  A    between atoms: C4_4  and  O1_7 
REMARK    6  A    between atoms: O1_7  and  C6_8 
REMARK    7  A    between atoms: C6_8  and  C7_9 
ROOT
ATOM      1  C4  <0> d          -0.013   1.086   0.008  0.00  0.00     0.035 C 
ATOM      2  H1  <0> d           0.002  -0.004   0.002  0.00  0.00     0.082 H 
ENDROOT
BRANCH   1   3
ATOM      3  C3  <0> d           1.423   1.615  -0.003  0.00  0.00    -0.042 C 
ATOM      4  H7  <0> d           1.408   2.702  -0.086  0.00  0.00     0.036 H 
ATOM      5  H8  <0> d           1.923   1.329   0.922  0.00  0.00     0.036 H 
BRANCH   3   6
ATOM      6  C2  <0> d           2.176   1.022  -1.195  0.00  0.00    -0.066 C 
ATOM      7  H5  <0> d           2.191  -0.065  -1.111  0.00  0.00     0.032 H 
ATOM      8  H6  <0> d           1.676   1.309  -2.120  0.00  0.00     0.032 H 
BRANCH   6   9
ATOM      9  C1  <0> d           3.612   1.552  -1.206  0.00  0.00    -0.076 C 
ATOM     10  H2  <0> d           4.112   1.265  -0.281  0.00  0.00     0.027 H 
ATOM     11  H3  <0> d           4.148   1.129  -2.055  0.00  0.00     0.027 H 
ATOM     12  H4  <0> d           3.597   2.638  -1.289  0.00  0.00     0.027 H 
ENDBRANCH   6   9
ENDBRANCH   3   6
ENDBRANCH   1   3
BRANCH   1  13
ATOM     13  C5  <0> d          -0.729   1.579   1.267  0.00  0.00    -0.052 C 
ATOM     14  H9  <0> d          -1.751   1.202   1.275  0.00  0.00     0.030 H 
ATOM     15  H10 <0> d          -0.202   1.218   2.150  0.00  0.00     0.030 H 
ATOM     16  H11 <0> d          -0.744   2.669   1.273  0.00  0.00     0.030 H 
ENDBRANCH   1  13
BRANCH   1  17
ATOM     17  O1  <0> d          -0.704   1.559  -1.150  0.00  0.00    -0.387 OA
BRANCH  17  18
ATOM     18  C6  <0> d          -1.724   0.676  -1.619  0.00  0.00     0.017 C 
ATOM     19  H12 <0> d          -1.281  -0.285  -1.880  0.00  0.00     0.073 H 
ATOM     20  H13 <0> d          -2.469   0.532  -0.837  0.00  0.00     0.073 H 
BRANCH  18  21
ATOM     21  C7  <0> d          -2.393   1.280  -2.855  0.00  0.00    -0.056 C 
ATOM     22  H14 <0> d          -2.837   2.242  -2.594  0.00  0.00     0.030 H 
ATOM     23  H15 <0> d          -1.649   1.424  -3.638  0.00  0.00     0.030 H 
ATOM     24  H16 <0> d          -3.172   0.607  -3.213  0.00  0.00     0.030 H 
ENDBRANCH  18  21
ENDBRANCH  17  18
ENDBRANCH   1  17
TORSDOF 7
