REMARK  2 active torsions:
REMARK  status: ('A' for Active; 'I' for Inactive)
REMARK    1  A    between atoms: C1_1  and  C2_2 
REMARK    2  A    between atoms: C3_3  and  C4_7 
ROOT
ATOM      1  C2  <0> d          -0.718   1.572   1.248  0.00  0.00     0.093 A 
ATOM      2  C3  <0> d          -2.151   1.842   1.365  0.00  0.00     0.141 A 
ATOM      3  N1  <0> d          -2.394   2.243   2.588  0.00  0.00    -0.101 NA
ATOM      4  O1  <0> d          -1.162   2.257   3.288  0.00  0.00    -0.106 OA
ATOM      5  N2  <0> d          -0.156   1.826   2.390  0.00  0.00    -0.108 NA
ENDROOT
BRANCH   2   6
ATOM      6  C4  <0> d          -3.154   1.686   0.289  0.00  0.00     0.084 A 
ATOM      7  N4  <0> d          -2.959   1.929  -1.038  0.00  0.00    -0.276 N 
ATOM      8  N3  <0> d          -4.161   1.652  -1.703  0.00  0.00    -0.187 NA
ATOM      9  H1  <0> d          -2.111   2.247  -1.461  0.00  0.00     0.189 HD
ATOM     10  C6  <0> d          -5.046   1.268  -0.819  0.00  0.00     0.024 A 
ATOM     11  C5  <0> d          -4.449   1.277   0.442  0.00  0.00    -0.035 A 
ATOM     12  H6  <0> d          -6.068   0.990  -1.030  0.00  0.00     0.117 H 
ATOM     13  H5  <0> d          -4.926   1.009   1.373  0.00  0.00     0.089 H 
ENDBRANCH   2   6
BRANCH   1  14
ATOM     14  C1  <0> d          -0.013   1.086   0.008  0.00  0.00    -0.031 C 
ATOM     15  H2  <0> d           0.002  -0.004   0.002  0.00  0.00     0.035 H 
ATOM     16  H3  <0> d           1.010   1.463   0.000  0.00  0.00     0.035 H 
ATOM     17  H4  <0> d          -0.540   1.447  -0.875  0.00  0.00     0.035 H 
ENDBRANCH   1  14
TORSDOF 2
