REMARK  4 active torsions:
REMARK  status: ('A' for Active; 'I' for Inactive)
REMARK    1  A    between atoms: C1_1  and  C2_2 
REMARK    2  A    between atoms: C4_4  and  C9_10 
REMARK    3  A    between atoms: C6_6  and  C8_8 
REMARK    4  A    between atoms: C8_8  and  O1_9 
ROOT
ATOM      1  C2  <0> d          -0.017   1.378   0.010  0.00  0.00    -0.061 A 
ATOM      2  C3  <0> d           0.002  -0.004   0.002  0.00  0.00    -0.071 A 
ATOM      3  C4  <0> d           1.208  -0.679  -0.013  0.00  0.00    -0.061 A 
ATOM      4  C5  <0> d           2.396   0.029  -0.021  0.00  0.00    -0.069 A 
ATOM      5  C6  <0> d           2.377   1.411  -0.015  0.00  0.00    -0.034 A 
ATOM      6  C7  <0> d           1.171   2.086   0.002  0.00  0.00    -0.069 A 
ATOM      7  H4  <0> d          -0.926  -0.557   0.008  0.00  0.00     0.085 H 
ATOM      8  H5  <0> d           3.339  -0.499  -0.033  0.00  0.00     0.085 H 
ATOM      9  H6  <0> d           1.156   3.165   0.008  0.00  0.00     0.085 H 
ENDROOT
BRANCH   5  10
ATOM     10  C8  <0> d           3.672   2.182  -0.024  0.00  0.00     0.040 C 
ATOM     11  H7  <0> d           3.534   3.130   0.495  0.00  0.00     0.081 H 
ATOM     12  H8  <0> d           4.444   1.601   0.480  0.00  0.00     0.081 H 
BRANCH  10  13
ATOM     13  O1  <0> d           4.069   2.432  -1.374  0.00  0.00    -0.396 OA
ATOM     14  H9  <0> d           4.896   2.925  -1.456  0.00  0.00     0.209 HD
ENDBRANCH  10  13
ENDBRANCH   5  10
BRANCH   3  15
ATOM     15  C9  <0> d           1.229  -2.186  -0.021  0.00  0.00    -0.051 C 
ATOM     16  H10 <0> d           1.224  -2.544  -1.050  0.00  0.00     0.033 H 
ATOM     17  H11 <0> d           2.129  -2.539   0.483  0.00  0.00     0.033 H 
ATOM     18  H12 <0> d           0.349  -2.563   0.500  0.00  0.00     0.033 H 
ENDBRANCH   3  15
BRANCH   1  19
ATOM     19  C1  <0> d          -1.332   2.114   0.020  0.00  0.00    -0.051 C 
ATOM     20  H1  <0> d          -1.644   2.286   1.050  0.00  0.00     0.033 H 
ATOM     21  H2  <0> d          -1.217   3.071  -0.489  0.00  0.00     0.033 H 
ATOM     22  H3  <0> d          -2.086   1.517  -0.494  0.00  0.00     0.033 H 
ENDBRANCH   1  19
TORSDOF 4
