REMARK  3 active torsions:
REMARK  status: ('A' for Active; 'I' for Inactive)
REMARK    1  A    between atoms: C1_1  and  C2_2 
REMARK    2  A    between atoms: C3_3  and  C6_8 
REMARK    3  A    between atoms: N1_5  and  C5_7 
ROOT
ATOM      1  C6  <0> d          -0.006  -0.343  -2.566  0.00  0.00     0.042 C 
ATOM      2  C7  <0> d           1.370  -0.054  -3.000  0.00  0.00     0.063 C 
ATOM      3  N3  <0> d           2.432   0.170  -3.336  0.00  0.00    -0.197 NA
ATOM      4  H8  <0> d          -0.432  -1.119  -3.202  0.00  0.00     0.062 H 
ATOM      5  H9  <0> d          -0.609   0.562  -2.642  0.00  0.00     0.062 H 
ENDROOT
BRANCH   1   6
ATOM      6  C3  <0> d           0.008  -0.818  -1.135  0.00  0.00    -0.002 A 
ATOM      7  C2  <0> d           0.002  -0.004   0.002  0.00  0.00     0.059 A 
ATOM      8  N2  <0> d           0.023  -0.777   1.058  0.00  0.00    -0.178 NA
ATOM      9  N1  <0> d           0.034  -2.109   0.625  0.00  0.00    -0.284 N 
ATOM     10  C4  <0> d           0.028  -2.107  -0.725  0.00  0.00     0.007 A 
ATOM     11  H4  <0> d           0.037  -2.978  -1.363  0.00  0.00     0.115 H 
BRANCH   7  12
ATOM     12  C1  <0> d          -0.018   1.503   0.010  0.00  0.00    -0.033 C 
ATOM     13  H1  <0> d           1.004   1.880   0.003  0.00  0.00     0.035 H 
ATOM     14  H2  <0> d          -0.545   1.864  -0.873  0.00  0.00     0.035 H 
ATOM     15  H3  <0> d          -0.529   1.854   0.907  0.00  0.00     0.035 H 
ENDBRANCH   7  12
BRANCH   9  16
ATOM     16  C5  <0> d           0.055  -3.295   1.485  0.00  0.00     0.002 C 
ATOM     17  H5  <0> d           1.087  -3.575   1.693  0.00  0.00     0.059 H 
ATOM     18  H6  <0> d          -0.458  -3.073   2.421  0.00  0.00     0.059 H 
ATOM     19  H7  <0> d          -0.450  -4.119   0.980  0.00  0.00     0.059 H 
ENDBRANCH   9  16
ENDBRANCH   1   6
TORSDOF 3
