REMARK  6 active torsions:
REMARK  status: ('A' for Active; 'I' for Inactive)
REMARK    1  A    between atoms: C1_1  and  C2_2 
REMARK    2  A    between atoms: C2_2  and  C3_3 
REMARK    3  A    between atoms: C3_3  and  C4_4 
REMARK    4  A    between atoms: C4_4  and  C5_5 
REMARK       I    between atoms: C5_5  and  N1_7 
REMARK    5  A    between atoms: N1_7  and  C6_8 
REMARK    6  A    between atoms: N1_7  and  C7_9 
ROOT
ATOM      1  C4  <0> d          -1.413  -2.063   0.004  0.00  0.00     0.009 C 
ATOM      2  H8  <0> d          -0.902  -2.415  -0.892  0.00  0.00     0.047 H 
ATOM      3  H9  <0> d          -0.885  -2.425   0.887  0.00  0.00     0.047 H 
ENDROOT
BRANCH   1   4
ATOM      4  C3  <0> d          -1.433  -0.534   0.013  0.00  0.00    -0.058 C 
ATOM      5  H6  <0> d          -1.944  -0.182   0.910  0.00  0.00     0.033 H 
ATOM      6  H7  <0> d          -1.960  -0.173  -0.870  0.00  0.00     0.033 H 
BRANCH   4   7
ATOM      7  C2  <0> d           0.002  -0.004   0.002  0.00  0.00    -0.068 C 
ATOM      8  H4  <0> d           0.512  -0.356  -0.895  0.00  0.00     0.032 H 
ATOM      9  H5  <0> d           0.529  -0.365   0.885  0.00  0.00     0.032 H 
BRANCH   7  10
ATOM     10  C1  <0> d          -0.019   1.526   0.010  0.00  0.00    -0.077 C 
ATOM     11  H1  <0> d           1.004   1.903   0.003  0.00  0.00     0.027 H 
ATOM     12  H2  <0> d          -0.546   1.887  -0.873  0.00  0.00     0.027 H 
ATOM     13  H3  <0> d          -0.529   1.877   0.907  0.00  0.00     0.027 H 
ENDBRANCH   7  10
ENDBRANCH   4   7
ENDBRANCH   1   4
BRANCH   1  14
ATOM     14  C5  <0> d          -2.826  -2.585   0.015  0.00  0.00     0.218 C 
ATOM     15  O1  <0> d          -3.759  -1.810   0.028  0.00  0.00    -0.273 OA
ATOM     16  N1  <0> d          -3.055  -3.913   0.010  0.00  0.00    -0.361 N 
BRANCH  16  17
ATOM     17  C6  <0> d          -4.429  -4.420   0.021  0.00  0.00    -0.017 C 
ATOM     18  H10 <0> d          -4.780  -4.541  -1.004  0.00  0.00     0.056 H 
ATOM     19  H11 <0> d          -4.457  -5.384   0.530  0.00  0.00     0.056 H 
ATOM     20  H12 <0> d          -5.073  -3.714   0.544  0.00  0.00     0.056 H 
ENDBRANCH  16  17
BRANCH  16  21
ATOM     21  C7  <0> d          -1.928  -4.850  -0.006  0.00  0.00    -0.017 C 
ATOM     22  H13 <0> d          -1.639  -5.088   1.018  0.00  0.00     0.056 H 
ATOM     23  H14 <0> d          -2.223  -5.764  -0.521  0.00  0.00     0.056 H 
ATOM     24  H15 <0> d          -1.085  -4.395  -0.525  0.00  0.00     0.056 H 
ENDBRANCH  16  21
ENDBRANCH   1  14
TORSDOF 6
