REMARK  0 active torsions:
REMARK  status: ('A' for Active; 'I' for Inactive)
ROOT
ATOM      1  C1  <0> d          -1.224   2.034   0.019  0.00  0.00    -0.019 A 
ATOM      2  C2  <0> d          -0.016   1.347   0.009  0.00  0.00     0.135 A 
ATOM      3  C3  <0> d           1.167   2.063   0.002  0.00  0.00     0.042 A 
ATOM      4  N1  <0> d           1.158   3.382   0.010  0.00  0.00    -0.228 NA
ATOM      5  C4  <0> d           0.031   4.069   0.024  0.00  0.00     0.231 A 
ATOM      6  C5  <0> d          -1.194   3.419   0.032  0.00  0.00     0.095 A 
ATOM      7 Cl1  <0> d          -2.672   4.330   0.053  0.00  0.00    -0.079 Cl
ATOM      8  F1  <0> d           0.071   5.419   0.032  0.00  0.00    -0.182 F 
ATOM      9  F2  <0> d           0.002  -0.004   0.002  0.00  0.00    -0.205 F 
ATOM     10  H1  <0> d          -2.163   1.500   0.020  0.00  0.00     0.091 H 
ATOM     11  H2  <0> d           2.110   1.536  -0.010  0.00  0.00     0.119 H 
ENDROOT
TORSDOF 0
