REMARK  0 active torsions:
REMARK  status: ('A' for Active; 'I' for Inactive)
ROOT
ATOM      1  C1  <0> d          -0.019   1.570   0.011  0.00  0.00    -0.050 C 
ATOM      2  C2  <0> d           1.571   1.651  -0.004  0.00  0.00    -0.024 C 
ATOM      3  H1  <0> d           1.995   2.651   0.089  0.00  0.00     0.047 H 
ATOM      4  C3  <0> d           1.835   0.746   1.185  0.00  0.00    -0.101 C 
ATOM      5  C4  <0> d           0.903  -0.190   1.273  0.00  0.00    -0.100 C 
ATOM      6  C5  <0> d           0.002  -0.004   0.002  0.00  0.00    -0.017 C 
ATOM      7  H2  <0> d          -0.957  -0.522  -0.034  0.00  0.00     0.049 H 
ATOM      8  C6  <0> d           1.082  -0.374  -1.048  0.00  0.00     0.031 C 
ATOM      9  H3  <0> d           1.781  -1.134  -0.700  0.00  0.00     0.074 H 
ATOM     10  C7  <0> d           1.746   1.033  -1.335  0.00  0.00     0.050 C 
ATOM     11  H4  <0> d           1.331   1.814  -1.973  0.00  0.00     0.059 H 
ATOM     12  C8  <0> d           2.205   0.100  -2.299  0.00  0.00     0.224 C 
ATOM     13  O1  <0> d           3.284  -0.179  -2.776  0.00  0.00    -0.273 OA
ATOM     14  N1  <0> d           0.917  -0.340  -2.471  0.00  0.00    -0.355 N 
ATOM     15  H5  <0> d          -0.454   1.981   0.922  0.00  0.00     0.035 H 
ATOM     16  H6  <0> d          -0.471   1.990  -0.888  0.00  0.00     0.035 H 
ATOM     17  H7  <0> d           2.668   0.850   1.865  0.00  0.00     0.077 H 
ATOM     18  H8  <0> d           0.791  -0.928   2.053  0.00  0.00     0.077 H 
ATOM     19  H9  <0> d           0.266  -0.523  -3.166  0.00  0.00     0.162 HD
ENDROOT
TORSDOF 0
