REMARK  3 active torsions:
REMARK  status: ('A' for Active; 'I' for Inactive)
REMARK    1  A    between atoms: C1_1  and  C3_4 
REMARK    2  A    between atoms: C3_4  and  C4_6 
REMARK    3  A    between atoms: C3_4  and  O1_10 
ROOT
ATOM      1  C1  <0> d          -0.013   1.086   0.008  0.00  0.00     0.047 C 
ATOM      2  C2  <0> d          -0.725   1.573  -1.185  0.00  0.00     0.061 C 
ATOM      3  N1  <0> d          -1.274   1.950  -2.105  0.00  0.00    -0.197 NA
ATOM      4  H2  <0> d           0.002  -0.014   0.002  0.00  0.00     0.059 H 
ATOM      5  H3  <0> d           1.019   1.466   0.000  0.00  0.00     0.059 H 
ENDROOT
BRANCH   1   6
ATOM      6  C3  <0> d          -0.729   1.579   1.267  0.00  0.00     0.140 C 
ATOM      7  H1  <0> d          -1.802   1.342   1.234  0.00  0.00     0.098 H 
BRANCH   6   8
ATOM      8  C4  <0> d          -0.064   0.971   2.503  0.00  0.00     0.413 C 
ATOM      9  F1  <0> d           1.280   1.359   2.549  0.00  0.00    -0.168 F 
ATOM     10  F2  <0> d          -0.719   1.423   3.654  0.00  0.00    -0.168 F 
ATOM     11  F3  <0> d          -0.144  -0.424   2.438  0.00  0.00    -0.168 F 
ENDBRANCH   6   8
BRANCH   6  12
ATOM     12  O1  <0> d          -0.647   3.004   1.334  0.00  0.00    -0.386 OA
ATOM     13  H4  <0> d          -1.107   3.543   2.175  0.00  0.00     0.210 HD
ENDBRANCH   6  12
ENDBRANCH   1   6
TORSDOF 3
