REMARK  2 active torsions:
REMARK  status: ('A' for Active; 'I' for Inactive)
REMARK    1  A    between atoms: C1_1  and  N1_2 
REMARK    2  A    between atoms: N1_2  and  C2_3 
ROOT
ATOM      1  C2  <0> d          -1.192  -0.716   0.010  0.00  0.00     0.163 A 
ATOM      2  C3  <0> d          -1.176  -2.111   0.008  0.00  0.00     0.171 A 
ATOM      3  N2  <0> d          -2.313  -2.781   0.015  0.00  0.00    -0.244 NA
ATOM      4  C4  <0> d          -3.466  -2.132   0.025  0.00  0.00     0.021 A 
ATOM      5  C5  <0> d          -3.485  -0.751   0.026  0.00  0.00     0.021 A 
ATOM      6  N3  <0> d          -2.351  -0.070   0.024  0.00  0.00    -0.239 NA
ATOM      7 Cl1  <0> d           0.336  -2.963  -0.005  0.00  0.00    -0.058 Cl
ATOM      8  H5  <0> d          -4.394  -2.683   0.031  0.00  0.00     0.117 H 
ATOM      9  H6  <0> d          -4.429  -0.225   0.033  0.00  0.00     0.117 H 
ENDROOT
BRANCH   1  10
ATOM     10  N1  <0> d           0.002  -0.004   0.002  0.00  0.00    -0.377 N 
ATOM     11  H4  <0> d           0.849  -0.478  -0.009  0.00  0.00     0.160 HD
BRANCH  10  12
ATOM     12  C1  <0> d          -0.018   1.461   0.010  0.00  0.00    -0.019 C 
ATOM     13  H1  <0> d           1.005   1.838   0.002  0.00  0.00     0.056 H 
ATOM     14  H2  <0> d          -0.545   1.822  -0.873  0.00  0.00     0.056 H 
ATOM     15  H3  <0> d          -0.528   1.812   0.907  0.00  0.00     0.056 H 
ENDBRANCH  10  12
ENDBRANCH   1  10
TORSDOF 2
