REMARK  6 active torsions:
REMARK  status: ('A' for Active; 'I' for Inactive)
REMARK    1  A    between atoms: C1_1  and  O1_2 
REMARK    2  A    between atoms: O1_2  and  C2_3 
REMARK    3  A    between atoms: C2_3  and  C3_5 
REMARK    4  A    between atoms: C3_5  and  C4_6 
REMARK    5  A    between atoms: C4_6  and  C5_7 
REMARK    6  A    between atoms: C5_7  and  C6_8 
ROOT
ATOM      1  C6  <0> d           0.002  -0.004   0.002  0.00  0.00    -0.117 C 
ATOM      2  C7  <0> d           0.018  -1.178  -0.004  0.00  0.00    -0.154 C 
ATOM      3  H10 <0> d           0.032  -2.228  -0.010  0.00  0.00     0.166 H 
ENDROOT
BRANCH   1   4
ATOM      4  C5  <0> d          -0.018   1.468   0.010  0.00  0.00    -0.010 C 
ATOM      5  H8  <0> d           1.005   1.845   0.002  0.00  0.00     0.051 H 
ATOM      6  H9  <0> d          -0.545   1.829  -0.873  0.00  0.00     0.051 H 
BRANCH   4   7
ATOM      7  C4  <0> d          -0.734   1.961   1.269  0.00  0.00    -0.047 C 
ATOM      8  H6  <0> d          -1.757   1.584   1.277  0.00  0.00     0.035 H 
ATOM      9  H7  <0> d          -0.207   1.600   2.152  0.00  0.00     0.035 H 
BRANCH   7  10
ATOM     10  C3  <0> d          -0.755   3.491   1.277  0.00  0.00     0.017 C 
ATOM     11  H4  <0> d           0.268   3.868   1.270  0.00  0.00     0.048 H 
ATOM     12  H5  <0> d          -1.282   3.852   0.394  0.00  0.00     0.048 H 
BRANCH  10  13
ATOM     13  C2  <0> d          -1.460   3.977   2.517  0.00  0.00     0.258 C 
ATOM     14  O2  <0> d          -1.901   3.181   3.312  0.00  0.00    -0.265 OA
BRANCH  13  15
ATOM     15  O1  <0> d          -1.599   5.294   2.738  0.00  0.00    -0.326 OA
BRANCH  15  16
ATOM     16  C1  <0> d          -2.289   5.689   3.953  0.00  0.00     0.013 C 
ATOM     17  H1  <0> d          -3.301   5.286   3.943  0.00  0.00     0.067 H 
ATOM     18  H2  <0> d          -1.752   5.302   4.818  0.00  0.00     0.067 H 
ATOM     19  H3  <0> d          -2.332   6.777   4.008  0.00  0.00     0.067 H 
ENDBRANCH  15  16
ENDBRANCH  13  15
ENDBRANCH  10  13
ENDBRANCH   7  10
ENDBRANCH   4   7
ENDBRANCH   1   4
TORSDOF 6
