REMARK  3 active torsions:
REMARK  status: ('A' for Active; 'I' for Inactive)
REMARK    1  A    between atoms: C1_1  and  C2_2 
REMARK    2  A    between atoms: C4_4  and  O2_11 
REMARK    3  A    between atoms: C7_7  and  O1_8 
ROOT
ATOM      1  C2  <0> d           0.002  -0.004   0.002  0.00  0.00    -0.026 A 
ATOM      2  C3  <0> d           1.204  -0.685  -0.014  0.00  0.00    -0.041 A 
ATOM      3  C4  <0> d           2.400   0.013  -0.021  0.00  0.00     0.087 A 
ATOM      4  C5  <0> d           2.389   1.415  -0.013  0.00  0.00     0.080 A 
ATOM      5  C6  <0> d           1.169   2.096   0.002  0.00  0.00    -0.028 A 
ATOM      6  C7  <0> d          -0.017   1.385   0.010  0.00  0.00     0.073 A 
ATOM      7  C8  <0> d           3.621   2.145  -0.021  0.00  0.00     0.102 C 
ATOM      8  N1  <0> d           4.598   2.724  -0.027  0.00  0.00    -0.191 NA
ATOM      9  H4  <0> d           1.210  -1.765  -0.019  0.00  0.00     0.088 H 
ATOM     10  H5  <0> d           1.153   3.176   0.008  0.00  0.00     0.090 H 
ENDROOT
BRANCH   3  11
ATOM     11  O2  <0> d           3.580  -0.658  -0.036  0.00  0.00    -0.359 OA
ATOM     12  H7  <0> d           3.914  -0.847  -0.924  0.00  0.00     0.217 HD
ENDBRANCH   3  11
BRANCH   6  13
ATOM     13  O1  <0> d          -1.205   2.047   0.019  0.00  0.00    -0.360 OA
ATOM     14  H6  <0> d          -1.544   2.233   0.905  0.00  0.00     0.217 HD
ENDBRANCH   6  13
BRANCH   1  15
ATOM     15  C1  <0> d          -1.295  -0.771   0.010  0.00  0.00    -0.049 C 
ATOM     16  H1  <0> d          -1.617  -0.951  -1.015  0.00  0.00     0.033 H 
ATOM     17  H2  <0> d          -1.149  -1.725   0.518  0.00  0.00     0.033 H 
ATOM     18  H3  <0> d          -2.056  -0.193   0.535  0.00  0.00     0.033 H 
ENDBRANCH   1  15
TORSDOF 3
