REMARK  4 active torsions:
REMARK  status: ('A' for Active; 'I' for Inactive)
REMARK    1  A    between atoms: C2_2  and  C3_3 
REMARK    2  A    between atoms: C3_3  and  C4_4 
REMARK    3  A    between atoms: C4_4  and  C5_6 
REMARK    4  A    between atoms: C4_4  and  O1_12 
ROOT
ATOM      1  C4  <0> d           1.370  -1.717   1.161  0.00  0.00     0.064 C 
ATOM      2  H1  <0> d           1.185  -1.178   2.091  0.00  0.00     0.091 H 
ENDROOT
BRANCH   1   3
ATOM      3  C3  <0> d           1.317  -0.740  -0.015  0.00  0.00    -0.023 C 
ATOM      4  H5  <0> d           1.413  -1.291  -0.950  0.00  0.00     0.043 H 
ATOM      5  H6  <0> d           2.135  -0.024   0.071  0.00  0.00     0.043 H 
BRANCH   3   6
ATOM      6  C2  <0> d           0.002  -0.004   0.002  0.00  0.00    -0.109 C 
ATOM      7  C1  <0> d          -0.016   1.306   0.009  0.00  0.00    -0.125 C 
ATOM      8  H2  <0> d           0.912   1.859   0.003  0.00  0.00     0.066 H 
ATOM      9  H3  <0> d          -0.958   1.833   0.017  0.00  0.00     0.066 H 
ATOM     10  H4  <0> d          -0.926  -0.557   0.008  0.00  0.00     0.075 H 
ENDBRANCH   3   6
ENDBRANCH   1   3
BRANCH   1  11
ATOM     11  C5  <0> d           2.730  -2.363   1.218  0.00  0.00    -0.029 A 
ATOM     12  C10 <0> d           3.677  -1.903   2.113  0.00  0.00    -0.074 A 
ATOM     13  C9  <0> d           4.924  -2.498   2.167  0.00  0.00    -0.082 A 
ATOM     14  H11 <0> d           3.443  -1.080   2.772  0.00  0.00     0.084 H 
ATOM     15  C8  <0> d           5.226  -3.548   1.320  0.00  0.00    -0.083 A 
ATOM     16  H10 <0> d           5.662  -2.141   2.869  0.00  0.00     0.083 H 
ATOM     17  C7  <0> d           4.280  -4.005   0.421  0.00  0.00    -0.082 A 
ATOM     18  H9  <0> d           6.201  -4.011   1.361  0.00  0.00     0.083 H 
ATOM     19  C6  <0> d           3.032  -3.412   0.370  0.00  0.00    -0.074 A 
ATOM     20  H8  <0> d           4.516  -4.825  -0.241  0.00  0.00     0.083 H 
ATOM     21  H7  <0> d           2.294  -3.769  -0.332  0.00  0.00     0.084 H 
ENDBRANCH   1  11
BRANCH   1  22
ATOM     22  O1  <0> d           0.371  -2.724   0.989  0.00  0.00    -0.391 OA
ATOM     23  H12 <0> d           0.473  -3.245   0.180  0.00  0.00     0.210 HD
ENDBRANCH   1  22
TORSDOF 4
