REMARK  0 active torsions:
REMARK  status: ('A' for Active; 'I' for Inactive)
ROOT
ATOM      1  C1  <0> d          -1.242   3.785   0.034  0.00  0.00    -0.041 A 
ATOM      2  C2  <0> d          -1.234   2.399   0.021  0.00  0.00    -0.041 A 
ATOM      3  C3  <0> d          -0.021   1.732   0.012  0.00  0.00     0.125 A 
ATOM      4  N1  <0> d           1.117   2.399   0.004  0.00  0.00    -0.246 NA
ATOM      5  C4  <0> d           1.148   3.718   0.011  0.00  0.00     0.041 A 
ATOM      6  C5  <0> d          -0.025   4.453   0.026  0.00  0.00     0.134 A 
ATOM      7  F1  <0> d           0.015   5.803   0.033  0.00  0.00    -0.205 F 
ATOM      8 Cl1  <0> d           0.002  -0.004   0.002  0.00  0.00    -0.062 Cl
ATOM      9  H1  <0> d          -2.173   4.332   0.046  0.00  0.00     0.088 H 
ATOM     10  H2  <0> d          -2.162   1.846   0.023  0.00  0.00     0.088 H 
ATOM     11  H3  <0> d           2.099   4.229   0.004  0.00  0.00     0.119 H 
ENDROOT
TORSDOF 0
