REMARK  5 active torsions:
REMARK  status: ('A' for Active; 'I' for Inactive)
REMARK    1  A    between atoms: C1_1  and  C2_2 
REMARK    2  A    between atoms: C2_2  and  O1_3 
REMARK    3  A    between atoms: O1_3  and  C3_4 
REMARK    4  A    between atoms: C3_4  and  C4_6 
REMARK    5  A    between atoms: C4_6  and  N1_7 
ROOT
ATOM      1  O1  <0> d           0.693  -0.477   1.160  0.00  0.00    -0.321 OA
ENDROOT
BRANCH   1   2
ATOM      2  C2  <0> d           0.002  -0.004   0.002  0.00  0.00     0.025 C 
ATOM      3  H4  <0> d          -1.020  -0.381   0.010  0.00  0.00     0.074 H 
ATOM      4  H5  <0> d           0.512  -0.356  -0.895  0.00  0.00     0.074 H 
BRANCH   2   5
ATOM      5  C1  <0> d          -0.019   1.526   0.010  0.00  0.00    -0.056 C 
ATOM      6  H1  <0> d           1.004   1.903   0.003  0.00  0.00     0.030 H 
ATOM      7  H2  <0> d          -0.546   1.887  -0.873  0.00  0.00     0.030 H 
ATOM      8  H3  <0> d          -0.529   1.877   0.907  0.00  0.00     0.030 H 
ENDBRANCH   2   5
ENDBRANCH   1   2
BRANCH   1   9
ATOM      9  C3  <0> d           0.801  -1.808   1.304  0.00  0.00     0.286 C 
ATOM     10  O2  <0> d           0.324  -2.546   0.475  0.00  0.00    -0.263 OA
BRANCH   9  11
ATOM     11  C4  <0> d           1.516  -2.381   2.500  0.00  0.00     0.188 C 
ATOM     12  H6  <0> d           2.548  -2.031   2.508  0.00  0.00     0.094 H 
ATOM     13  H7  <0> d           1.016  -2.056   3.413  0.00  0.00     0.094 H 
BRANCH  11  14
ATOM     14  N1  <0> d           1.497  -3.848   2.426  0.00  0.00     0.087 N 
ATOM     15  H8  <0> d           1.898  -4.171   1.558  0.00  0.00     0.313 HD
ATOM     16  H9  <0> d           1.971  -4.256   3.217  0.00  0.00     0.313 HD
ENDBRANCH  11  14
ENDBRANCH   9  11
ENDBRANCH   1   9
TORSDOF 5
