REMARK  2 active torsions:
REMARK  status: ('A' for Active; 'I' for Inactive)
REMARK    1  A    between atoms: C3_3  and  C9_10 
REMARK    2  A    between atoms: C6_6  and  C7_7 
ROOT
ATOM      1  C7  <0> d          -0.013   1.086   0.008  0.00  0.00     0.038 C 
ATOM      2  C8  <0> d          -0.725   1.573  -1.185  0.00  0.00     0.063 C 
ATOM      3  N1  <0> d          -1.274   1.950  -2.105  0.00  0.00    -0.197 NA
ATOM      4  H5  <0> d           0.002  -0.004   0.002  0.00  0.00     0.062 H 
ATOM      5  H6  <0> d           1.010   1.463   0.000  0.00  0.00     0.062 H 
ENDROOT
BRANCH   1   6
ATOM      6  C6  <0> d          -0.718   1.572   1.248  0.00  0.00    -0.045 A 
ATOM      7  C1  <0> d          -0.360   2.779   1.819  0.00  0.00    -0.075 A 
ATOM      8  C2  <0> d          -1.010   3.227   2.954  0.00  0.00    -0.076 A 
ATOM      9  H1  <0> d           0.425   3.373   1.376  0.00  0.00     0.084 H 
ATOM     10  C3  <0> d          -2.012   2.463   3.523  0.00  0.00    -0.054 A 
ATOM     11  H2  <0> d          -0.732   4.171   3.398  0.00  0.00     0.084 H 
ATOM     12  C4  <0> d          -2.366   1.254   2.955  0.00  0.00    -0.076 A 
ATOM     13  C5  <0> d          -1.719   0.808   1.818  0.00  0.00    -0.075 A 
ATOM     14  H3  <0> d          -3.149   0.657   3.400  0.00  0.00     0.084 H 
ATOM     15  H4  <0> d          -1.996  -0.137   1.374  0.00  0.00     0.084 H 
BRANCH  10  16
ATOM     16  C9  <0> d          -2.717   2.949   4.763  0.00  0.00    -0.029 A 
ATOM     17  C11 <0> d          -1.865   3.190   6.011  0.00  0.00    -0.057 A 
ATOM     18  C10 <0> d          -2.427   4.378   5.226  0.00  0.00    -0.057 A 
ATOM     19  H10 <0> d          -2.316   2.968   6.979  0.00  0.00     0.034 H 
ATOM     20  H11 <0> d          -0.795   2.997   5.935  0.00  0.00     0.034 H 
ATOM     21  H8  <0> d          -1.727   4.967   4.634  0.00  0.00     0.034 H 
ATOM     22  H9  <0> d          -3.247   4.937   5.678  0.00  0.00     0.034 H 
ATOM     23  H7  <0> d          -3.727   2.567   4.909  0.00  0.00     0.047 H 
ENDBRANCH  10  16
ENDBRANCH   1   6
TORSDOF 2
