REMARK  7 active torsions:
REMARK  status: ('A' for Active; 'I' for Inactive)
REMARK    1  A    between atoms: C1_1  and  C2_2 
REMARK    2  A    between atoms: C2_2  and  C3_4 
REMARK    3  A    between atoms: C2_2  and  O1_6 
REMARK    4  A    between atoms: O1_6  and  C5_7 
REMARK    5  A    between atoms: C5_7  and  C6_8 
REMARK    6  A    between atoms: C5_7  and  C7_9 
REMARK    7  A    between atoms: C5_7  and  C8_10 
ROOT
ATOM      1  C3  <0> d          -3.636  -0.528   1.807  0.00  0.00    -0.086 C 
ATOM      2  C4  <0> d          -4.702  -0.765   2.238  0.00  0.00    -0.151 C 
ATOM      3  H5  <0> d          -5.655  -0.976   2.624  0.00  0.00     0.166 H 
ENDROOT
BRANCH   1   4
ATOM      4  C2  <0> d          -2.299  -0.232   1.266  0.00  0.00     0.093 C 
ATOM      5  H1  <0> d          -1.540  -0.681   1.906  0.00  0.00     0.103 H 
BRANCH   4   6
ATOM      6  C1  <0> d          -2.181  -0.808  -0.147  0.00  0.00    -0.042 C 
ATOM      7  H2  <0> d          -1.224  -0.517  -0.580  0.00  0.00     0.032 H 
ATOM      8  H3  <0> d          -2.244  -1.896  -0.102  0.00  0.00     0.032 H 
ATOM      9  H4  <0> d          -2.992  -0.423  -0.765  0.00  0.00     0.032 H 
ENDBRANCH   4   6
BRANCH   4  10
ATOM     10  O1  <0> d          -2.107   1.184   1.220  0.00  0.00    -0.364 OA
BRANCH  10  11
ATOM     11  C5  <0> d          -0.838   1.614   1.715  0.00  0.00     0.051 C 
BRANCH  11  12
ATOM     12  C6  <0> d           0.278   0.892   0.957  0.00  0.00    -0.048 C 
ATOM     13  H6  <0> d           0.201  -0.181   1.132  0.00  0.00     0.031 H 
ATOM     14  H7  <0> d           1.246   1.249   1.308  0.00  0.00     0.031 H 
ATOM     15  H8  <0> d           0.181   1.094  -0.110  0.00  0.00     0.031 H 
ENDBRANCH  11  12
BRANCH  11  16
ATOM     16  C7  <0> d          -0.735   1.287   3.207  0.00  0.00    -0.048 C 
ATOM     17  H9  <0> d           0.233   1.615   3.584  0.00  0.00     0.031 H 
ATOM     18  H10 <0> d          -1.530   1.801   3.747  0.00  0.00     0.031 H 
ATOM     19  H11 <0> d          -0.835   0.211   3.350  0.00  0.00     0.031 H 
ENDBRANCH  11  16
BRANCH  11  20
ATOM     20  C8  <0> d          -0.697   3.124   1.514  0.00  0.00    -0.048 C 
ATOM     21  H12 <0> d          -0.770   3.357   0.451  0.00  0.00     0.031 H 
ATOM     22  H13 <0> d          -1.492   3.639   2.054  0.00  0.00     0.031 H 
ATOM     23  H14 <0> d           0.271   3.453   1.892  0.00  0.00     0.031 H 
ENDBRANCH  11  20
ENDBRANCH  10  11
ENDBRANCH   4  10
ENDBRANCH   1   4
TORSDOF 7
