REMARK  2 active torsions:
REMARK  status: ('A' for Active; 'I' for Inactive)
REMARK    1  A    between atoms: C1_1  and  C2_2 
REMARK    2  A    between atoms: N2_9  and  C5_11 
ROOT
ATOM      1  C2  <0> d          -0.141   3.948   0.025  0.00  0.00     0.119 A 
ATOM      2  C3  <0> d           1.142   3.240   0.009  0.00  0.00     0.275 A 
ATOM      3  O1  <0> d           2.189   3.860   0.002  0.00  0.00    -0.266 OA
ATOM      4  N1  <0> d           1.148   1.891   0.001  0.00  0.00    -0.272 N 
ATOM      5  H1  <0> d           1.990   1.409  -0.010  0.00  0.00     0.173 HD
ATOM      6  C4  <0> d          -0.014   1.212   0.009  0.00  0.00     0.345 A 
ATOM      7  O2  <0> d           0.002  -0.004   0.002  0.00  0.00    -0.245 OA
ATOM      8  N2  <0> d          -1.194   1.858   0.018  0.00  0.00    -0.224 N 
ATOM      9  N3  <0> d          -1.246   3.257   0.031  0.00  0.00    -0.168 NA
ENDROOT
BRANCH   1  10
ATOM     10  C1  <0> d          -0.181   5.455   0.034  0.00  0.00    -0.029 C 
ATOM     11  H2  <0> d          -0.201   5.824  -0.992  0.00  0.00     0.036 H 
ATOM     12  H3  <0> d          -1.076   5.791   0.558  0.00  0.00     0.036 H 
ATOM     13  H4  <0> d           0.703   5.839   0.541  0.00  0.00     0.036 H 
ENDBRANCH   1  10
BRANCH   8  14
ATOM     14  C5  <0> d          -2.440   1.088   0.019  0.00  0.00     0.007 C 
ATOM     15  H5  <0> d          -2.744   0.891   1.047  0.00  0.00     0.059 H 
ATOM     16  H6  <0> d          -3.219   1.657  -0.488  0.00  0.00     0.059 H 
ATOM     17  H7  <0> d          -2.284   0.143  -0.501  0.00  0.00     0.059 H 
ENDBRANCH   8  14
TORSDOF 2
