REMARK  2 active torsions:
REMARK  status: ('A' for Active; 'I' for Inactive)
REMARK    1  A    between atoms: C1_1  and  S1_2 
REMARK    2  A    between atoms: S1_2  and  C2_3 
ROOT
ATOM      1  C2  <0> d          -1.702  -0.454   0.016  0.00  0.00    -0.000 A 
ATOM      2  C3  <0> d          -2.682   0.531   0.036  0.00  0.00    -0.067 A 
ATOM      3  C4  <0> d          -4.016   0.175   0.040  0.00  0.00    -0.082 A 
ATOM      4  C5  <0> d          -4.377  -1.159   0.037  0.00  0.00    -0.083 A 
ATOM      5  C6  <0> d          -3.404  -2.143   0.023  0.00  0.00    -0.082 A 
ATOM      6  C7  <0> d          -2.068  -1.794   0.012  0.00  0.00    -0.067 A 
ATOM      7  H4  <0> d          -2.400   1.574   0.044  0.00  0.00     0.085 H 
ATOM      8  H5  <0> d          -4.778   0.941   0.051  0.00  0.00     0.083 H 
ATOM      9  H6  <0> d          -5.421  -1.435   0.045  0.00  0.00     0.083 H 
ATOM     10  H7  <0> d          -3.690  -3.184   0.020  0.00  0.00     0.083 H 
ATOM     11  H8  <0> d          -1.309  -2.562   0.001  0.00  0.00     0.085 H 
ENDROOT
BRANCH   1  12
ATOM     12  S1  <0> d           0.002  -0.004   0.002  0.00  0.00    -0.134 SA
BRANCH  12  13
ATOM     13  C1  <0> d          -0.022   1.810   0.012  0.00  0.00    -0.030 C 
ATOM     14  H1  <0> d           1.000   2.187   0.004  0.00  0.00     0.042 H 
ATOM     15  H2  <0> d          -0.550   2.171  -0.871  0.00  0.00     0.042 H 
ATOM     16  H3  <0> d          -0.533   2.161   0.909  0.00  0.00     0.042 H 
ENDBRANCH  12  13
ENDBRANCH   1  12
TORSDOF 2
