REMARK  4 active torsions:
REMARK  status: ('A' for Active; 'I' for Inactive)
REMARK    1  A    between atoms: C1_1  and  O1_2 
REMARK    2  A    between atoms: O1_2  and  C2_3 
REMARK    3  A    between atoms: C2_3  and  C3_5 
REMARK    4  A    between atoms: C3_5  and  C4_6 
ROOT
ATOM      1  C4  <0> d          -0.844   1.640  -1.177  0.00  0.00     0.047 C 
ATOM      2  H1  <0> d          -1.694   0.988  -1.380  0.00  0.00     0.084 H 
ATOM      3  C5  <0> d          -0.013   1.086   0.008  0.00  0.00    -0.038 C 
ATOM      4  C6  <0> d          -0.823   1.628   1.217  0.00  0.00    -0.043 C 
ATOM      5  C7  <0> d          -1.334   2.985   0.686  0.00  0.00     0.020 C 
ATOM      6  O3  <0> d          -1.297   2.933  -0.745  0.00  0.00    -0.385 OA
ATOM      7  H7  <0> d           0.002  -0.004   0.002  0.00  0.00     0.036 H 
ATOM      8  H8  <0> d           1.000   1.490   0.001  0.00  0.00     0.036 H 
ATOM      9  H9  <0> d          -1.656   0.966   1.454  0.00  0.00     0.036 H 
ATOM     10  H10 <0> d          -0.178   1.768   2.085  0.00  0.00     0.036 H 
ATOM     11  H11 <0> d          -0.688   3.788   1.043  0.00  0.00     0.074 H 
ATOM     12  H12 <0> d          -2.356   3.155   1.024  0.00  0.00     0.074 H 
ENDROOT
BRANCH   1  13
ATOM     13  C3  <0> d           0.032   1.773  -2.424  0.00  0.00     0.040 C 
ATOM     14  H5  <0> d           0.804   2.522  -2.247  0.00  0.00     0.051 H 
ATOM     15  H6  <0> d           0.501   0.814  -2.643  0.00  0.00     0.051 H 
BRANCH  13  16
ATOM     16  C2  <0> d          -0.819   2.195  -3.593  0.00  0.00     0.260 C 
ATOM     17  O2  <0> d          -2.005   2.371  -3.445  0.00  0.00    -0.265 OA
BRANCH  16  18
ATOM     18  O1  <0> d          -0.260   2.376  -4.800  0.00  0.00    -0.326 OA
BRANCH  18  19
ATOM     19  C1  <0> d          -1.141   2.782  -5.880  0.00  0.00     0.013 C 
ATOM     20  H2  <0> d          -1.912   2.025  -6.025  0.00  0.00     0.067 H 
ATOM     21  H3  <0> d          -1.609   3.734  -5.629  0.00  0.00     0.067 H 
ATOM     22  H4  <0> d          -0.563   2.892  -6.798  0.00  0.00     0.067 H 
ENDBRANCH  18  19
ENDBRANCH  16  18
ENDBRANCH  13  16
ENDBRANCH   1  13
TORSDOF 4
