REMARK  4 active torsions:
REMARK  status: ('A' for Active; 'I' for Inactive)
REMARK    1  A    between atoms: C1_1  and  C2_2 
REMARK    2  A    between atoms: C1_1  and  C4_5 
REMARK    3  A    between atoms: C5_6  and  C6_7 
REMARK    4  A    between atoms: C6_7  and  C7_8 
ROOT
ATOM      1  C2  <0> d          -1.366   3.006   1.206  0.00  0.00     0.018 C 
ATOM      2  C3  <0> d          -2.651   3.725   1.216  0.00  0.00     0.059 C 
ATOM      3  N1  <0> d          -3.643   4.279   1.224  0.00  0.00    -0.197 NA
ATOM      4  H3  <0> d          -1.256   2.439   2.143  0.00  0.00     0.055 H 
ATOM      5  H4  <0> d          -0.542   3.729   1.116  0.00  0.00     0.055 H 
ENDROOT
BRANCH   1   6
ATOM      6  C1  <0> d          -1.331   2.042   0.019  0.00  0.00    -0.039 C 
ATOM      7  H1  <0> d          -2.155   1.318   0.110  0.00  0.00     0.040 H 
ATOM      8  H2  <0> d          -1.441   2.608  -0.917  0.00  0.00     0.040 H 
BRANCH   6   9
ATOM      9  C4  <0> d          -0.016   1.306   0.009  0.00  0.00    -0.106 C 
ATOM     10  C5  <0> d           0.002  -0.004   0.002  0.00  0.00    -0.106 C 
ATOM     11  H6  <0> d          -0.943  -0.567   0.008  0.00  0.00     0.076 H 
ATOM     12  H5  <0> d           0.929   1.869   0.008  0.00  0.00     0.076 H 
BRANCH  10  13
ATOM     13  C6  <0> d           1.317  -0.740  -0.015  0.00  0.00    -0.039 C 
ATOM     14  H7  <0> d           1.414  -1.296  -0.958  0.00  0.00     0.040 H 
ATOM     15  H8  <0> d           2.142  -0.018   0.072  0.00  0.00     0.040 H 
BRANCH  13  16
ATOM     16  C7  <0> d           1.370  -1.717   1.161  0.00  0.00     0.018 C 
ATOM     17  C8  <0> d           2.654  -2.436   1.145  0.00  0.00     0.059 C 
ATOM     18  N2  <0> d           3.646  -2.990   1.133  0.00  0.00    -0.197 NA
ATOM     19  H9  <0> d           1.273  -1.161   2.105  0.00  0.00     0.055 H 
ATOM     20  H10 <0> d           0.544  -2.439   1.075  0.00  0.00     0.055 H 
ENDBRANCH  13  16
ENDBRANCH  10  13
ENDBRANCH   6   9
ENDBRANCH   1   6
TORSDOF 4
