REMARK  3 active torsions:
REMARK  status: ('A' for Active; 'I' for Inactive)
REMARK    1  A    between atoms: C1_1  and  C2_2 
REMARK    2  A    between atoms: N1_5  and  N5_10 
REMARK    3  A    between atoms: C4_6  and  N4_9 
ROOT
ATOM      1  C2  <0> d          -1.064  -2.121   0.097  0.00  0.00     0.123 A 
ATOM      2  C3  <0> d          -1.146  -0.712   0.108  0.00  0.00     0.303 A 
ATOM      3  O1  <0> d          -2.223  -0.148   0.213  0.00  0.00    -0.264 OA
ATOM      4  N1  <0> d           0.002  -0.004  -0.000  0.00  0.00    -0.068 N 
ATOM      5  C4  <0> d           1.176  -0.683  -0.120  0.00  0.00     0.736 A 
ATOM      6  N2  <0> d           1.188  -2.005  -0.119  0.00  0.00     0.043 NA
ATOM      7  N3  <0> d           0.110  -2.696  -0.018  0.00  0.00    -0.133 NA
ENDROOT
BRANCH   1   8
ATOM      8  C1  <0> d          -2.312  -2.957   0.215  0.00  0.00    -0.029 C 
ATOM      9  H1  <0> d          -2.712  -3.156  -0.779  0.00  0.00     0.036 H 
ATOM     10  H2  <0> d          -2.072  -3.901   0.706  0.00  0.00     0.036 H 
ATOM     11  H3  <0> d          -3.055  -2.420   0.805  0.00  0.00     0.036 H 
ENDBRANCH   1   8
BRANCH   4  12
ATOM     12  N5  <0> d          -0.017   1.362   0.005  0.00  0.00    -0.225 NA
ATOM     13  H6  <0> d           0.920   1.736   0.002  0.00  0.00     0.144 HD
ATOM     14  H7  <0> d          -0.552   1.719  -0.772  0.00  0.00     0.144 HD
ENDBRANCH   4  12
BRANCH   5  15
ATOM     15  N4  <0> d           2.351   0.007  -0.238  0.00  0.00    -0.230 N 
ATOM     16  H4  <0> d           2.356   0.974  -0.161  0.00  0.00     0.174 HD
ATOM     17  H5  <0> d           3.180  -0.470  -0.398  0.00  0.00     0.174 HD
ENDBRANCH   5  15
TORSDOF 3
