REMARK  1 active torsions:
REMARK  status: ('A' for Active; 'I' for Inactive)
REMARK    1  A    between atoms: C1_1  and  C2_2 
ROOT
ATOM      1  C2  <0> d          -1.225   1.742   0.017  0.00  0.00    -0.061 A 
ATOM      2  C3  <0> d          -0.013   1.076   0.008  0.00  0.00    -0.077 A 
ATOM      3  C4  <0> d           1.175   1.772   0.000  0.00  0.00    -0.075 A 
ATOM      4  C5  <0> d           1.194   3.169   0.012  0.00  0.00    -0.041 A 
ATOM      5  C6  <0> d          -0.036   3.820   0.035  0.00  0.00     0.007 A 
ATOM      6  C7  <0> d          -1.231   3.124   0.035  0.00  0.00    -0.060 A 
ATOM      7  S1  <0> d           0.314   5.564   0.070  0.00  0.00    -0.129 SA
ATOM      8  C8  <0> d           2.106   5.481   0.482  0.00  0.00    -0.015 C 
ATOM      9  C9  <0> d           2.418   4.052  -0.013  0.00  0.00    -0.032 C 
ATOM     10  H4  <0> d           0.002  -0.004   0.002  0.00  0.00     0.084 H 
ATOM     11  H5  <0> d           2.108   1.228  -0.015  0.00  0.00     0.084 H 
ATOM     12  H6  <0> d          -2.169   3.660   0.045  0.00  0.00     0.086 H 
ATOM     13  H7  <0> d           2.271   5.574   1.556  0.00  0.00     0.049 H 
ATOM     14  H8  <0> d           2.676   6.227  -0.070  0.00  0.00     0.049 H 
ATOM     15  H9  <0> d           3.185   3.614   0.625  0.00  0.00     0.041 H 
ATOM     16  H10 <0> d           2.795   4.106  -1.035  0.00  0.00     0.041 H 
ENDROOT
BRANCH   1  17
ATOM     17  C1  <0> d          -2.520   0.972   0.013  0.00  0.00    -0.051 C 
ATOM     18  H1  <0> d          -2.830   0.777   1.040  0.00  0.00     0.033 H 
ATOM     19  H2  <0> d          -3.288   1.556  -0.493  0.00  0.00     0.033 H 
ATOM     20  H3  <0> d          -2.379   0.027  -0.510  0.00  0.00     0.033 H 
ENDBRANCH   1  17
TORSDOF 1
