REMARK  2 active torsions:
REMARK  status: ('A' for Active; 'I' for Inactive)
REMARK    1  A    between atoms: C1_1  and  C2_2 
REMARK    2  A    between atoms: C5_6  and  C6_7 
REMARK       I    between atoms: C6_7  and  N1_9 
ROOT
ATOM      1  C2  <0> d           0.002  -0.004   0.002  0.00  0.00    -0.021 A 
ATOM      2  C3  <0> d           0.009  -0.836  -1.129  0.00  0.00    -0.053 A 
ATOM      3  C4  <0> d           0.029  -2.111  -0.684  0.00  0.00     0.020 A 
ATOM      4  O1  <0> d           0.035  -2.101   0.655  0.00  0.00    -0.317 OA
ATOM      5  C5  <0> d           0.024  -0.825   1.093  0.00  0.00     0.148 A 
ATOM      6  H4  <0> d          -0.000  -0.516  -2.160  0.00  0.00     0.087 H 
ATOM      7  H5  <0> d           0.038  -2.994  -1.306  0.00  0.00     0.123 H 
ENDROOT
BRANCH   5   8
ATOM      8  C6  <0> d           0.031  -0.395   2.495  0.00  0.00     0.273 C 
ATOM      9  O2  <0> d           0.018   0.791   2.768  0.00  0.00    -0.266 OA
ATOM     10  N1  <0> d           0.053  -1.313   3.482  0.00  0.00    -0.364 N 
ATOM     11  H6  <0> d           0.064  -2.258   3.264  0.00  0.00     0.159 HD
ATOM     12  H7  <0> d           0.058  -1.028   4.409  0.00  0.00     0.159 HD
ENDBRANCH   5   8
BRANCH   1  13
ATOM     13  C1  <0> d          -0.018   1.503   0.010  0.00  0.00    -0.048 C 
ATOM     14  H1  <0> d           1.004   1.880   0.003  0.00  0.00     0.033 H 
ATOM     15  H2  <0> d          -0.545   1.864  -0.873  0.00  0.00     0.033 H 
ATOM     16  H3  <0> d          -0.529   1.854   0.907  0.00  0.00     0.033 H 
ENDBRANCH   1  13
TORSDOF 2
