REMARK  5 active torsions:
REMARK  status: ('A' for Active; 'I' for Inactive)
REMARK    1  A    between atoms: C1_1  and  C2_2 
REMARK    2  A    between atoms: C2_2  and  N1_3 
REMARK       I    between atoms: N1_3  and  C3_4 
REMARK    3  A    between atoms: C3_4  and  O2_6 
REMARK    4  A    between atoms: O2_6  and  C4_7 
REMARK    5  A    between atoms: C4_7  and  C5_8 
ROOT
ATOM      1  N1  <0> d           1.143   1.901   0.001  0.00  0.00    -0.337 N 
ATOM      2  C3  <0> d          -0.014   1.211   0.009  0.00  0.00     0.360 C 
ATOM      3  O1  <0> d           0.002  -0.004   0.002  0.00  0.00    -0.239 OA
ATOM      4  H6  <0> d           1.130   2.870   0.007  0.00  0.00     0.164 HD
ENDROOT
BRANCH   2   5
ATOM      5  O2  <0> d          -1.189   1.868   0.018  0.00  0.00    -0.300 OA
BRANCH   5   6
ATOM      6  C4  <0> d          -2.396   1.061   0.019  0.00  0.00     0.045 C 
ATOM      7  H7  <0> d          -2.417   0.437  -0.874  0.00  0.00     0.081 H 
ATOM      8  H8  <0> d          -2.408   0.427   0.906  0.00  0.00     0.081 H 
BRANCH   6   9
ATOM      9  C5  <0> d          -3.604   1.963   0.030  0.00  0.00    -0.089 C 
ATOM     10  C6  <0> d          -4.612   1.716  -0.769  0.00  0.00    -0.123 C 
ATOM     11  H10 <0> d          -5.478   2.362  -0.761  0.00  0.00     0.066 H 
ATOM     12  H11 <0> d          -4.579   0.867  -1.435  0.00  0.00     0.066 H 
ATOM     13  H9  <0> d          -3.638   2.812   0.696  0.00  0.00     0.078 H 
ENDBRANCH   6   9
ENDBRANCH   5   6
ENDBRANCH   2   5
BRANCH   1  14
ATOM     14  C2  <0> d           2.422   1.185  -0.015  0.00  0.00    -0.006 C 
ATOM     15  H4  <0> d           2.497   0.555   0.871  0.00  0.00     0.063 H 
ATOM     16  H5  <0> d           2.480   0.564  -0.909  0.00  0.00     0.063 H 
BRANCH  14  17
ATOM     17  C1  <0> d           3.571   2.195  -0.020  0.00  0.00    -0.061 C 
ATOM     18  H1  <0> d           3.497   2.826  -0.906  0.00  0.00     0.029 H 
ATOM     19  H2  <0> d           3.514   2.817   0.874  0.00  0.00     0.029 H 
ATOM     20  H3  <0> d           4.522   1.663  -0.032  0.00  0.00     0.029 H 
ENDBRANCH  14  17
ENDBRANCH   1  14
TORSDOF 5
