REMARK  5 active torsions:
REMARK  status: ('A' for Active; 'I' for Inactive)
REMARK    1  A    between atoms: C1_1  and  C2_2 
REMARK    2  A    between atoms: C2_2  and  C3_3 
REMARK    3  A    between atoms: C3_3  and  N1_4 
REMARK    4  A    between atoms: N1_4  and  C4_5 
REMARK    5  A    between atoms: C5_6  and  N4_10 
ROOT
ATOM      1  C3  <0> d          -0.013   1.086   0.008  0.00  0.00    -0.006 C 
ATOM      2  H6  <0> d           0.002  -0.004   0.002  0.00  0.00     0.064 H 
ATOM      3  H7  <0> d           1.010   1.463   0.000  0.00  0.00     0.064 H 
ENDROOT
BRANCH   1   4
ATOM      4  C2  <0> d          -0.753   1.593  -1.232  0.00  0.00    -0.054 C 
ATOM      5  H4  <0> d          -1.775   1.215  -1.224  0.00  0.00     0.034 H 
ATOM      6  H5  <0> d          -0.767   2.683  -1.226  0.00  0.00     0.034 H 
BRANCH   4   7
ATOM      7  C1  <0> d          -0.037   1.099  -2.490  0.00  0.00    -0.075 C 
ATOM      8  H1  <0> d           0.986   1.476  -2.498  0.00  0.00     0.027 H 
ATOM      9  H2  <0> d          -0.022   0.009  -2.496  0.00  0.00     0.027 H 
ATOM     10  H3  <0> d          -0.564   1.460  -3.373  0.00  0.00     0.027 H 
ENDBRANCH   4   7
ENDBRANCH   1   4
BRANCH   1  11
ATOM     11  N1  <0> d          -0.698   1.558   1.213  0.00  0.00    -0.370 N 
ATOM     12  H8  <0> d          -1.495   2.106   1.135  0.00  0.00     0.161 HD
BRANCH  11  13
ATOM     13  C4  <0> d          -0.207   1.222   2.470  0.00  0.00     0.201 A 
ATOM     14  N3  <0> d           0.847   0.491   2.707  0.00  0.00    -0.083 NA
ATOM     15  O1  <0> d           1.001   0.394   4.112  0.00  0.00    -0.103 OA
ATOM     16  N2  <0> d          -0.057   1.121   4.711  0.00  0.00    -0.083 NA
ATOM     17  C5  <0> d          -0.789   1.623   3.756  0.00  0.00     0.199 A 
BRANCH  17  18
ATOM     18  N4  <0> d          -1.926   2.405   3.926  0.00  0.00    -0.379 N 
ATOM     19  H9  <0> d          -2.408   2.735   3.152  0.00  0.00     0.158 HD
ATOM     20  H10 <0> d          -2.237   2.620   4.820  0.00  0.00     0.158 HD
ENDBRANCH  17  18
ENDBRANCH  11  13
ENDBRANCH   1  11
TORSDOF 5
