REMARK  2 active torsions:
REMARK  status: ('A' for Active; 'I' for Inactive)
REMARK    1  A    between atoms: C1_1  and  O1_2 
REMARK    2  A    between atoms: O1_2  and  C2_3 
ROOT
ATOM      1  C2  <0> d          -1.522   4.372   0.040  0.00  0.00     0.192 A 
ATOM      2  C3  <0> d          -0.799   3.178   0.027  0.00  0.00     0.096 A 
ATOM      3  C4  <0> d           0.606   3.244   0.014  0.00  0.00    -0.002 A 
ATOM      4  C5  <0> d           1.078   1.863   0.002  0.00  0.00    -0.056 A 
ATOM      5  C6  <0> d          -0.013   1.076   0.008  0.00  0.00    -0.022 A 
ATOM      6  N1  <0> d          -1.141   1.845   0.017  0.00  0.00    -0.362 N 
ATOM      7  H1  <0> d          -2.049   1.502   0.019  0.00  0.00     0.165 HD
ATOM      8  C7  <0> d           1.220   4.504   0.015  0.00  0.00    -0.054 A 
ATOM      9  C8  <0> d           0.433   5.619   0.028  0.00  0.00     0.006 A 
ATOM     10  N2  <0> d          -0.888   5.531   0.040  0.00  0.00    -0.235 NA
ATOM     11  H5  <0> d           2.107   1.535  -0.010  0.00  0.00     0.086 H 
ATOM     12  H6  <0> d           0.002  -0.004   0.002  0.00  0.00     0.111 H 
ATOM     13  H7  <0> d           2.296   4.591   0.005  0.00  0.00     0.087 H 
ATOM     14  H8  <0> d           0.898   6.594   0.029  0.00  0.00     0.114 H 
ENDROOT
BRANCH   1  15
ATOM     15  O1  <0> d          -2.878   4.342   0.052  0.00  0.00    -0.338 OA
BRANCH  15  16
ATOM     16  C1  <0> d          -3.555   5.600   0.065  0.00  0.00     0.012 C 
ATOM     17  H2  <0> d          -3.266   6.159   0.955  0.00  0.00     0.067 H 
ATOM     18  H3  <0> d          -3.283   6.168  -0.824  0.00  0.00     0.067 H 
ATOM     19  H4  <0> d          -4.632   5.434   0.075  0.00  0.00     0.067 H 
ENDBRANCH  15  16
ENDBRANCH   1  15
TORSDOF 2
