REMARK  1 active torsions:
REMARK  status: ('A' for Active; 'I' for Inactive)
REMARK    1  A    between atoms: C1_1  and  C2_2 
ROOT
ATOM      1  C2  <0> d          -0.018   1.503   0.010  0.00  0.00    -0.004 A 
ATOM      2  C3  <0> d          -1.218   2.196   0.020  0.00  0.00     0.012 A 
ATOM      3  N1  <0> d          -1.197   3.519   0.033  0.00  0.00    -0.253 NA
ATOM      4  C4  <0> d          -0.055   4.177   0.025  0.00  0.00     0.087 A 
ATOM      5  N2  <0> d           1.106   3.553   0.011  0.00  0.00    -0.229 NA
ATOM      6  C5  <0> d           1.164   2.230   0.003  0.00  0.00     0.134 A 
ATOM      7 Cl1  <0> d           2.697   1.416  -0.017  0.00  0.00    -0.062 Cl
ATOM      8  H4  <0> d          -2.157   1.664   0.021  0.00  0.00     0.115 H 
ATOM      9  H5  <0> d          -0.070   5.257   0.032  0.00  0.00     0.146 H 
ENDROOT
BRANCH   1  10
ATOM     10  C1  <0> d           0.002  -0.004   0.002  0.00  0.00    -0.047 C 
ATOM     11  H1  <0> d           0.017  -0.373   1.028  0.00  0.00     0.033 H 
ATOM     12  H2  <0> d          -0.888  -0.377  -0.505  0.00  0.00     0.033 H 
ATOM     13  H3  <0> d           0.892  -0.352  -0.522  0.00  0.00     0.033 H 
ENDBRANCH   1  10
TORSDOF 1
