REMARK  3 active torsions:
REMARK  status: ('A' for Active; 'I' for Inactive)
REMARK    1  A    between atoms: C1_1  and  O1_2 
REMARK    2  A    between atoms: O1_2  and  C2_3 
REMARK    3  A    between atoms: C7_8  and  N1_9 
ROOT
ATOM      1  C2  <0> d           0.626  -0.619   1.042  0.00  0.00     0.094 A 
ATOM      2  C3  <0> d           1.202   0.136   2.051  0.00  0.00    -0.049 A 
ATOM      3  C4  <0> d           1.837  -0.490   3.107  0.00  0.00    -0.080 A 
ATOM      4  C5  <0> d           1.899  -1.870   3.162  0.00  0.00    -0.081 A 
ATOM      5  C6  <0> d           1.326  -2.631   2.160  0.00  0.00    -0.055 A 
ATOM      6  C7  <0> d           0.683  -2.010   1.099  0.00  0.00     0.059 A 
ATOM      7  H4  <0> d           1.155   1.214   2.011  0.00  0.00     0.087 H 
ATOM      8  H5  <0> d           2.286   0.100   3.893  0.00  0.00     0.083 H 
ATOM      9  H6  <0> d           2.396  -2.355   3.989  0.00  0.00     0.083 H 
ATOM     10  H7  <0> d           1.377  -3.709   2.204  0.00  0.00     0.087 H 
ENDROOT
BRANCH   1  11
ATOM     11  O1  <0> d           0.002  -0.004   0.002  0.00  0.00    -0.354 OA
BRANCH  11  12
ATOM     12  C1  <0> d          -0.017   1.425   0.010  0.00  0.00     0.010 C 
ATOM     13  H1  <0> d           1.005   1.802   0.002  0.00  0.00     0.066 H 
ATOM     14  H2  <0> d          -0.544   1.786  -0.873  0.00  0.00     0.066 H 
ATOM     15  H3  <0> d          -0.527   1.776   0.907  0.00  0.00     0.066 H 
ENDBRANCH  11  12
ENDBRANCH   1  11
BRANCH   6  16
ATOM     16  N1  <0> d           0.098  -2.778   0.086  0.00  0.00    -0.397 N 
ATOM     17  H8  <0> d          -0.348  -2.342  -0.657  0.00  0.00     0.156 HD
ATOM     18  H9  <0> d           0.138  -3.746   0.127  0.00  0.00     0.156 HD
ENDBRANCH   6  16
TORSDOF 3
