REMARK  1 active torsions:
REMARK  status: ('A' for Active; 'I' for Inactive)
REMARK    1  A    between atoms: C3_3  and  C6_9 
ROOT
ATOM      1  C1  <0> d           3.005   3.048   1.439  0.00  0.00    -0.055 C 
ATOM      2  C2  <0> d           1.587   2.464   1.417  0.00  0.00    -0.036 C 
ATOM      3  C3  <0> d           1.280   1.975   0.000  0.00  0.00     0.096 C 
ATOM      4  H1  <0> d           1.183   2.836  -0.661  0.00  0.00     0.089 H 
ATOM      5  N1  <0> d           2.351   1.114  -0.485  0.00  0.00    -0.347 N 
ATOM      6  C4  <0> d           3.580   1.085   0.032  0.00  0.00     0.218 C 
ATOM      7  O1  <0> d           4.402   0.355  -0.481  0.00  0.00    -0.274 OA
ATOM      8  C5  <0> d           4.001   1.907   1.216  0.00  0.00     0.009 C 
ATOM      9  H2  <0> d           3.193   3.516   2.405  0.00  0.00     0.033 H 
ATOM     10  H3  <0> d           3.109   3.787   0.645  0.00  0.00     0.033 H 
ATOM     11  H4  <0> d           0.870   3.234   1.701  0.00  0.00     0.036 H 
ATOM     12  H5  <0> d           1.525   1.628   2.113  0.00  0.00     0.036 H 
ATOM     13  H6  <0> d           2.158   0.524  -1.230  0.00  0.00     0.163 HD
ATOM     14  H7  <0> d           4.032   1.275   2.103  0.00  0.00     0.047 H 
ATOM     15  H8  <0> d           4.992   2.323   1.034  0.00  0.00     0.047 H 
ENDROOT
BRANCH   3  16
ATOM     16  C6  <0> d          -0.014   1.204   0.009  0.00  0.00     0.196 C 
ATOM     17  O2  <0> d           0.002  -0.004   0.002  0.00  0.00    -0.646 OA
ATOM     18  O3  <0> d          -1.186   1.859   0.018  0.00  0.00    -0.646 OA
ENDBRANCH   3  16
TORSDOF 1
