REMARK  4 active torsions:
REMARK  status: ('A' for Active; 'I' for Inactive)
REMARK    1  A    between atoms: C1_1  and  C2_2 
REMARK    2  A    between atoms: C5_6  and  C8_12 
REMARK    3  A    between atoms: C6_8  and  O1_11 
REMARK    4  A    between atoms: C8_12  and  C10_14 
ROOT
ATOM      1  C2  <0> d          -0.028  -0.760  -4.237  0.00  0.00    -0.055 C 
ATOM      2  H1  <0> d          -0.029  -1.300  -5.184  0.00  0.00     0.039 H 
ATOM      3  C3  <0> d          -1.264  -1.151  -3.425  0.00  0.00    -0.061 C 
ATOM      4  C4  <0> d          -1.262  -0.394  -2.095  0.00  0.00    -0.056 C 
ATOM      5  C5  <0> d          -0.000  -0.750  -1.307  0.00  0.00    -0.008 C 
ATOM      6  H2  <0> d           0.016  -1.823  -1.114  0.00  0.00     0.050 H 
ATOM      7  C6  <0> d           1.236  -0.360  -2.119  0.00  0.00     0.043 C 
ATOM      8  H3  <0> d           1.220   0.713  -2.312  0.00  0.00     0.084 H 
ATOM      9  C7  <0> d           1.234  -1.117  -3.448  0.00  0.00    -0.037 C 
ATOM     10  H7  <0> d          -2.163  -0.897  -3.986  0.00  0.00     0.033 H 
ATOM     11  H8  <0> d          -1.248  -2.224  -3.231  0.00  0.00     0.033 H 
ATOM     12  H9  <0> d          -2.143  -0.672  -1.517  0.00  0.00     0.034 H 
ATOM     13  H10 <0> d          -1.278   0.679  -2.289  0.00  0.00     0.034 H 
ATOM     14  H11 <0> d           2.115  -0.839  -4.027  0.00  0.00     0.037 H 
ATOM     15  H12 <0> d           1.250  -2.190  -3.255  0.00  0.00     0.037 H 
ENDROOT
BRANCH   5  16
ATOM     16  C8  <0> d           0.002  -0.004   0.002  0.00  0.00    -0.086 C 
ATOM     17  C9  <0> d           0.022  -0.665   1.133  0.00  0.00    -0.119 C 
ATOM     18  H14 <0> d           0.036  -1.745   1.127  0.00  0.00     0.067 H 
ATOM     19  H15 <0> d           0.023  -0.130   2.071  0.00  0.00     0.067 H 
BRANCH  16  20
ATOM     20  C10 <0> d          -0.018   1.503   0.010  0.00  0.00    -0.055 C 
ATOM     21  H16 <0> d           1.004   1.880   0.003  0.00  0.00     0.033 H 
ATOM     22  H17 <0> d          -0.545   1.864  -0.873  0.00  0.00     0.033 H 
ATOM     23  H18 <0> d          -0.529   1.854   0.907  0.00  0.00     0.033 H 
ENDBRANCH  16  20
ENDBRANCH   5  16
BRANCH   7  24
ATOM     24  O1  <0> d           2.415  -0.693  -1.383  0.00  0.00    -0.395 OA
ATOM     25  H13 <0> d           3.239  -0.472  -1.838  0.00  0.00     0.210 HD
ENDBRANCH   7  24
BRANCH   1  26
ATOM     26  C1  <0> d          -0.051   0.745  -4.508  0.00  0.00    -0.073 C 
ATOM     27  H4  <0> d           0.830   1.024  -5.087  0.00  0.00     0.028 H 
ATOM     28  H5  <0> d          -0.950   0.999  -5.070  0.00  0.00     0.028 H 
ATOM     29  H6  <0> d          -0.049   1.285  -3.561  0.00  0.00     0.028 H 
ENDBRANCH   1  26
TORSDOF 4
