REMARK  4 active torsions:
REMARK  status: ('A' for Active; 'I' for Inactive)
REMARK    1  A    between atoms: C1_1  and  C2_2 
REMARK    2  A    between atoms: C2_2  and  C3_3 
REMARK    3  A    between atoms: C3_3  and  C4_4 
REMARK    4  A    between atoms: C5_5  and  C6_6 
ROOT
ATOM      1  C3  <0> d           0.742  -0.511   1.242  0.00  0.00    -0.009 C 
ATOM      2  H6  <0> d           1.765  -0.134   1.234  0.00  0.00     0.051 H 
ATOM      3  H7  <0> d           0.232  -0.159   2.138  0.00  0.00     0.051 H 
ENDROOT
BRANCH   1   4
ATOM      4  C2  <0> d           0.002  -0.004   0.002  0.00  0.00    -0.059 C 
ATOM      5  H4  <0> d          -1.020  -0.381   0.010  0.00  0.00     0.033 H 
ATOM      6  H5  <0> d           0.512  -0.356  -0.895  0.00  0.00     0.033 H 
BRANCH   4   7
ATOM      7  C1  <0> d          -0.019   1.526   0.010  0.00  0.00    -0.076 C 
ATOM      8  H1  <0> d           1.004   1.903   0.003  0.00  0.00     0.027 H 
ATOM      9  H2  <0> d          -0.546   1.887  -0.873  0.00  0.00     0.027 H 
ATOM     10  H3  <0> d          -0.529   1.877   0.907  0.00  0.00     0.027 H 
ENDBRANCH   4   7
ENDBRANCH   1   4
BRANCH   1  11
ATOM     11  C4  <0> d           0.762  -1.983   1.233  0.00  0.00    -0.102 C 
ATOM     12  C5  <0> d           0.778  -3.157   1.227  0.00  0.00    -0.079 C 
BRANCH  12  13
ATOM     13  C6  <0> d           0.797  -4.588   1.219  0.00  0.00    -0.042 C 
ATOM     14  C7  <0> d           1.391  -5.250   2.207  0.00  0.00    -0.114 C 
ATOM     15  H9  <0> d           1.859  -4.708   3.015  0.00  0.00     0.067 H 
ATOM     16  H10 <0> d           1.406  -6.330   2.201  0.00  0.00     0.067 H 
ATOM     17  H8  <0> d           0.329  -5.130   0.411  0.00  0.00     0.096 H 
ENDBRANCH  12  13
ENDBRANCH   1  11
TORSDOF 4
