REMARK  3 active torsions:
REMARK  status: ('A' for Active; 'I' for Inactive)
REMARK    1  A    between atoms: C1_1  and  C2_2 
REMARK    2  A    between atoms: C2_2  and  C3_4 
REMARK    3  A    between atoms: C2_2  and  O1_10 
ROOT
ATOM      1  C3  <0> d          -1.231   3.129   0.030  0.00  0.00    -0.027 A 
ATOM      2  C4  <0> d          -1.223   1.742   0.017  0.00  0.00    -0.058 A 
ATOM      3  C5  <0> d          -0.013   1.076   0.008  0.00  0.00     0.002 A 
ATOM      4  N1  <0> d           1.125   1.743   0.001  0.00  0.00    -0.273 NA
ATOM      5  C6  <0> d           1.155   3.061   0.007  0.00  0.00     0.002 A 
ATOM      6  C7  <0> d          -0.015   3.796   0.022  0.00  0.00    -0.058 A 
ATOM      7  H5  <0> d          -2.151   1.190   0.018  0.00  0.00     0.086 H 
ATOM      8  H6  <0> d           0.002  -0.004   0.002  0.00  0.00     0.114 H 
ATOM      9  H7  <0> d           2.107   3.573   0.001  0.00  0.00     0.114 H 
ATOM     10  H8  <0> d           0.016   4.875   0.028  0.00  0.00     0.086 H 
ENDROOT
BRANCH   1  11
ATOM     11  C2  <0> d          -2.530   3.893   0.046  0.00  0.00     0.057 C 
ATOM     12  H1  <0> d          -2.350   4.908   0.400  0.00  0.00     0.089 H 
BRANCH  11  13
ATOM     13  C1  <0> d          -3.109   3.942  -1.369  0.00  0.00    -0.049 C 
ATOM     14  H2  <0> d          -3.289   2.927  -1.724  0.00  0.00     0.031 H 
ATOM     15  H3  <0> d          -4.049   4.495  -1.358  0.00  0.00     0.031 H 
ATOM     16  H4  <0> d          -2.403   4.440  -2.034  0.00  0.00     0.031 H 
ENDBRANCH  11  13
BRANCH  11  17
ATOM     17  O1  <0> d          -3.456   3.241   0.917  0.00  0.00    -0.391 OA
ATOM     18  H9  <0> d          -3.663   2.331   0.662  0.00  0.00     0.210 HD
ENDBRANCH  11  17
ENDBRANCH   1  11
TORSDOF 3
