REMARK  6 active torsions:
REMARK  status: ('A' for Active; 'I' for Inactive)
REMARK    1  A    between atoms: C1_1  and  C2_2 
REMARK    2  A    between atoms: C2_2  and  C3_3 
REMARK    3  A    between atoms: C2_2  and  C4_4 
REMARK    4  A    between atoms: C4_4  and  C5_6 
REMARK    5  A    between atoms: C4_4  and  O1_10 
REMARK    6  A    between atoms: C5_6  and  C7_8 
ROOT
ATOM      1  C4  <0> d          -0.794   1.638   1.258  0.00  0.00     0.063 C 
ATOM      2  H1  <0> d          -0.872   2.725   1.281  0.00  0.00     0.091 H 
ENDROOT
BRANCH   1   3
ATOM      3  C2  <0> d          -0.088   1.205  -0.029  0.00  0.00    -0.032 C 
ATOM      4  H5  <0> d          -0.009   0.118  -0.052  0.00  0.00     0.043 H 
BRANCH   3   5
ATOM      5  C1  <0> d           1.313   1.819  -0.073  0.00  0.00    -0.071 C 
ATOM      6  H2  <0> d           1.816   1.510  -0.990  0.00  0.00     0.028 H 
ATOM      7  H3  <0> d           1.235   2.906  -0.050  0.00  0.00     0.028 H 
ATOM      8  H4  <0> d           1.887   1.477   0.789  0.00  0.00     0.028 H 
ENDBRANCH   3   5
BRANCH   3   9
ATOM      9  C3  <0> d          -0.892   1.685  -1.239  0.00  0.00    -0.071 C 
ATOM     10  H6  <0> d          -0.389   1.376  -2.155  0.00  0.00     0.028 H 
ATOM     11  H7  <0> d          -1.891   1.248  -1.207  0.00  0.00     0.028 H 
ATOM     12  H8  <0> d          -0.971   2.772  -1.215  0.00  0.00     0.028 H 
ENDBRANCH   3   9
ENDBRANCH   1   3
BRANCH   1  13
ATOM     13  C5  <0> d          -0.001   1.166   2.449  0.00  0.00    -0.040 C 
ATOM     14  C6  <0> d           0.550   2.051   3.273  0.00  0.00    -0.113 C 
ATOM     15  H9  <0> d           1.119   1.712   4.127  0.00  0.00     0.067 H 
ATOM     16  H10 <0> d           0.430   3.108   3.089  0.00  0.00     0.067 H 
BRANCH  13  17
ATOM     17  C7  <0> d           0.163  -0.274   2.700  0.00  0.00    -0.084 C 
ATOM     18  C8  <0> d          -0.298  -1.158   1.821  0.00  0.00    -0.121 C 
ATOM     19  H12 <0> d          -0.849  -0.822   0.955  0.00  0.00     0.066 H 
ATOM     20  H13 <0> d          -0.120  -2.213   1.972  0.00  0.00     0.066 H 
ATOM     21  H11 <0> d           0.657  -0.613   3.598  0.00  0.00     0.083 H 
ENDBRANCH  13  17
ENDBRANCH   1  13
BRANCH   1  22
ATOM     22  O1  <0> d          -2.102   1.065   1.299  0.00  0.00    -0.391 OA
ATOM     23  H14 <0> d          -2.114   0.104   1.192  0.00  0.00     0.210 HD
ENDBRANCH   1  22
TORSDOF 6
