REMARK  1 active torsions:
REMARK  status: ('A' for Active; 'I' for Inactive)
REMARK    1  A    between atoms: C6_7  and  N4_10 
ROOT
ATOM      1  C1  <0> d          -0.019   1.524   0.010  0.00  0.00    -0.060 C 
ATOM      2  C2  <0> d           1.429   2.030  -0.001  0.00  0.00    -0.060 C 
ATOM      3  C3  <0> d           2.064   1.712   1.352  0.00  0.00    -0.021 C 
ATOM      4  C4  <0> d           1.861   0.262   1.701  0.00  0.00     0.082 A 
ATOM      5  C5  <0> d           0.908  -0.523   1.085  0.00  0.00     0.080 A 
ATOM      6  N1  <0> d           0.787  -1.793   1.457  0.00  0.00    -0.064 NA
ATOM      7  C6  <0> d           1.581  -2.279   2.401  0.00  0.00     0.739 A 
ATOM      8  N2  <0> d           2.494  -1.508   2.977  0.00  0.00     0.043 NA
ATOM      9  N3  <0> d           2.631  -0.275   2.639  0.00  0.00    -0.137 NA
ATOM     10  C7  <0> d           0.002  -0.004   0.002  0.00  0.00    -0.022 C 
ATOM     11  H1  <0> d          -0.524   1.878   0.909  0.00  0.00     0.033 H 
ATOM     12  H2  <0> d          -0.541   1.888  -0.875  0.00  0.00     0.033 H 
ATOM     13  H3  <0> d           1.985   1.530  -0.793  0.00  0.00     0.033 H 
ATOM     14  H4  <0> d           1.438   3.107  -0.166  0.00  0.00     0.033 H 
ATOM     15  H5  <0> d           3.132   1.925   1.308  0.00  0.00     0.042 H 
ATOM     16  H6  <0> d           1.607   2.335   2.120  0.00  0.00     0.042 H 
ATOM     17  H9  <0> d          -1.008  -0.379   0.166  0.00  0.00     0.042 H 
ATOM     18  H10 <0> d           0.360  -0.354  -0.966  0.00  0.00     0.042 H 
ENDROOT
BRANCH   7  19
ATOM     19  N4  <0> d           1.456  -3.602   2.789  0.00  0.00    -0.230 N 
ATOM     20  H7  <0> d           0.789  -4.170   2.370  0.00  0.00     0.174 HD
ATOM     21  H8  <0> d           2.034  -3.962   3.479  0.00  0.00     0.174 HD
ENDBRANCH   7  19
TORSDOF 1
