REMARK  1 active torsions:
REMARK  status: ('A' for Active; 'I' for Inactive)
REMARK    1  A    between atoms: C1_1  and  N4_11 
ROOT
ATOM      1  C1  <0> d          -0.016   1.335   0.009  0.00  0.00     0.683 A 
ATOM      2  N1  <0> d           1.132   2.025   0.002  0.00  0.00    -0.141 N 
ATOM      3  H1  <0> d           1.114   2.994   0.007  0.00  0.00     0.189 HD
ATOM      4  C2  <0> d           2.312   1.373  -0.012  0.00  0.00     0.342 A 
ATOM      5  O1  <0> d           3.355   2.001  -0.018  0.00  0.00    -0.246 OA
ATOM      6  N2  <0> d           2.336   0.025  -0.020  0.00  0.00    -0.260 N 
ATOM      7  H2  <0> d           3.183  -0.447  -0.030  0.00  0.00     0.175 HD
ATOM      8  C3  <0> d           1.178  -0.665  -0.013  0.00  0.00     0.342 A 
ATOM      9  O2  <0> d           1.193  -1.881  -0.020  0.00  0.00    -0.246 OA
ATOM     10  N3  <0> d           0.002  -0.004   0.002  0.00  0.00    -0.141 N 
ATOM     11  H5  <0> d          -0.832  -0.500   0.007  0.00  0.00     0.189 HD
ENDROOT
BRANCH   1  12
ATOM     12  N4  <0> d          -1.206   1.997   0.030  0.00  0.00    -0.234 N 
ATOM     13  H3  <0> d          -2.038   1.499   0.039  0.00  0.00     0.174 HD
ATOM     14  H4  <0> d          -1.220   2.967   0.035  0.00  0.00     0.174 HD
ENDBRANCH   1  12
TORSDOF 1
