REMARK  2 active torsions:
REMARK  status: ('A' for Active; 'I' for Inactive)
REMARK    1  A    between atoms: C4_4  and  N3_13 
REMARK    2  A    between atoms: C5_5  and  C7_7 
ROOT
ATOM      1  C1  <0> d           1.172   1.783   0.000  0.00  0.00    -0.082 A 
ATOM      2  C2  <0> d           1.160   3.167   0.007  0.00  0.00    -0.081 A 
ATOM      3  C3  <0> d          -0.038   3.854   0.022  0.00  0.00    -0.057 A 
ATOM      4  C4  <0> d          -1.239   3.159   0.030  0.00  0.00     0.038 A 
ATOM      5  C5  <0> d          -1.229   1.757   0.017  0.00  0.00     0.018 A 
ATOM      6  C6  <0> d          -0.013   1.076   0.008  0.00  0.00    -0.069 A 
ATOM      7  H2  <0> d           2.114   1.254  -0.011  0.00  0.00     0.083 H 
ATOM      8  H3  <0> d           2.092   3.712   0.001  0.00  0.00     0.083 H 
ATOM      9  H4  <0> d          -0.041   4.934   0.028  0.00  0.00     0.086 H 
ATOM     10  H5  <0> d           0.002  -0.004   0.002  0.00  0.00     0.085 H 
ENDROOT
BRANCH   5  11
ATOM     11  C7  <0> d          -2.502   1.005   0.019  0.00  0.00     0.064 A 
ATOM     12  N2  <0> d          -3.620   1.311   0.737  0.00  0.00    -0.278 N 
ATOM     13  N1  <0> d          -4.592   0.346   0.444  0.00  0.00    -0.187 NA
ATOM     14  H1  <0> d          -3.627   2.192   1.395  0.00  0.00     0.189 HD
ATOM     15  C9  <0> d          -4.085  -0.511  -0.404  0.00  0.00     0.024 A 
ATOM     16  C8  <0> d          -2.774  -0.129  -0.693  0.00  0.00    -0.036 A 
ATOM     17  H7  <0> d          -4.595  -1.371  -0.813  0.00  0.00     0.117 H 
ATOM     18  H6  <0> d          -2.096  -0.638  -1.361  0.00  0.00     0.089 H 
ENDBRANCH   5  11
BRANCH   4  19
ATOM     19  N3  <0> d          -2.449   3.850   0.046  0.00  0.00    -0.398 N 
ATOM     20  H8  <0> d          -3.400   3.296   0.052  0.00  0.00     0.156 HD
ATOM     21  H9  <0> d          -2.454   4.950   0.051  0.00  0.00     0.156 HD
ENDBRANCH   4  19
TORSDOF 2
