REMARK  5 active torsions:
REMARK  status: ('A' for Active; 'I' for Inactive)
REMARK    1  A    between atoms: C1_1  and  C2_2 
REMARK    2  A    between atoms: C4_4  and  C8_9 
REMARK    3  A    between atoms: C6_6  and  O1_8 
REMARK    4  A    between atoms: C8_9  and  C9_10 
REMARK    5  A    between atoms: C8_9  and  C10_11 
ROOT
ATOM      1  C2  <0> d          -1.978   5.143   1.297  0.00  0.00    -0.059 A 
ATOM      2  C3  <0> d          -1.956   3.760   1.284  0.00  0.00    -0.071 A 
ATOM      3  C4  <0> d          -0.749   3.086   1.275  0.00  0.00    -0.052 A 
ATOM      4  C5  <0> d           0.438   3.792   1.268  0.00  0.00    -0.045 A 
ATOM      5  C6  <0> d           0.419   5.179   1.275  0.00  0.00     0.066 A 
ATOM      6  C7  <0> d          -0.794   5.854   1.290  0.00  0.00    -0.045 A 
ATOM      7  H4  <0> d          -2.883   3.206   1.286  0.00  0.00     0.085 H 
ATOM      8  H5  <0> d           1.381   3.265   1.256  0.00  0.00     0.088 H 
ATOM      9  H6  <0> d          -0.812   6.934   1.295  0.00  0.00     0.088 H 
ENDROOT
BRANCH   3  10
ATOM     10  C8  <0> d          -0.729   1.579   1.267  0.00  0.00    -0.035 C 
ATOM     11  H8  <0> d          -1.751   1.202   1.275  0.00  0.00     0.046 H 
BRANCH  10  12
ATOM     12  C9  <0> d          -0.013   1.086   0.008  0.00  0.00    -0.069 C 
ATOM     13  H9  <0> d           0.002  -0.004   0.002  0.00  0.00     0.028 H 
ATOM     14  H10 <0> d           1.010   1.463   0.000  0.00  0.00     0.028 H 
ATOM     15  H11 <0> d          -0.540   1.447  -0.875  0.00  0.00     0.028 H 
ENDBRANCH  10  12
BRANCH  10  16
ATOM     16  C10 <0> d           0.011   1.072   2.506  0.00  0.00    -0.069 C 
ATOM     17  H12 <0> d           1.034   1.450   2.499  0.00  0.00     0.028 H 
ATOM     18  H13 <0> d          -0.499   1.424   3.403  0.00  0.00     0.028 H 
ATOM     19  H14 <0> d           0.026  -0.018   2.500  0.00  0.00     0.028 H 
ENDBRANCH  10  16
ENDBRANCH   3  10
BRANCH   1  20
ATOM     20  C1  <0> d          -3.296   5.875   1.313  0.00  0.00    -0.051 C 
ATOM     21  H1  <0> d          -3.623   6.057   0.290  0.00  0.00     0.033 H 
ATOM     22  H2  <0> d          -4.040   5.271   1.831  0.00  0.00     0.033 H 
ATOM     23  H3  <0> d          -3.176   6.827   1.831  0.00  0.00     0.033 H 
ENDBRANCH   1  20
BRANCH   5  24
ATOM     24  O1  <0> d           1.585   5.877   1.267  0.00  0.00    -0.361 OA
ATOM     25  H7  <0> d           1.914   6.083   0.381  0.00  0.00     0.217 HD
ENDBRANCH   5  24
TORSDOF 5
