REMARK  1 active torsions:
REMARK  status: ('A' for Active; 'I' for Inactive)
REMARK    1  A    between atoms: C3_3  and  O1_13 
ROOT
ATOM      1  C1  <0> d           2.994   2.434  -1.555  0.00  0.00    -0.059 C 
ATOM      2  C2  <0> d           2.098   1.218  -1.267  0.00  0.00    -0.036 C 
ATOM      3  C3  <0> d           1.286   1.562  -0.002  0.00  0.00     0.062 C 
ATOM      4  C4  <0> d           2.130   1.191   1.242  0.00  0.00    -0.033 C 
ATOM      5  C5  <0> d           2.588   2.562   1.829  0.00  0.00    -0.051 C 
ATOM      6  H1  <0> d           2.942   2.554   2.860  0.00  0.00     0.040 H 
ATOM      7  C6  <0> d           3.579   3.135   0.771  0.00  0.00    -0.058 C 
ATOM      8  C7  <0> d           2.694   3.470  -0.454  0.00  0.00    -0.048 C 
ATOM      9  H2  <0> d           2.803   4.502  -0.787  0.00  0.00     0.040 H 
ATOM     10  C8  <0> d           1.240   3.125   0.007  0.00  0.00    -0.020 C 
ATOM     11  H3  <0> d           0.421   3.591  -0.542  0.00  0.00     0.045 H 
ATOM     12  C9  <0> d           1.316   3.432   1.540  0.00  0.00    -0.055 C 
ATOM     13  H4  <0> d           2.757   2.850  -2.534  0.00  0.00     0.033 H 
ATOM     14  H5  <0> d           4.044   2.142  -1.517  0.00  0.00     0.033 H 
ATOM     15  H6  <0> d           2.711   0.335  -1.089  0.00  0.00     0.037 H 
ATOM     16  H7  <0> d           1.425   1.043  -2.106  0.00  0.00     0.037 H 
ATOM     17  H8  <0> d           1.526   0.635   1.959  0.00  0.00     0.038 H 
ATOM     18  H9  <0> d           3.005   0.611   0.949  0.00  0.00     0.038 H 
ATOM     19  H10 <0> d           4.060   4.037   1.151  0.00  0.00     0.034 H 
ATOM     20  H11 <0> d           4.327   2.388   0.507  0.00  0.00     0.034 H 
ATOM     21  H12 <0> d           1.492   4.490   1.735  0.00  0.00     0.034 H 
ATOM     22  H13 <0> d           0.440   3.063   2.073  0.00  0.00     0.034 H 
ENDROOT
BRANCH   3  23
ATOM     23  O1  <0> d          -0.011   0.963   0.007  0.00  0.00    -0.389 OA
ATOM     24  H14 <0> d           0.002  -0.004   0.002  0.00  0.00     0.210 HD
ENDBRANCH   3  23
TORSDOF 1
