REMARK  2 active torsions:
REMARK  status: ('A' for Active; 'I' for Inactive)
REMARK    1  A    between atoms: C1_1  and  C2_2 
REMARK    2  A    between atoms: C2_2  and  C3_3 
ROOT
ATOM      1  C3  <0> d          -1.231   3.129   0.030  0.00  0.00     0.015 A 
ATOM      2  C4  <0> d          -1.223   1.742   0.017  0.00  0.00    -0.054 A 
ATOM      3  C5  <0> d          -0.013   1.076   0.008  0.00  0.00     0.003 A 
ATOM      4  N1  <0> d           1.125   1.743   0.001  0.00  0.00    -0.273 NA
ATOM      5  C6  <0> d           1.155   3.061   0.007  0.00  0.00     0.003 A 
ATOM      6  C7  <0> d          -0.015   3.796   0.022  0.00  0.00    -0.054 A 
ATOM      7  H4  <0> d          -2.151   1.190   0.018  0.00  0.00     0.086 H 
ATOM      8  H5  <0> d           0.002  -0.004   0.002  0.00  0.00     0.114 H 
ATOM      9  H6  <0> d           2.107   3.573   0.001  0.00  0.00     0.114 H 
ATOM     10  H7  <0> d           0.016   4.875   0.027  0.00  0.00     0.086 H 
ENDROOT
BRANCH   1  11
ATOM     11  C2  <0> d          -2.530   3.893   0.046  0.00  0.00     0.267 C 
ATOM     12  F1  <0> d          -2.359   5.117  -0.610  0.00  0.00    -0.201 F 
ATOM     13  F2  <0> d          -3.517   3.148  -0.608  0.00  0.00    -0.201 F 
BRANCH  11  14
ATOM     14  C1  <0> d          -2.956   4.145   1.493  0.00  0.00    -0.012 C 
ATOM     15  H1  <0> d          -3.904   4.702   1.505  0.00  0.00     0.036 H 
ATOM     16  H2  <0> d          -2.180   4.731   2.008  0.00  0.00     0.036 H 
ATOM     17  H3  <0> d          -3.091   3.182   2.009  0.00  0.00     0.036 H 
ENDBRANCH  11  14
ENDBRANCH   1  11
TORSDOF 2
