REMARK  8 active torsions:
REMARK  status: ('A' for Active; 'I' for Inactive)
REMARK    1  A    between atoms: C1_1  and  C2_2 
REMARK    2  A    between atoms: C2_2  and  C3_3 
REMARK    3  A    between atoms: C3_3  and  C4_4 
REMARK    4  A    between atoms: C4_4  and  C5_5 
REMARK    5  A    between atoms: C5_5  and  C6_6 
REMARK    6  A    between atoms: C7_7  and  O1_8 
REMARK    7  A    between atoms: O1_8  and  C8_9 
REMARK    8  A    between atoms: C8_9  and  C9_11 
ROOT
ATOM      1  C5  <0> d          -4.748   0.849   0.029  0.00  0.00    -0.048 C 
ATOM      2  H10 <0> d          -5.296   1.013  -0.899  0.00  0.00     0.038 H 
ATOM      3  H11 <0> d          -4.481  -0.204   0.112  0.00  0.00     0.038 H 
ENDROOT
BRANCH   1   4
ATOM      4  C4  <0> d          -5.626   1.247   1.217  0.00  0.00    -0.062 C 
ATOM      5  H8  <0> d          -5.079   1.083   2.145  0.00  0.00     0.033 H 
ATOM      6  H9  <0> d          -5.894   2.300   1.135  0.00  0.00     0.033 H 
BRANCH   4   7
ATOM      7  C3  <0> d          -6.898   0.396   1.219  0.00  0.00    -0.065 C 
ATOM      8  H6  <0> d          -7.446   0.560   0.291  0.00  0.00     0.033 H 
ATOM      9  H7  <0> d          -6.631  -0.657   1.301  0.00  0.00     0.033 H 
BRANCH   7  10
ATOM     10  C2  <0> d          -7.776   0.794   2.407  0.00  0.00    -0.069 C 
ATOM     11  H4  <0> d          -7.229   0.630   3.334  0.00  0.00     0.032 H 
ATOM     12  H5  <0> d          -8.044   1.847   2.324  0.00  0.00     0.032 H 
BRANCH  10  13
ATOM     13  C1  <0> d          -9.048  -0.057   2.408  0.00  0.00    -0.077 C 
ATOM     14  H1  <0> d          -9.674   0.227   3.254  0.00  0.00     0.027 H 
ATOM     15  H2  <0> d          -9.596   0.107   1.480  0.00  0.00     0.027 H 
ATOM     16  H3  <0> d          -8.781  -1.110   2.490  0.00  0.00     0.027 H 
ENDBRANCH  10  13
ENDBRANCH   7  10
ENDBRANCH   4   7
ENDBRANCH   1   4
BRANCH   1  17
ATOM     17  C6  <0> d          -3.495   1.687   0.028  0.00  0.00    -0.081 C 
ATOM     18  C7  <0> d          -2.314   1.105   0.019  0.00  0.00     0.019 C 
ATOM     19  H13 <0> d          -2.243   0.028   0.013  0.00  0.00     0.123 H 
ATOM     20  H12 <0> d          -3.567   2.765   0.034  0.00  0.00     0.079 H 
BRANCH  18  21
ATOM     21  O1  <0> d          -1.186   1.860   0.018  0.00  0.00    -0.292 OA
BRANCH  21  22
ATOM     22  C8  <0> d          -0.014   1.204   0.009  0.00  0.00     0.259 C 
ATOM     23  O2  <0> d           0.002  -0.004   0.002  0.00  0.00    -0.265 OA
BRANCH  22  24
ATOM     24  C9  <0> d           1.280   1.975   0.000  0.00  0.00     0.004 C 
ATOM     25  H14 <0> d           2.118   1.278  -0.011  0.00  0.00     0.041 H 
ATOM     26  H15 <0> d           1.321   2.607  -0.887  0.00  0.00     0.041 H 
ATOM     27  H16 <0> d           1.338   2.598   0.893  0.00  0.00     0.041 H 
ENDBRANCH  22  24
ENDBRANCH  21  22
ENDBRANCH  18  21
ENDBRANCH   1  17
TORSDOF 8
