REMARK  2 active torsions:
REMARK  status: ('A' for Active; 'I' for Inactive)
REMARK    1  A    between atoms: C1_1  and  C2_2 
REMARK    2  A    between atoms: C3_3  and  N3_12 
ROOT
ATOM      1  C2  <0> d           0.002  -0.004   0.002  0.00  0.00    -0.022 A 
ATOM      2  C3  <0> d          -0.006  -0.694  -1.194  0.00  0.00     0.032 A 
ATOM      3  C4  <0> d           0.019  -2.089  -1.203  0.00  0.00    -0.055 A 
ATOM      4  C5  <0> d           0.040  -2.794  -0.035  0.00  0.00    -0.053 A 
ATOM      5  C6  <0> d           0.042  -2.124   1.186  0.00  0.00     0.062 A 
ATOM      6  C7  <0> d           0.023  -0.716   1.207  0.00  0.00     0.019 A 
ATOM      7  C8  <0> d           0.031  -0.326   2.613  0.00  0.00     0.034 A 
ATOM      8  N1  <0> d           0.052  -1.414   3.328  0.00  0.00    -0.186 NA
ATOM      9  N2  <0> d           0.060  -2.537   2.494  0.00  0.00    -0.278 N 
ATOM     10  H1  <0> d           0.076  -3.488   2.802  0.00  0.00     0.189 HD
ATOM     11  H5  <0> d           0.017  -2.616  -2.146  0.00  0.00     0.087 H 
ATOM     12  H6  <0> d           0.055  -3.874  -0.057  0.00  0.00     0.087 H 
ATOM     13  H7  <0> d           0.020   0.685   2.993  0.00  0.00     0.118 H 
ENDROOT
BRANCH   1  14
ATOM     14  C1  <0> d          -0.018   1.503   0.010  0.00  0.00    -0.048 C 
ATOM     15  H2  <0> d           1.004   1.880   0.003  0.00  0.00     0.033 H 
ATOM     16  H3  <0> d          -0.545   1.864  -0.873  0.00  0.00     0.033 H 
ATOM     17  H4  <0> d          -0.529   1.854   0.907  0.00  0.00     0.033 H 
ENDBRANCH   1  14
BRANCH   2  18
ATOM     18  N3  <0> d          -0.033   0.010  -2.404  0.00  0.00    -0.399 N 
ATOM     19  H8  <0> d          -0.046   0.980  -2.400  0.00  0.00     0.156 HD
ATOM     20  H9  <0> d          -0.038  -0.472  -3.245  0.00  0.00     0.156 HD
ENDBRANCH   2  18
TORSDOF 2
