REMARK  1 active torsions:
REMARK  status: ('A' for Active; 'I' for Inactive)
REMARK    1  A    between atoms: C2_2  and  C3_3 
ROOT
ATOM      1  C3  <0> d           2.092   0.665  -0.013  0.00  0.00     0.057 A 
ATOM      2  C4  <0> d           1.260  -0.434  -0.013  0.00  0.00     0.031 A 
ATOM      3  N1  <0> d           0.002  -0.004   0.003  0.00  0.00    -0.241 NA
ATOM      4  C5  <0> d          -0.016   1.324   0.014  0.00  0.00     0.134 A 
ATOM      5  N2  <0> d           1.278   1.776   0.004  0.00  0.00    -0.306 N 
ATOM      6  C6  <0> d           1.544   3.114   0.012  0.00  0.00    -0.013 A 
ATOM      7  C7  <0> d           0.539   4.015   0.030  0.00  0.00    -0.067 A 
ATOM      8  C8  <0> d          -0.797   3.584   0.040  0.00  0.00    -0.078 A 
ATOM      9  C9  <0> d          -1.075   2.252   0.037  0.00  0.00    -0.038 A 
ATOM     10  H4  <0> d           1.575  -1.466  -0.025  0.00  0.00     0.118 H 
ATOM     11  H5  <0> d           2.569   3.455   0.005  0.00  0.00     0.112 H 
ATOM     12  H6  <0> d           0.764   5.072   0.037  0.00  0.00     0.085 H 
ATOM     13  H7  <0> d          -1.600   4.306   0.054  0.00  0.00     0.083 H 
ATOM     14  H8  <0> d          -2.100   1.909   0.050  0.00  0.00     0.089 H 
ENDROOT
BRANCH   1  15
ATOM     15  C2  <0> d           3.562   0.654  -0.028  0.00  0.00    -0.064 C 
ATOM     16  C1  <0> d           4.220  -0.500   0.060  0.00  0.00    -0.119 C 
ATOM     17  H1  <0> d           5.319  -0.508   0.048  0.00  0.00     0.066 H 
ATOM     18  H2  <0> d           3.663  -1.445   0.144  0.00  0.00     0.066 H 
ATOM     19  H3  <0> d           4.119   1.599  -0.113  0.00  0.00     0.085 H 
ENDBRANCH   1  15
TORSDOF 1
