REMARK  2 active torsions:
REMARK  status: ('A' for Active; 'I' for Inactive)
REMARK    1  A    between atoms: C1_1  and  C2_2 
REMARK    2  A    between atoms: C1_1  and  C3_6 
REMARK       I    between atoms: C3_6  and  N4_8 
ROOT
ATOM      1  C1  <0> d           1.756  -1.813  -0.025  0.00  0.00     0.069 C 
ATOM      2  H1  <0> d           1.458  -2.295  -0.957  0.00  0.00     0.059 H 
ATOM      3  H2  <0> d           2.843  -1.815   0.054  0.00  0.00     0.059 H 
ENDROOT
BRANCH   1   4
ATOM      4  C2  <0> d           1.254  -0.392  -0.012  0.00  0.00     0.182 A 
ATOM      5  N3  <0> d           0.002  -0.004   0.002  0.00  0.00    -0.111 NA
ATOM      6  N2  <0> d          -0.015   1.284   0.009  0.00  0.00    -0.021 NA
ATOM      7  N1  <0> d           1.193   1.728  -0.000  0.00  0.00    -0.021 NA
ATOM      8  N5  <0> d           1.990   0.725  -0.013  0.00  0.00    -0.111 NA
ENDBRANCH   1   4
BRANCH   1   9
ATOM      9  C3  <0> d           1.166  -2.565   1.140  0.00  0.00     0.222 C 
ATOM     10  O1  <0> d           0.412  -2.002   1.906  0.00  0.00    -0.273 OA
ATOM     11  N4  <0> d           1.476  -3.862   1.331  0.00  0.00    -0.370 N 
ATOM     12  H3  <0> d           2.079  -4.312   0.719  0.00  0.00     0.159 HD
ATOM     13  H4  <0> d           1.096  -4.346   2.081  0.00  0.00     0.159 HD
ENDBRANCH   1   9
TORSDOF 2
