REMARK  5 active torsions:
REMARK  status: ('A' for Active; 'I' for Inactive)
REMARK    1  A    between atoms: C1_1  and  C2_2 
REMARK    2  A    between atoms: C2_2  and  C3_3 
REMARK    3  A    between atoms: C3_3  and  N1_4 
REMARK    4  A    between atoms: C5_6  and  C9_13 
REMARK    5  A    between atoms: C6_9  and  C8_12 
ROOT
ATOM      1  N1  <0> d          -2.154   1.144  -1.177  0.00  0.00     0.093 N 
ATOM      2  C4  <0> d          -0.755   1.594  -1.231  0.00  0.00     0.137 C 
ATOM      3  C5  <0> d          -0.013   1.086   0.008  0.00  0.00     0.061 C 
ATOM      4  H1  <0> d          -0.029  -0.013   0.062  0.00  0.00     0.085 H 
ATOM      5  O1  <0> d          -0.684   1.548   1.183  0.00  0.00    -0.378 OA
ATOM      6  C6  <0> d          -2.049   1.128   1.269  0.00  0.00     0.061 C 
ATOM      7  H2  <0> d          -2.026   0.029   1.299  0.00  0.00     0.085 H 
ATOM      8  C7  <0> d          -2.812   1.636   0.042  0.00  0.00     0.137 C 
ATOM      9  H10 <0> d          -0.276   1.194  -2.137  0.00  0.00     0.083 H 
ATOM     10  H11 <0> d          -0.724   2.693  -1.254  0.00  0.00     0.083 H 
ATOM     11  H12 <0> d          -2.814   2.736   0.040  0.00  0.00     0.083 H 
ATOM     12  H13 <0> d          -3.848   1.268   0.074  0.00  0.00     0.083 H 
ENDROOT
BRANCH   1  13
ATOM     13  C3  <0> d          -2.888   1.563  -2.377  0.00  0.00     0.113 C 
ATOM     14  H8  <0> d          -2.528   0.992  -3.246  0.00  0.00     0.079 H 
ATOM     15  H9  <0> d          -2.724   2.637  -2.552  0.00  0.00     0.079 H 
BRANCH  13  16
ATOM     16  C2  <0> d          -4.383   1.302  -2.179  0.00  0.00    -0.043 C 
ATOM     17  H6  <0> d          -4.742   1.873  -1.310  0.00  0.00     0.035 H 
ATOM     18  H7  <0> d          -4.547   0.228  -2.004  0.00  0.00     0.035 H 
BRANCH  16  19
ATOM     19  C1  <0> d          -5.148   1.738  -3.429  0.00  0.00    -0.075 C 
ATOM     20  H3  <0> d          -6.222   1.550  -3.286  0.00  0.00     0.027 H 
ATOM     21  H4  <0> d          -4.788   1.167  -4.298  0.00  0.00     0.027 H 
ATOM     22  H5  <0> d          -4.984   2.812  -3.603  0.00  0.00     0.027 H 
ENDBRANCH  16  19
ENDBRANCH  13  16
ENDBRANCH   1  13
BRANCH   6  23
ATOM     23  C8  <0> d          -2.682   1.701   2.538  0.00  0.00    -0.051 C 
ATOM     24  H14 <0> d          -3.732   1.377   2.603  0.00  0.00     0.030 H 
ATOM     25  H15 <0> d          -2.639   2.800   2.506  0.00  0.00     0.030 H 
ATOM     26  H16 <0> d          -2.132   1.338   3.418  0.00  0.00     0.030 H 
ENDBRANCH   6  23
BRANCH   3  27
ATOM     27  C9  <0> d           1.422   1.616  -0.003  0.00  0.00    -0.051 C 
ATOM     28  H17 <0> d           1.955   1.251   0.888  0.00  0.00     0.030 H 
ATOM     29  H18 <0> d           1.407   2.716   0.005  0.00  0.00     0.030 H 
ATOM     30  H19 <0> d           1.937   1.263  -0.909  0.00  0.00     0.030 H 
ENDBRANCH   3  27
TORSDOF 5
