REMARK  5 active torsions:
REMARK  status: ('A' for Active; 'I' for Inactive)
REMARK    1  A    between atoms: C1_1  and  C2_2 
REMARK    2  A    between atoms: C6_6  and  N1_9 
REMARK    3  A    between atoms: C7_7  and  C8_8 
REMARK    4  A    between atoms: N1_9  and  C9_10 
REMARK    5  A    between atoms: C9_10  and  C10_11 
ROOT
ATOM      1  C10 <0> d           0.084  -4.762   3.763  0.00  0.00    -0.098 C 
ATOM      2  C11 <0> d           0.095  -5.162   4.867  0.00  0.00    -0.152 C 
ATOM      3  H13 <0> d           0.104  -5.519   5.855  0.00  0.00     0.166 H 
ENDROOT
BRANCH   1   4
ATOM      4  C9  <0> d           0.071  -4.261   2.379  0.00  0.00     0.047 C 
ATOM      5  H11 <0> d          -0.817  -4.633   1.867  0.00  0.00     0.083 H 
ATOM      6  H12 <0> d           0.963  -4.609   1.858  0.00  0.00     0.083 H 
BRANCH   4   7
ATOM      7  N1  <0> d           0.051  -2.796   2.390  0.00  0.00    -0.379 N 
ATOM      8  H10 <0> d           0.049  -2.318   3.234  0.00  0.00     0.160 HD
BRANCH   7   9
ATOM      9  C6  <0> d           0.036  -2.089   1.186  0.00  0.00     0.035 A 
ATOM     10  C5  <0> d           0.039  -2.773  -0.023  0.00  0.00    -0.057 A 
ATOM     11  C4  <0> d           0.024  -2.071  -1.212  0.00  0.00    -0.080 A 
ATOM     12  H6  <0> d           0.053  -3.853  -0.033  0.00  0.00     0.086 H 
ATOM     13  C3  <0> d           0.006  -0.688  -1.200  0.00  0.00    -0.077 A 
ATOM     14  H5  <0> d           0.026  -2.602  -2.152  0.00  0.00     0.083 H 
ATOM     15  C2  <0> d           0.002  -0.004   0.002  0.00  0.00    -0.054 A 
ATOM     16  H4  <0> d          -0.006  -0.141  -2.131  0.00  0.00     0.084 H 
ATOM     17  C7  <0> d           0.023  -0.700   1.194  0.00  0.00    -0.030 A 
BRANCH  15  18
ATOM     18  C1  <0> d          -0.018   1.503   0.010  0.00  0.00    -0.051 C 
ATOM     19  H1  <0> d           1.004   1.880   0.003  0.00  0.00     0.033 H 
ATOM     20  H2  <0> d          -0.545   1.864  -0.873  0.00  0.00     0.033 H 
ATOM     21  H3  <0> d          -0.529   1.854   0.907  0.00  0.00     0.033 H 
ENDBRANCH  15  18
BRANCH  17  22
ATOM     22  C8  <0> d           0.025   0.046   2.504  0.00  0.00    -0.049 C 
ATOM     23  H7  <0> d          -1.002   0.212   2.829  0.00  0.00     0.033 H 
ATOM     24  H8  <0> d           0.554  -0.540   3.255  0.00  0.00     0.033 H 
ATOM     25  H9  <0> d           0.525   1.006   2.374  0.00  0.00     0.033 H 
ENDBRANCH  17  22
ENDBRANCH   7   9
ENDBRANCH   4   7
ENDBRANCH   1   4
TORSDOF 5
