REMARK  4 active torsions:
REMARK  status: ('A' for Active; 'I' for Inactive)
REMARK    1  A    between atoms: C1_1  and  C2_2 
REMARK    2  A    between atoms: N1_5  and  C5_7 
REMARK    3  A    between atoms: C5_7  and  C6_8 
REMARK    4  A    between atoms: C6_8  and  C7_9 
ROOT
ATOM      1  C2  <0> d           0.002  -0.004   0.002  0.00  0.00     0.052 A 
ATOM      2  C3  <0> d           0.008  -0.818  -1.135  0.00  0.00    -0.041 A 
ATOM      3  C4  <0> d           0.028  -2.107  -0.725  0.00  0.00     0.000 A 
ATOM      4  N1  <0> d           0.034  -2.109   0.625  0.00  0.00    -0.280 N 
ATOM      5  N2  <0> d           0.023  -0.777   1.058  0.00  0.00    -0.178 NA
ATOM      6  H4  <0> d          -0.002  -0.478  -2.160  0.00  0.00     0.088 H 
ATOM      7  H5  <0> d           0.037  -2.978  -1.363  0.00  0.00     0.114 H 
ENDROOT
BRANCH   4   8
ATOM      8  C5  <0> d           0.055  -3.295   1.485  0.00  0.00     0.025 C 
ATOM      9  H6  <0> d          -0.873  -3.347   2.054  0.00  0.00     0.068 H 
ATOM     10  H7  <0> d           0.154  -4.189   0.869  0.00  0.00     0.068 H 
BRANCH   8  11
ATOM     11  C6  <0> d           1.240  -3.205   2.448  0.00  0.00     0.032 C 
ATOM     12  H8  <0> d           2.168  -3.153   1.879  0.00  0.00     0.051 H 
ATOM     13  H9  <0> d           1.141  -2.311   3.064  0.00  0.00     0.051 H 
BRANCH  11  14
ATOM     14  C7  <0> d           1.261  -4.425   3.333  0.00  0.00     0.174 C 
ATOM     15  O1  <0> d           0.407  -5.286   3.205  0.00  0.00    -0.648 OA
ATOM     16  O2  <0> d           2.132  -4.551   4.177  0.00  0.00    -0.648 OA
ENDBRANCH  11  14
ENDBRANCH   8  11
ENDBRANCH   4   8
BRANCH   1  17
ATOM     17  C1  <0> d          -0.018   1.503   0.010  0.00  0.00    -0.034 C 
ATOM     18  H1  <0> d           1.004   1.880   0.003  0.00  0.00     0.035 H 
ATOM     19  H2  <0> d          -0.545   1.864  -0.873  0.00  0.00     0.035 H 
ATOM     20  H3  <0> d          -0.529   1.854   0.907  0.00  0.00     0.035 H 
ENDBRANCH   1  17
TORSDOF 4
