REMARK  3 active torsions:
REMARK  status: ('A' for Active; 'I' for Inactive)
REMARK    1  A    between atoms: C1_1  and  O1_2 
REMARK    2  A    between atoms: O1_2  and  C2_3 
REMARK    3  A    between atoms: C6_7  and  C8_9 
ROOT
ATOM      1  C8  <0> d          -0.065   5.351   0.032  0.00  0.00     0.038 C 
ATOM      2  C9  <0> d          -0.084   5.849  -1.353  0.00  0.00     0.063 C 
ATOM      3  N1  <0> d          -0.098   6.233  -2.422  0.00  0.00    -0.197 NA
ATOM      4  H8  <0> d          -0.954   5.702   0.556  0.00  0.00     0.062 H 
ATOM      5  H9  <0> d           0.826   5.721   0.539  0.00  0.00     0.062 H 
ENDROOT
BRANCH   1   6
ATOM      6  C6  <0> d          -0.049   3.844   0.023  0.00  0.00    -0.043 A 
ATOM      7  C5  <0> d           1.156   3.166   0.008  0.00  0.00    -0.076 A 
ATOM      8  C4  <0> d           1.174   1.783   0.000  0.00  0.00    -0.080 A 
ATOM      9  H6  <0> d           2.084   3.717   0.002  0.00  0.00     0.084 H 
ATOM     10  C3  <0> d          -0.013   1.076   0.008  0.00  0.00    -0.051 A 
ATOM     11  H5  <0> d           2.116   1.256  -0.012  0.00  0.00     0.083 H 
ATOM     12  C2  <0> d          -1.223   1.754   0.017  0.00  0.00     0.068 A 
ATOM     13  H4  <0> d           0.002  -0.004   0.002  0.00  0.00     0.087 H 
ATOM     14  C7  <0> d          -1.239   3.141   0.031  0.00  0.00    -0.044 A 
ATOM     15  H7  <0> d          -2.179   3.671   0.044  0.00  0.00     0.088 H 
BRANCH  12  16
ATOM     16  O1  <0> d          -2.392   1.060   0.019  0.00  0.00    -0.356 OA
BRANCH  16  17
ATOM     17  C1  <0> d          -2.300  -0.366   0.011  0.00  0.00     0.010 C 
ATOM     18  H1  <0> d          -1.759  -0.700   0.896  0.00  0.00     0.066 H 
ATOM     19  H2  <0> d          -3.302  -0.795   0.013  0.00  0.00     0.066 H 
ATOM     20  H3  <0> d          -1.768  -0.691  -0.883  0.00  0.00     0.066 H 
ENDBRANCH  16  17
ENDBRANCH  12  16
ENDBRANCH   1   6
TORSDOF 3
