REMARK  1 active torsions:
REMARK  status: ('A' for Active; 'I' for Inactive)
REMARK    1  A    between atoms: C1_1  and  C2_2 
ROOT
ATOM      1  C2  <0> d           0.002  -0.004   0.002  0.00  0.00    -0.061 A 
ATOM      2  C3  <0> d           0.006  -0.688  -1.202  0.00  0.00    -0.076 A 
ATOM      3  C4  <0> d           0.025  -2.064  -1.216  0.00  0.00    -0.069 A 
ATOM      4  C5  <0> d           0.041  -2.780  -0.008  0.00  0.00     0.016 A 
ATOM      5  C6  <0> d           0.037  -2.082   1.200  0.00  0.00    -0.043 A 
ATOM      6  C7  <0> d           0.023  -0.700   1.197  0.00  0.00    -0.070 A 
ATOM      7  C8  <0> d           0.056  -3.060   2.350  0.00  0.00    -0.034 A 
ATOM      8  C9  <0> d           0.072  -4.461   1.724  0.00  0.00    -0.001 A 
ATOM      9  C10 <0> d           0.062  -4.232   0.232  0.00  0.00     0.160 A 
ATOM     10  O1  <0> d           0.070  -5.094  -0.621  0.00  0.00    -0.292 OA
ATOM     11  H4  <0> d          -0.007  -0.140  -2.132  0.00  0.00     0.084 H 
ATOM     12  H5  <0> d           0.027  -2.594  -2.157  0.00  0.00     0.085 H 
ATOM     13  H6  <0> d           0.024  -0.161   2.133  0.00  0.00     0.085 H 
ATOM     14  H7  <0> d           0.950  -2.909   2.954  0.00  0.00     0.040 H 
ATOM     15  H8  <0> d          -0.836  -2.934   2.963  0.00  0.00     0.040 H 
ATOM     16  H9  <0> d           0.976  -4.995   2.018  0.00  0.00     0.045 H 
ATOM     17  H10 <0> d          -0.813  -5.020   2.026  0.00  0.00     0.045 H 
ENDROOT
BRANCH   1  18
ATOM     18  C1  <0> d          -0.018   1.503   0.010  0.00  0.00    -0.051 C 
ATOM     19  H1  <0> d           1.004   1.880   0.003  0.00  0.00     0.033 H 
ATOM     20  H2  <0> d          -0.545   1.864  -0.873  0.00  0.00     0.033 H 
ATOM     21  H3  <0> d          -0.529   1.854   0.907  0.00  0.00     0.033 H 
ENDBRANCH   1  18
TORSDOF 1
