REMARK  3 active torsions:
REMARK  status: ('A' for Active; 'I' for Inactive)
REMARK    1  A    between atoms: C1_1  and  C2_2 
REMARK    2  A    between atoms: C2_2  and  C3_4 
REMARK    3  A    between atoms: C5_7  and  N2_9 
ROOT
ATOM      1  C3  <0> d          -1.207  -0.724   0.010  0.00  0.00     0.142 A 
ATOM      2  C4  <0> d          -1.349  -2.098   0.009  0.00  0.00     0.043 A 
ATOM      3  N1  <0> d          -2.655  -2.363   0.019  0.00  0.00    -0.218 NA
ATOM      4  C5  <0> d          -3.325  -1.228   0.025  0.00  0.00     0.244 A 
ATOM      5  O2  <0> d          -2.461  -0.204   0.025  0.00  0.00    -0.273 OA
ATOM      6  H4  <0> d          -0.549  -2.824   0.002  0.00  0.00     0.119 H 
ENDROOT
BRANCH   1   7
ATOM      7  C2  <0> d           0.002  -0.004   0.002  0.00  0.00     0.180 C 
ATOM      8  O1  <0> d           1.063  -0.597  -0.011  0.00  0.00    -0.291 OA
BRANCH   7   9
ATOM      9  C1  <0> d          -0.018   1.503   0.010  0.00  0.00    -0.015 C 
ATOM     10  H1  <0> d           1.004   1.880   0.003  0.00  0.00     0.038 H 
ATOM     11  H2  <0> d          -0.545   1.864  -0.873  0.00  0.00     0.038 H 
ATOM     12  H3  <0> d          -0.529   1.854   0.907  0.00  0.00     0.038 H 
ENDBRANCH   7   9
ENDBRANCH   1   7
BRANCH   4  13
ATOM     13  N2  <0> d          -4.691  -1.114   0.035  0.00  0.00    -0.363 N 
ATOM     14  H5  <0> d          -5.244  -1.910   0.038  0.00  0.00     0.159 HD
ATOM     15  H6  <0> d          -5.104  -0.236   0.038  0.00  0.00     0.159 HD
ENDBRANCH   4  13
TORSDOF 3
