REMARK  4 active torsions:
REMARK  status: ('A' for Active; 'I' for Inactive)
REMARK    1  A    between atoms: C1_1  and  N1_2 
REMARK    2  A    between atoms: C4_6  and  N3_7 
REMARK    3  A    between atoms: N3_7  and  C5_8 
REMARK    4  A    between atoms: C5_8  and  C6_9 
ROOT
ATOM      1  N1  <0> d          -0.016   1.356   0.009  0.00  0.00    -0.195 N 
ATOM      2  C2  <0> d           1.294   1.777  -0.001  0.00  0.00     0.014 A 
ATOM      3  C3  <0> d           2.060   0.672  -0.014  0.00  0.00     0.036 A 
ATOM      4  N2  <0> d           1.252  -0.402  -0.012  0.00  0.00    -0.076 NA
ATOM      5  C4  <0> d           0.002  -0.004   0.002  0.00  0.00     0.702 A 
ATOM      6  H4  <0> d           1.641   2.800   0.001  0.00  0.00     0.114 H 
ATOM      7  H5  <0> d           3.140   0.652  -0.025  0.00  0.00     0.117 H 
ENDROOT
BRANCH   5   8
ATOM      8  N3  <0> d          -1.110  -0.829   0.009  0.00  0.00    -0.221 N 
ATOM      9  H6  <0> d          -2.000  -0.444   0.019  0.00  0.00     0.178 HD
BRANCH   8  10
ATOM     10  C5  <0> d          -0.943  -2.285  -0.001  0.00  0.00     0.024 C 
ATOM     11  H7  <0> d          -0.400  -2.582  -0.898  0.00  0.00     0.070 H 
ATOM     12  H8  <0> d          -0.382  -2.591   0.882  0.00  0.00     0.070 H 
BRANCH  10  13
ATOM     13  C6  <0> d          -2.297  -2.946   0.009  0.00  0.00    -0.095 C 
ATOM     14  C7  <0> d          -2.609  -3.813  -0.922  0.00  0.00    -0.123 C 
ATOM     15  H10 <0> d          -3.579  -4.288  -0.915  0.00  0.00     0.066 H 
ATOM     16  H11 <0> d          -1.896  -4.054  -1.696  0.00  0.00     0.066 H 
ATOM     17  H9  <0> d          -3.010  -2.705   0.784  0.00  0.00     0.078 H 
ENDBRANCH  10  13
ENDBRANCH   8  10
ENDBRANCH   5   8
BRANCH   1  18
ATOM     18  C1  <0> d          -1.206   2.211   0.020  0.00  0.00     0.002 C 
ATOM     19  H1  <0> d          -1.496   2.418   1.050  0.00  0.00     0.058 H 
ATOM     20  H2  <0> d          -0.984   3.149  -0.490  0.00  0.00     0.058 H 
ATOM     21  H3  <0> d          -2.023   1.704  -0.492  0.00  0.00     0.058 H 
ENDBRANCH   1  18
TORSDOF 4
