REMARK  3 active torsions:
REMARK  status: ('A' for Active; 'I' for Inactive)
REMARK    1  A    between atoms: C1_1  and  N1_2 
REMARK    2  A    between atoms: N1_2  and  C2_3 
REMARK    3  A    between atoms: N2_6  and  C6_10 
ROOT
ATOM      1  C2  <0> d           0.017   4.164   0.023  0.00  0.00     0.109 A 
ATOM      2  C3  <0> d          -1.214   3.477   0.031  0.00  0.00    -0.029 A 
ATOM      3  C4  <0> d          -1.209   2.122   0.019  0.00  0.00    -0.013 A 
ATOM      4  N2  <0> d          -0.018   1.461   0.010  0.00  0.00    -0.312 N 
ATOM      5  C5  <0> d           1.140   2.146   0.003  0.00  0.00     0.349 A 
ATOM      6  O1  <0> d           2.197   1.537  -0.011  0.00  0.00    -0.244 OA
ATOM      7  N3  <0> d           1.151   3.478   0.009  0.00  0.00    -0.182 NA
ATOM      8  H5  <0> d          -2.147   4.021   0.043  0.00  0.00     0.090 H 
ATOM      9  H6  <0> d          -2.139   1.573   0.021  0.00  0.00     0.111 H 
ENDROOT
BRANCH   1  10
ATOM     10  N1  <0> d           0.040   5.540   0.030  0.00  0.00    -0.281 NA
ATOM     11  H4  <0> d          -0.472   5.786   0.853  0.00  0.00     0.128 HD
BRANCH  10  12
ATOM     12  C1  <0> d           1.321   6.250   0.023  0.00  0.00    -0.030 C 
ATOM     13  H1  <0> d           1.896   5.973   0.906  0.00  0.00     0.048 H 
ATOM     14  H2  <0> d           1.880   5.982  -0.874  0.00  0.00     0.048 H 
ATOM     15  H3  <0> d           1.141   7.325   0.030  0.00  0.00     0.048 H 
ENDBRANCH  10  12
ENDBRANCH   1  10
BRANCH   4  16
ATOM     16  C6  <0> d           0.002  -0.004   0.002  0.00  0.00    -0.010 C 
ATOM     17  H7  <0> d           1.034  -0.353  -0.010  0.00  0.00     0.057 H 
ATOM     18  H8  <0> d          -0.498  -0.379   0.895  0.00  0.00     0.057 H 
ATOM     19  H9  <0> d          -0.515  -0.370  -0.885  0.00  0.00     0.057 H 
ENDBRANCH   4  16
TORSDOF 3
