REMARK  1 active torsions:
REMARK  status: ('A' for Active; 'I' for Inactive)
REMARK    1  A    between atoms: C2_2  and  C3_3 
ROOT
ATOM      1  C1  <0> d           0.018  -1.178  -0.004  0.00  0.00    -0.149 C 
ATOM      2  C2  <0> d           0.002  -0.004   0.002  0.00  0.00    -0.071 C 
ATOM      3  H1  <0> d           0.032  -2.228  -0.010  0.00  0.00     0.166 H 
ENDROOT
BRANCH   2   4
ATOM      4  C3  <0> d          -0.017   1.428   0.010  0.00  0.00     0.093 A 
ATOM      5  C8  <0> d           1.181   2.146   0.002  0.00  0.00     0.138 A 
ATOM      6  C7  <0> d           1.154   3.528   0.004  0.00  0.00    -0.044 A 
ATOM      7  F1  <0> d           2.363   1.492  -0.013  0.00  0.00    -0.204 F 
ATOM      8  C6  <0> d          -0.055   4.200   0.026  0.00  0.00    -0.077 A 
ATOM      9  H4  <0> d           2.079   4.085  -0.007  0.00  0.00     0.088 H 
ATOM     10  C5  <0> d          -1.245   3.495   0.039  0.00  0.00    -0.044 A 
ATOM     11  H3  <0> d          -0.070   5.280   0.032  0.00  0.00     0.083 H 
ATOM     12  C4  <0> d          -1.235   2.113   0.031  0.00  0.00     0.138 A 
ATOM     13  H2  <0> d          -2.185   4.027   0.055  0.00  0.00     0.088 H 
ATOM     14  F2  <0> d          -2.398   1.427   0.043  0.00  0.00    -0.204 F 
ENDBRANCH   2   4
TORSDOF 1
