REMARK  1 active torsions:
REMARK  status: ('A' for Active; 'I' for Inactive)
REMARK    1  A    between atoms: C4_5  and  N3_7 
ROOT
ATOM      1  C1  <0> d           2.300  -0.045  -0.018  0.00  0.00     0.029 A 
ATOM      2  C2  <0> d           2.316   1.346  -0.007  0.00  0.00    -0.015 A 
ATOM      3  C3  <0> d           1.113   2.019   0.002  0.00  0.00     0.061 A 
ATOM      4  N1  <0> d          -0.016   1.319   0.009  0.00  0.00    -0.067 NA
ATOM      5  C4  <0> d           0.002  -0.004   0.002  0.00  0.00     0.720 A 
ATOM      6  N2  <0> d           1.142  -0.680  -0.013  0.00  0.00    -0.075 NA
ATOM      7  C5  <0> d           1.026   3.521  -0.002  0.00  0.00    -0.024 C 
ATOM      8  C6  <0> d           2.358   4.134   0.426  0.00  0.00    -0.060 C 
ATOM      9  C7  <0> d           3.475   3.511  -0.419  0.00  0.00    -0.061 C 
ATOM     10  C8  <0> d           3.643   2.051  -0.000  0.00  0.00    -0.038 C 
ATOM     11  H1  <0> d           3.226  -0.600  -0.030  0.00  0.00     0.116 H 
ATOM     12  H4  <0> d           0.776   3.865  -1.006  0.00  0.00     0.042 H 
ATOM     13  H5  <0> d           0.244   3.838   0.689  0.00  0.00     0.042 H 
ATOM     14  H6  <0> d           2.334   5.212   0.264  0.00  0.00     0.033 H 
ATOM     15  H7  <0> d           2.535   3.927   1.482  0.00  0.00     0.033 H 
ATOM     16  H8  <0> d           3.206   3.560  -1.475  0.00  0.00     0.033 H 
ATOM     17  H9  <0> d           4.406   4.053  -0.253  0.00  0.00     0.033 H 
ATOM     18  H10 <0> d           4.067   2.011   1.003  0.00  0.00     0.040 H 
ATOM     19  H11 <0> d           4.320   1.553  -0.694  0.00  0.00     0.040 H 
ENDROOT
BRANCH   5  20
ATOM     20  N3  <0> d          -1.196  -0.697   0.010  0.00  0.00    -0.231 N 
ATOM     21  H2  <0> d          -2.036  -0.213   0.021  0.00  0.00     0.174 HD
ATOM     22  H3  <0> d          -1.195  -1.667   0.005  0.00  0.00     0.174 HD
ENDBRANCH   5  20
TORSDOF 1
