REMARK  8 active torsions:
REMARK  status: ('A' for Active; 'I' for Inactive)
REMARK    1  A    between atoms: C1_1  and  C2_2 
REMARK    2  A    between atoms: C2_2  and  C3_3 
REMARK    3  A    between atoms: C3_3  and  C4_4 
REMARK    4  A    between atoms: C4_4  and  C5_5 
REMARK    5  A    between atoms: C5_5  and  C6_7 
REMARK    6  A    between atoms: C5_5  and  C8_9 
REMARK    7  A    between atoms: C6_7  and  C7_8 
REMARK    8  A    between atoms: C8_9  and  O1_10 
ROOT
ATOM      1  C5  <0> d           1.513  -2.407  -2.538  0.00  0.00    -0.034 C 
ATOM      2  H1  <0> d           2.532  -2.018  -2.554  0.00  0.00     0.043 H 
ENDROOT
BRANCH   1   3
ATOM      3  C4  <0> d           0.809  -1.939  -1.263  0.00  0.00    -0.060 C 
ATOM      4  H9  <0> d          -0.173  -2.407  -1.197  0.00  0.00     0.033 H 
ATOM      5  H10 <0> d           0.694  -0.855  -1.288  0.00  0.00     0.033 H 
BRANCH   3   6
ATOM      6  C3  <0> d           1.646  -2.334  -0.044  0.00  0.00    -0.065 C 
ATOM      7  H7  <0> d           2.657  -1.943  -0.155  0.00  0.00     0.033 H 
ATOM      8  H8  <0> d           1.683  -3.421   0.035  0.00  0.00     0.033 H 
BRANCH   6   9
ATOM      9  C2  <0> d           1.010  -1.753   1.221  0.00  0.00    -0.069 C 
ATOM     10  H5  <0> d          -0.001  -2.144   1.332  0.00  0.00     0.032 H 
ATOM     11  H6  <0> d           0.974  -0.666   1.143  0.00  0.00     0.032 H 
BRANCH   9  12
ATOM     12  C1  <0> d           1.847  -2.148   2.440  0.00  0.00    -0.077 C 
ATOM     13  H2  <0> d           1.884  -3.235   2.518  0.00  0.00     0.027 H 
ATOM     14  H3  <0> d           2.858  -1.757   2.328  0.00  0.00     0.027 H 
ATOM     15  H4  <0> d           1.394  -1.734   3.341  0.00  0.00     0.027 H 
ENDBRANCH   9  12
ENDBRANCH   6   9
ENDBRANCH   3   6
ENDBRANCH   1   3
BRANCH   1  16
ATOM     16  C6  <0> d           0.751  -1.891  -3.760  0.00  0.00    -0.063 C 
ATOM     17  H11 <0> d           1.191  -2.308  -4.665  0.00  0.00     0.033 H 
ATOM     18  H12 <0> d          -0.294  -2.193  -3.691  0.00  0.00     0.033 H 
BRANCH  16  19
ATOM     19  C7  <0> d           0.838  -0.364  -3.808  0.00  0.00    -0.076 C 
ATOM     20  H13 <0> d           0.377  -0.003  -4.727  0.00  0.00     0.027 H 
ATOM     21  H14 <0> d           0.315   0.057  -2.949  0.00  0.00     0.027 H 
ATOM     22  H15 <0> d           1.884  -0.058  -3.781  0.00  0.00     0.027 H 
ENDBRANCH  16  19
ENDBRANCH   1  16
BRANCH   1  23
ATOM     23  C8  <0> d           1.550  -3.936  -2.568  0.00  0.00     0.020 C 
ATOM     24  H16 <0> d           2.015  -4.306  -1.654  0.00  0.00     0.074 H 
ATOM     25  H17 <0> d           0.534  -4.323  -2.641  0.00  0.00     0.074 H 
BRANCH  23  26
ATOM     26  O1  <0> d           2.308  -4.372  -3.698  0.00  0.00    -0.400 OA
ATOM     27  H18 <0> d           2.374  -5.333  -3.781  0.00  0.00     0.209 HD
ENDBRANCH  23  26
ENDBRANCH   1  23
TORSDOF 8
