REMARK  3 active torsions:
REMARK  status: ('A' for Active; 'I' for Inactive)
REMARK    1  A    between atoms: C3_6  and  N3_7 
REMARK    2  A    between atoms: N3_7  and  C4_8 
REMARK    3  A    between atoms: C4_8  and  C5_9 
ROOT
ATOM      1  N3  <0> d           1.634   3.161   0.003  0.00  0.00    -0.017 N 
ATOM      2  H4  <0> d           1.237   3.668  -0.889  0.00  0.00     0.286 HD
ATOM      3  H7  <0> d           1.254   3.659   0.907  0.00  0.00     0.286 HD
ENDROOT
BRANCH   1   4
ATOM      4  C3  <0> d           1.224   1.823   0.000  0.00  0.00     0.245 A 
ATOM      5  C1  <0> d           2.069   0.701  -0.014  0.00  0.00    -0.013 A 
ATOM      6  C2  <0> d           1.291  -0.405  -0.012  0.00  0.00    -0.001 A 
ATOM      7  H2  <0> d           3.149   0.719  -0.024  0.00  0.00     0.091 H 
ATOM      8  N1  <0> d           0.002  -0.004   0.002  0.00  0.00    -0.287 N 
ATOM      9  H3  <0> d           1.639  -1.427  -0.021  0.00  0.00     0.113 H 
ATOM     10  H1  <0> d          -0.806  -0.750   0.006  0.00  0.00     0.188 HD
ATOM     11  N2  <0> d          -0.017   1.397   0.010  0.00  0.00    -0.150 NA
ENDBRANCH   1   4
BRANCH   1  12
ATOM     12  C4  <0> d           3.062   3.490  -0.010  0.00  0.00     0.167 C 
ATOM     13  H5  <0> d           3.544   3.063   0.882  0.00  0.00     0.093 H 
ATOM     14  H6  <0> d           3.527   3.071  -0.914  0.00  0.00     0.093 H 
BRANCH  12  15
ATOM     15  C5  <0> d           3.232   4.987  -0.004  0.00  0.00     0.199 C 
ATOM     16  O1  <0> d           2.261   5.706   0.009  0.00  0.00    -0.647 OA
ATOM     17  O2  <0> d           4.463   5.523  -0.013  0.00  0.00    -0.647 OA
ENDBRANCH  12  15
ENDBRANCH   1  12
TORSDOF 3
