REMARK  2 active torsions:
REMARK  status: ('A' for Active; 'I' for Inactive)
REMARK    1  A    between atoms: C1_1  and  C2_2 
REMARK    2  A    between atoms: C5_8  and  C6_10 
ROOT
ATOM      1  C2  <0> d           0.002  -0.004   0.002  0.00  0.00    -0.012 C 
ATOM      2  H1  <0> d           0.512  -0.357  -0.894  0.00  0.00     0.046 H 
ATOM      3  C3  <0> d          -1.435  -0.537   0.019  0.00  0.00     0.027 C 
ATOM      4  O1  <0> d          -1.400  -1.962   0.145  0.00  0.00    -0.366 OA
ATOM      5  C4  <0> d          -0.715  -2.421   1.313  0.00  0.00     0.103 C 
ATOM      6  O2  <0> d           0.631  -1.941   1.295  0.00  0.00    -0.362 OA
ATOM      7  C5  <0> d           0.737  -0.514   1.246  0.00  0.00     0.042 C 
ATOM      8  H2  <0> d           0.284  -0.086   2.140  0.00  0.00     0.083 H 
ATOM      9  H6  <0> d          -1.972  -0.109   0.865  0.00  0.00     0.075 H 
ATOM     10  H7  <0> d          -1.936  -0.265  -0.909  0.00  0.00     0.075 H 
ATOM     11  H8  <0> d          -1.222  -2.047   2.202  0.00  0.00     0.117 H 
ATOM     12  H9  <0> d          -0.712  -3.511   1.327  0.00  0.00     0.117 H 
ENDROOT
BRANCH   1  13
ATOM     13  C1  <0> d          -0.019   1.526   0.010  0.00  0.00    -0.069 C 
ATOM     14  H3  <0> d           1.004   1.903   0.003  0.00  0.00     0.028 H 
ATOM     15  H4  <0> d          -0.546   1.887  -0.873  0.00  0.00     0.028 H 
ATOM     16  H5  <0> d          -0.529   1.877   0.907  0.00  0.00     0.028 H 
ENDBRANCH   1  13
BRANCH   7  17
ATOM     17  C6  <0> d           2.211  -0.110   1.172  0.00  0.00    -0.052 C 
ATOM     18  H10 <0> d           2.287   0.977   1.126  0.00  0.00     0.030 H 
ATOM     19  H11 <0> d           2.732  -0.473   2.058  0.00  0.00     0.030 H 
ATOM     20  H12 <0> d           2.663  -0.544   0.281  0.00  0.00     0.030 H 
ENDBRANCH   7  17
TORSDOF 2
