REMARK  6 active torsions:
REMARK  status: ('A' for Active; 'I' for Inactive)
REMARK    1  A    between atoms: C1_1  and  C2_2 
REMARK    2  A    between atoms: C2_2  and  C3_3 
REMARK       I    between atoms: C3_3  and  N1_5 
REMARK    3  A    between atoms: N1_5  and  C4_6 
REMARK    4  A    between atoms: N1_5  and  C7_9 
REMARK    5  A    between atoms: C4_6  and  C5_7 
REMARK    6  A    between atoms: C7_9  and  C8_10 
ROOT
ATOM      1  C3  <0> d          -4.140   2.389   1.017  0.00  0.00     0.219 C 
ATOM      2  O1  <0> d          -4.818   2.741   1.959  0.00  0.00    -0.273 OA
ATOM      3  N1  <0> d          -3.270   1.369   1.157  0.00  0.00    -0.345 N 
ENDROOT
BRANCH   3   4
ATOM      4  C4  <0> d          -2.451   0.944   0.019  0.00  0.00     0.012 C 
ATOM      5  H6  <0> d          -2.989   1.136  -0.909  0.00  0.00     0.070 H 
ATOM      6  H7  <0> d          -2.239  -0.122   0.102  0.00  0.00     0.070 H 
BRANCH   4   7
ATOM      7  C5  <0> d          -1.156   1.715   0.017  0.00  0.00    -0.095 C 
ATOM      8  C6  <0> d          -0.013   1.076   0.008  0.00  0.00    -0.123 C 
ATOM      9  H9  <0> d           0.002  -0.004   0.002  0.00  0.00     0.066 H 
ATOM     10  H10 <0> d           0.915   1.629   0.002  0.00  0.00     0.066 H 
ATOM     11  H8  <0> d          -1.171   2.795   0.023  0.00  0.00     0.078 H 
ENDBRANCH   4   7
ENDBRANCH   3   4
BRANCH   3  12
ATOM     12  C7  <0> d          -3.145   0.684   2.446  0.00  0.00     0.012 C 
ATOM     13  H11 <0> d          -4.099   0.721   2.971  0.00  0.00     0.070 H 
ATOM     14  H12 <0> d          -2.861  -0.355   2.279  0.00  0.00     0.070 H 
BRANCH  12  15
ATOM     15  C8  <0> d          -2.088   1.366   3.276  0.00  0.00    -0.095 C 
ATOM     16  C9  <0> d          -2.377   1.798   4.478  0.00  0.00    -0.123 C 
ATOM     17  H14 <0> d          -1.620   2.287   5.073  0.00  0.00     0.066 H 
ATOM     18  H15 <0> d          -3.373   1.665   4.875  0.00  0.00     0.066 H 
ATOM     19  H13 <0> d          -1.092   1.499   2.879  0.00  0.00     0.078 H 
ENDBRANCH  12  15
ENDBRANCH   3  12
BRANCH   1  20
ATOM     20  C2  <0> d          -4.269   3.093  -0.309  0.00  0.00     0.006 C 
ATOM     21  H4  <0> d          -3.307   3.527  -0.585  0.00  0.00     0.046 H 
ATOM     22  H5  <0> d          -4.577   2.378  -1.072  0.00  0.00     0.046 H 
BRANCH  20  23
ATOM     23  C1  <0> d          -5.315   4.204  -0.197  0.00  0.00    -0.068 C 
ATOM     24  H1  <0> d          -5.409   4.713  -1.156  0.00  0.00     0.028 H 
ATOM     25  H2  <0> d          -6.277   3.770   0.079  0.00  0.00     0.028 H 
ATOM     26  H3  <0> d          -5.007   4.919   0.565  0.00  0.00     0.028 H 
ENDBRANCH  20  23
ENDBRANCH   1  20
TORSDOF 6
