REMARK  2 active torsions:
REMARK  status: ('A' for Active; 'I' for Inactive)
REMARK    1  A    between atoms: C4_4  and  N2_8 
REMARK    2  A    between atoms: C5_5  and  N1_7 
REMARK       I    between atoms: N2_8  and  C7_9 
REMARK       I    between atoms: C7_9  and  N3_11 
ROOT
ATOM      1  C1  <0> d          -4.851  -0.118  -0.245  0.00  0.00    -0.081 A 
ATOM      2  C2  <0> d          -3.675  -0.840  -0.160  0.00  0.00    -0.081 A 
ATOM      3  C3  <0> d          -2.461  -0.184  -0.077  0.00  0.00    -0.055 A 
ATOM      4  C4  <0> d          -2.421   1.202  -0.070  0.00  0.00     0.062 A 
ATOM      5  C5  <0> d          -3.607   1.931  -0.157  0.00  0.00     0.052 A 
ATOM      6  C6  <0> d          -4.820   1.264  -0.244  0.00  0.00    -0.055 A 
ATOM      7  H1  <0> d          -5.796  -0.635  -0.313  0.00  0.00     0.083 H 
ATOM      8  H2  <0> d          -3.704  -1.919  -0.162  0.00  0.00     0.083 H 
ATOM      9  H3  <0> d          -1.544  -0.751  -0.015  0.00  0.00     0.087 H 
ATOM     10  H4  <0> d          -5.740   1.825  -0.311  0.00  0.00     0.087 H 
ENDROOT
BRANCH   4  11
ATOM     11  N2  <0> d          -1.191   1.870   0.018  0.00  0.00    -0.307 N 
ATOM     12  C7  <0> d          -0.097   1.349  -0.573  0.00  0.00     0.318 C 
ATOM     13  O1  <0> d          -0.158   0.261  -1.113  0.00  0.00    -0.247 OA
ATOM     14  N3  <0> d           1.062   2.036  -0.571  0.00  0.00    -0.352 N 
ATOM     15  H8  <0> d           1.848   1.662  -1.000  0.00  0.00     0.160 HD
ATOM     16  H9  <0> d           1.111   2.904  -0.141  0.00  0.00     0.160 HD
ATOM     17  H7  <0> d          -1.127   2.707   0.504  0.00  0.00     0.170 HD
ENDBRANCH   4  11
BRANCH   5  18
ATOM     18  N1  <0> d          -3.573   3.329  -0.156  0.00  0.00    -0.397 N 
ATOM     19  H5  <0> d          -2.723   3.794  -0.095  0.00  0.00     0.156 HD
ATOM     20  H6  <0> d          -4.399   3.834  -0.216  0.00  0.00     0.156 HD
ENDBRANCH   5  18
TORSDOF 2
