REMARK  2 active torsions:
REMARK  status: ('A' for Active; 'I' for Inactive)
REMARK    1  A    between atoms: C3_4  and  O4_10 
REMARK    2  A    between atoms: C5_7  and  C6_8 
ROOT
ATOM      1  C1  <0> d           2.445   3.693   0.004  0.00  0.00     0.008 A 
ATOM      2  C2  <0> d           2.483   5.115   0.006  0.00  0.00     0.209 A 
ATOM      3  O1  <0> d           3.547   5.714  -0.001  0.00  0.00    -0.285 OA
ATOM      4  C3  <0> d           1.249   5.818   0.021  0.00  0.00     0.138 A 
ATOM      5  C4  <0> d           0.091   5.115   0.029  0.00  0.00     0.055 A 
ATOM      6  O2  <0> d           0.097   3.777   0.021  0.00  0.00    -0.313 OA
ATOM      7  C5  <0> d           1.238   3.069   0.007  0.00  0.00     0.155 A 
ATOM      8  H1  <0> d           3.360   3.119  -0.003  0.00  0.00     0.094 H 
ATOM      9  H2  <0> d          -0.851   5.642   0.041  0.00  0.00     0.128 H 
ENDROOT
BRANCH   7  10
ATOM     10  C6  <0> d           1.181   1.591  -0.001  0.00  0.00     0.234 C 
ATOM     11  O3  <0> d           2.208   0.943  -0.014  0.00  0.00    -0.642 OA
ATOM     12  O5  <0> d          -0.011   0.963   0.007  0.00  0.00    -0.642 OA
ENDBRANCH   7  10
BRANCH   4  13
ATOM     13  O4  <0> d           1.231   7.178   0.028  0.00  0.00    -0.355 OA
ATOM     14  H3  <0> d           1.234   7.567   0.914  0.00  0.00     0.218 HD
ENDBRANCH   4  13
TORSDOF 2
