REMARK  4 active torsions:
REMARK  status: ('A' for Active; 'I' for Inactive)
REMARK    1  A    between atoms: C3_3  and  C5_6 
REMARK    2  A    between atoms: C3_3  and  C6_8 
REMARK    3  A    between atoms: C5_6  and  O2_7 
REMARK    4  A    between atoms: C6_8  and  O3_9 
ROOT
ATOM      1  C1  <0> d           0.390   2.376   3.280  0.00  0.00    -0.042 C 
ATOM      2  C2  <0> d           0.013   1.080   2.522  0.00  0.00    -0.030 C 
ATOM      3  C3  <0> d          -0.729   1.579   1.267  0.00  0.00     0.103 C 
ATOM      4  O1  <0> d          -0.718   3.016   1.304  0.00  0.00    -0.376 OA
ATOM      5  C4  <0> d          -0.615   3.400   2.694  0.00  0.00     0.021 C 
ATOM      6  H1  <0> d           0.242   2.256   4.353  0.00  0.00     0.036 H 
ATOM      7  H2  <0> d           1.417   2.670   3.061  0.00  0.00     0.036 H 
ATOM      8  H3  <0> d          -0.642   0.459   3.131  0.00  0.00     0.037 H 
ATOM      9  H4  <0> d           0.909   0.526   2.240  0.00  0.00     0.037 H 
ATOM     10  H5  <0> d          -1.583   3.312   3.187  0.00  0.00     0.074 H 
ATOM     11  H6  <0> d          -0.227   4.414   2.785  0.00  0.00     0.074 H 
ENDROOT
BRANCH   3  12
ATOM     12  C5  <0> d          -0.013   1.086   0.008  0.00  0.00     0.047 C 
ATOM     13  H7  <0> d           0.002  -0.004   0.002  0.00  0.00     0.078 H 
ATOM     14  H8  <0> d           1.010   1.463   0.000  0.00  0.00     0.078 H 
BRANCH  12  15
ATOM     15  O2  <0> d          -0.704   1.559  -1.150  0.00  0.00    -0.398 OA
ATOM     16  H9  <0> d          -0.304   1.284  -1.986  0.00  0.00     0.209 HD
ENDBRANCH  12  15
ENDBRANCH   3  12
BRANCH   3  17
ATOM     17  C6  <0> d          -2.171   1.069   1.278  0.00  0.00     0.047 C 
ATOM     18  H10 <0> d          -2.172  -0.017   1.371  0.00  0.00     0.078 H 
ATOM     19  H11 <0> d          -2.704   1.506   2.123  0.00  0.00     0.078 H 
BRANCH  17  20
ATOM     20  O3  <0> d          -2.819   1.444   0.061  0.00  0.00    -0.398 OA
ATOM     21  H12 <0> d          -3.739   1.153  -0.001  0.00  0.00     0.209 HD
ENDBRANCH  17  20
ENDBRANCH   3  17
TORSDOF 4
