REMARK  1 active torsions:
REMARK  status: ('A' for Active; 'I' for Inactive)
REMARK    1  A    between atoms: C7_8  and  N3_12 
ROOT
ATOM      1  C1  <0> d           2.371   1.424  -0.013  0.00  0.00    -0.043 A 
ATOM      2  C2  <0> d           1.186   2.105   0.002  0.00  0.00    -0.052 A 
ATOM      3  C3  <0> d          -0.017   1.404   0.010  0.00  0.00     0.064 A 
ATOM      4  C4  <0> d           0.002  -0.004   0.002  0.00  0.00     0.042 A 
ATOM      5  C5  <0> d           1.226  -0.680  -0.013  0.00  0.00    -0.030 A 
ATOM      6  C6  <0> d           2.392   0.033  -0.021  0.00  0.00     0.117 A 
ATOM      7  F1  <0> d           3.575  -0.619  -0.036  0.00  0.00    -0.206 F 
ATOM      8  C7  <0> d          -1.397  -0.434   0.013  0.00  0.00     0.154 A 
ATOM      9  N1  <0> d          -2.142   0.639   0.026  0.00  0.00    -0.156 NA
ATOM     10  N2  <0> d          -1.335   1.782   0.030  0.00  0.00    -0.276 N 
ATOM     11  H1  <0> d          -1.667   2.725   0.045  0.00  0.00     0.189 HD
ATOM     12  H2  <0> d           3.301   1.972  -0.019  0.00  0.00     0.088 H 
ATOM     13  H3  <0> d           1.183   3.185   0.008  0.00  0.00     0.087 H 
ATOM     14  H4  <0> d           1.249  -1.760  -0.020  0.00  0.00     0.089 H 
ENDROOT
BRANCH   8  15
ATOM     15  N3  <0> d          -1.854  -1.755   0.011  0.00  0.00    -0.382 N 
ATOM     16  H5  <0> d          -1.219  -2.488   0.002  0.00  0.00     0.157 HD
ATOM     17  H6  <0> d          -2.807  -1.938   0.019  0.00  0.00     0.157 HD
ENDBRANCH   8  15
TORSDOF 1
