REMARK  0 active torsions:
REMARK  status: ('A' for Active; 'I' for Inactive)
ROOT
ATOM      1  C1  <0> d          -1.250   3.488   0.033  0.00  0.00    -0.077 A 
ATOM      2  C2  <0> d          -0.038   4.159   0.025  0.00  0.00    -0.045 A 
ATOM      3  C3  <0> d           1.150   3.424   0.009  0.00  0.00     0.138 A 
ATOM      4  N1  <0> d           1.125   2.099   0.003  0.00  0.00    -0.227 NA
ATOM      5  C4  <0> d          -0.017   1.428   0.010  0.00  0.00     0.138 A 
ATOM      6  C5  <0> d          -1.240   2.103   0.019  0.00  0.00    -0.045 A 
ATOM      7  C6  <0> d           0.002  -0.004   0.002  0.00  0.00     0.119 C 
ATOM      8  N2  <0> d           0.018  -1.140  -0.004  0.00  0.00    -0.190 NA
ATOM      9  C7  <0> d           2.407   4.109   0.001  0.00  0.00     0.119 C 
ATOM     10  N3  <0> d           3.405   4.653  -0.006  0.00  0.00    -0.190 NA
ATOM     11  H1  <0> d          -2.182   4.033   0.045  0.00  0.00     0.083 H 
ATOM     12  H2  <0> d          -0.012   5.239   0.030  0.00  0.00     0.088 H 
ATOM     13  H3  <0> d          -2.168   1.550   0.021  0.00  0.00     0.088 H 
ENDROOT
TORSDOF 0
