REMARK  6 active torsions:
REMARK  status: ('A' for Active; 'I' for Inactive)
REMARK    1  A    between atoms: C1_1  and  C2_2 
REMARK    2  A    between atoms: C2_2  and  C3_3 
REMARK    3  A    between atoms: C3_3  and  C4_4 
REMARK    4  A    between atoms: C3_3  and  C6_6 
REMARK    5  A    between atoms: C3_3  and  O1_8 
REMARK    6  A    between atoms: C4_4  and  C5_5 
ROOT
ATOM      1  C6  <0> d           1.150   3.027   0.007  0.00  0.00    -0.079 C 
ATOM      2  C7  <0> d           1.042   4.196   0.015  0.00  0.00    -0.151 C 
ATOM      3  H11 <0> d           0.945   5.242   0.021  0.00  0.00     0.166 H 
ENDROOT
BRANCH   1   4
ATOM      4  C3  <0> d           1.286   1.562  -0.002  0.00  0.00     0.119 C 
BRANCH   4   5
ATOM      5  C2  <0> d           2.064   1.114   1.238  0.00  0.00    -0.029 C 
ATOM      6  H4  <0> d           2.164   0.029   1.231  0.00  0.00     0.038 H 
ATOM      7  H5  <0> d           3.053   1.571   1.231  0.00  0.00     0.038 H 
BRANCH   5   8
ATOM      8  C1  <0> d           1.310   1.548   2.497  0.00  0.00    -0.073 C 
ATOM      9  H1  <0> d           1.209   2.634   2.503  0.00  0.00     0.027 H 
ATOM     10  H2  <0> d           0.321   1.091   2.503  0.00  0.00     0.027 H 
ATOM     11  H3  <0> d           1.864   1.229   3.380  0.00  0.00     0.027 H 
ENDBRANCH   5   8
ENDBRANCH   4   5
BRANCH   4  12
ATOM     12  C4  <0> d           2.040   1.127  -1.261  0.00  0.00    -0.029 C 
ATOM     13  H6  <0> d           3.059   1.512  -1.225  0.00  0.00     0.038 H 
ATOM     14  H7  <0> d           2.063   0.039  -1.313  0.00  0.00     0.038 H 
BRANCH  12  15
ATOM     15  C5  <0> d           1.329   1.682  -2.497  0.00  0.00    -0.073 C 
ATOM     16  H8  <0> d           1.866   1.372  -3.394  0.00  0.00     0.027 H 
ATOM     17  H9  <0> d           0.310   1.298  -2.533  0.00  0.00     0.027 H 
ATOM     18  H10 <0> d           1.306   2.770  -2.445  0.00  0.00     0.027 H 
ENDBRANCH  12  15
ENDBRANCH   4  12
BRANCH   4  19
ATOM     19  O1  <0> d          -0.011   0.963   0.007  0.00  0.00    -0.378 OA
ATOM     20  H12 <0> d           0.002  -0.004   0.002  0.00  0.00     0.211 HD
ENDBRANCH   4  19
ENDBRANCH   1   4
TORSDOF 6
