REMARK  0 active torsions:
REMARK  status: ('A' for Active; 'I' for Inactive)
ROOT
ATOM      1  C1  <0> d          -0.017   1.370   0.010  0.00  0.00    -0.047 A 
ATOM      2  C2  <0> d           1.190   2.045   0.002  0.00  0.00     0.003 A 
ATOM      3  N1  <0> d           2.329   1.373  -0.013  0.00  0.00    -0.271 NA
ATOM      4  C3  <0> d           2.395   0.062  -0.021  0.00  0.00     0.031 A 
ATOM      5  C4  <0> d           1.225  -0.720  -0.014  0.00  0.00     0.091 A 
ATOM      6  C5  <0> d           0.002  -0.004   0.002  0.00  0.00     0.037 A 
ATOM      7  S1  <0> d          -1.191  -1.313   0.007  0.00  0.00    -0.080 SA
ATOM      8  C6  <0> d          -0.119  -2.610  -0.010  0.00  0.00     0.041 A 
ATOM      9  N2  <0> d           1.059  -2.057  -0.020  0.00  0.00    -0.251 NA
ATOM     10  H1  <0> d          -0.952   1.911   0.026  0.00  0.00     0.087 H 
ATOM     11  H2  <0> d           1.203   3.125   0.007  0.00  0.00     0.114 H 
ATOM     12  H3  <0> d           3.360  -0.422  -0.033  0.00  0.00     0.118 H 
ATOM     13  H4  <0> d          -0.355  -3.664  -0.013  0.00  0.00     0.126 H 
ENDROOT
TORSDOF 0
