REMARK  1 active torsions:
REMARK  status: ('A' for Active; 'I' for Inactive)
REMARK    1  A    between atoms: C4_4  and  N1_8 
ROOT
ATOM      1  C1  <0> d           1.154   3.438   0.009  0.00  0.00    -0.077 A 
ATOM      2  C2  <0> d          -0.050   4.118   0.024  0.00  0.00    -0.043 A 
ATOM      3  C3  <0> d          -1.242   3.416   0.032  0.00  0.00     0.145 A 
ATOM      4  C4  <0> d          -1.229   2.026   0.019  0.00  0.00     0.103 A 
ATOM      5  C5  <0> d          -0.016   1.347   0.009  0.00  0.00     0.145 A 
ATOM      6  C6  <0> d           1.172   2.056   0.002  0.00  0.00    -0.043 A 
ATOM      7  F1  <0> d           0.002  -0.004   0.002  0.00  0.00    -0.204 F 
ATOM      8  F2  <0> d          -2.418   4.081   0.046  0.00  0.00    -0.204 F 
ATOM      9  H1  <0> d           2.083   3.989   0.003  0.00  0.00     0.083 H 
ATOM     10  H2  <0> d          -0.060   5.198   0.029  0.00  0.00     0.088 H 
ATOM     11  H3  <0> d           2.114   1.528  -0.010  0.00  0.00     0.088 H 
ENDROOT
BRANCH   4  12
ATOM     12  N1  <0> d          -2.433   1.312   0.021  0.00  0.00    -0.394 N 
ATOM     13  H4  <0> d          -2.422   0.343   0.015  0.00  0.00     0.156 HD
ATOM     14  H5  <0> d          -3.279   1.788   0.027  0.00  0.00     0.156 HD
ENDBRANCH   4  12
TORSDOF 1
