REMARK  2 active torsions:
REMARK  status: ('A' for Active; 'I' for Inactive)
REMARK    1  A    between atoms: C1_1  and  O1_2 
REMARK    2  A    between atoms: O1_2  and  C2_3 
ROOT
ATOM      1  C2  <0> d           0.604  -0.605  -1.052  0.00  0.00     0.149 A 
ATOM      2  C3  <0> d           1.157   0.153  -2.035  0.00  0.00    -0.033 A 
ATOM      3  C4  <0> d           1.782  -0.459  -3.129  0.00  0.00    -0.075 A 
ATOM      4  C5  <0> d           1.833  -1.818  -3.206  0.00  0.00    -0.040 A 
ATOM      5  C6  <0> d           1.256  -2.591  -2.181  0.00  0.00     0.113 A 
ATOM      6  N1  <0> d           0.655  -1.969  -1.117  0.00  0.00    -0.287 N 
ATOM      7  C7  <0> d           0.194  -2.956  -0.283  0.00  0.00     0.004 A 
ATOM      8  C8  <0> d           0.524  -4.138  -0.845  0.00  0.00    -0.006 A 
ATOM      9  N2  <0> d           1.159  -3.901  -1.997  0.00  0.00    -0.351 N 
ATOM     10  H4  <0> d           1.115   1.230  -1.972  0.00  0.00     0.090 H 
ATOM     11  H5  <0> d           2.221   0.145  -3.910  0.00  0.00     0.083 H 
ATOM     12  H6  <0> d           2.312  -2.298  -4.046  0.00  0.00     0.089 H 
ATOM     13  H7  <0> d          -0.333  -2.814   0.648  0.00  0.00     0.114 H 
ATOM     14  H8  <0> d           0.303  -5.113  -0.437  0.00  0.00     0.113 H 
ATOM     15  H9  <0> d           1.503  -4.580  -2.599  0.00  0.00     0.166 HD
ENDROOT
BRANCH   1  16
ATOM     16  O1  <0> d           0.002  -0.004   0.002  0.00  0.00    -0.340 OA
BRANCH  16  17
ATOM     17  C1  <0> d          -0.017   1.425   0.010  0.00  0.00     0.012 C 
ATOM     18  H1  <0> d           1.005   1.802   0.002  0.00  0.00     0.067 H 
ATOM     19  H2  <0> d          -0.544   1.786  -0.873  0.00  0.00     0.067 H 
ATOM     20  H3  <0> d          -0.527   1.776   0.907  0.00  0.00     0.067 H 
ENDBRANCH  16  17
ENDBRANCH   1  16
TORSDOF 2
