REMARK  0 active torsions:
REMARK  status: ('A' for Active; 'I' for Inactive)
ROOT
ATOM      1  C1  <0> d          -2.186   1.063  -1.217  0.00  0.00    -0.064 C 
ATOM      2  C2  <0> d          -0.750   1.591  -1.234  0.00  0.00    -0.063 C 
ATOM      3  C3  <0> d          -0.013   1.086   0.008  0.00  0.00    -0.040 C 
ATOM      4  C4  <0> d          -0.724   1.577   1.266  0.00  0.00     0.046 C 
ATOM      5  H1  <0> d          -0.203   1.199   2.145  0.00  0.00     0.084 H 
ATOM      6  C5  <0> d          -2.171   1.078   1.285  0.00  0.00    -0.008 C 
ATOM      7  H2  <0> d          -2.197  -0.011   1.322  0.00  0.00     0.047 H 
ATOM      8  C6  <0> d          -2.899   1.576   0.035  0.00  0.00    -0.058 C 
ATOM      9  C7  <0> d          -2.865   1.661   2.524  0.00  0.00     0.028 C 
ATOM     10  O1  <0> d          -2.734   3.086   2.494  0.00  0.00    -0.366 OA
ATOM     11  C8  <0> d          -1.381   3.545   2.458  0.00  0.00     0.103 C 
ATOM     12  O2  <0> d          -0.721   3.005   1.309  0.00  0.00    -0.361 OA
ATOM     13  H3  <0> d          -2.713   1.413  -2.105  0.00  0.00     0.033 H 
ATOM     14  H4  <0> d          -2.173  -0.027  -1.207  0.00  0.00     0.033 H 
ATOM     15  H5  <0> d          -0.762   2.681  -1.231  0.00  0.00     0.033 H 
ATOM     16  H6  <0> d          -0.241   1.234  -2.129  0.00  0.00     0.033 H 
ATOM     17  H7  <0> d           0.002  -0.004   0.002  0.00  0.00     0.036 H 
ATOM     18  H8  <0> d           1.010   1.462   0.000  0.00  0.00     0.036 H 
ATOM     19  H9  <0> d          -2.905   2.666   0.028  0.00  0.00     0.033 H 
ATOM     20  H10 <0> d          -3.925   1.208   0.043  0.00  0.00     0.033 H 
ATOM     21  H11 <0> d          -3.921   1.391   2.513  0.00  0.00     0.075 H 
ATOM     22  H12 <0> d          -2.394   1.270   3.426  0.00  0.00     0.075 H 
ATOM     23  H13 <0> d          -1.368   4.633   2.405  0.00  0.00     0.117 H 
ATOM     24  H14 <0> d          -0.863   3.218   3.359  0.00  0.00     0.117 H 
ENDROOT
TORSDOF 0
