REMARK  2 active torsions:
REMARK  status: ('A' for Active; 'I' for Inactive)
REMARK    1  A    between atoms: C1_1  and  C2_2 
REMARK    2  A    between atoms: C6_8  and  C7_11 
ROOT
ATOM      1  C2  <0> d          -0.767   1.600  -1.224  0.00  0.00     0.042 C 
ATOM      2  H1  <0> d          -1.741   1.114  -1.283  0.00  0.00     0.083 H 
ATOM      3  C3  <0> d          -0.013   1.086   0.008  0.00  0.00     0.014 C 
ATOM      4  C4  <0> d          -0.735   1.581   1.244  0.00  0.00     0.131 C 
ATOM      5  O1  <0> d          -1.007   0.832   2.152  0.00  0.00    -0.298 OA
ATOM      6  C5  <0> d          -1.105   3.049   1.299  0.00  0.00     0.014 C 
ATOM      7  C6  <0> d          -1.780   3.421  -0.026  0.00  0.00     0.042 C 
ATOM      8  H2  <0> d          -1.930   4.500  -0.068  0.00  0.00     0.083 H 
ATOM      9  O2  <0> d          -0.946   3.014  -1.112  0.00  0.00    -0.381 OA
ATOM     10  H6  <0> d           0.005   0.086  -0.006  0.00  0.00     0.048 H 
ATOM     11  H7  <0> d           1.008   1.468   0.000  0.00  0.00     0.048 H 
ATOM     12  H8  <0> d          -0.278   3.596   1.432  0.00  0.00     0.048 H 
ATOM     13  H9  <0> d          -1.793   3.226   2.126  0.00  0.00     0.048 H 
ENDROOT
BRANCH   1  14
ATOM     14  C1  <0> d           0.038   1.285  -2.486  0.00  0.00    -0.052 C 
ATOM     15  H3  <0> d           0.176   0.207  -2.568  0.00  0.00     0.030 H 
ATOM     16  H4  <0> d          -0.498   1.651  -3.361  0.00  0.00     0.030 H 
ATOM     17  H5  <0> d           1.012   1.772  -2.426  0.00  0.00     0.030 H 
ENDBRANCH   1  14
BRANCH   7  18
ATOM     18  C7  <0> d          -3.133   2.713  -0.128  0.00  0.00    -0.052 C 
ATOM     19  H10 <0> d          -2.982   1.635  -0.084  0.00  0.00     0.030 H 
ATOM     20  H11 <0> d          -3.769   3.025   0.701  0.00  0.00     0.030 H 
ATOM     21  H12 <0> d          -3.610   2.976  -1.071  0.00  0.00     0.030 H 
ENDBRANCH   7  18
TORSDOF 2
