REMARK  7 active torsions:
REMARK  status: ('A' for Active; 'I' for Inactive)
REMARK    1  A    between atoms: C1_1  and  C2_2 
REMARK    2  A    between atoms: C2_2  and  C3_3 
REMARK    3  A    between atoms: C4_4  and  C5_5 
REMARK    4  A    between atoms: C4_4  and  C6_6 
REMARK    5  A    between atoms: C6_6  and  C7_8 
REMARK    6  A    between atoms: C6_6  and  O1_10 
REMARK    7  A    between atoms: C7_8  and  C8_9 
ROOT
ATOM      1  C3  <0> d          -1.610  -1.219   1.313  0.00  0.00    -0.099 C 
ATOM      2  C4  <0> d          -1.439  -0.644   0.148  0.00  0.00    -0.059 C 
ATOM      3  H7  <0> d          -0.775  -1.331   1.988  0.00  0.00     0.077 H 
ENDROOT
BRANCH   2   4
ATOM      4  C5  <0> d          -2.581  -0.572  -0.832  0.00  0.00    -0.052 C 
ATOM      5  H8  <0> d          -2.626  -1.497  -1.406  0.00  0.00     0.033 H 
ATOM      6  H9  <0> d          -3.517  -0.435  -0.290  0.00  0.00     0.033 H 
ATOM      7  H10 <0> d          -2.427   0.269  -1.508  0.00  0.00     0.033 H 
ENDBRANCH   2   4
BRANCH   2   8
ATOM      8  C6  <0> d          -0.099  -0.054  -0.211  0.00  0.00     0.056 C 
ATOM      9  H1  <0> d           0.620  -0.279   0.577  0.00  0.00     0.090 H 
BRANCH   8  10
ATOM     10  C7  <0> d          -0.233   1.462  -0.362  0.00  0.00    -0.041 C 
ATOM     11  H11 <0> d          -0.883   1.687  -1.208  0.00  0.00     0.036 H 
ATOM     12  H12 <0> d          -0.662   1.882   0.547  0.00  0.00     0.036 H 
BRANCH  10  13
ATOM     13  C8  <0> d           1.148   2.075  -0.604  0.00  0.00    -0.074 C 
ATOM     14  H13 <0> d           1.798   1.850   0.242  0.00  0.00     0.027 H 
ATOM     15  H14 <0> d           1.577   1.655  -1.514  0.00  0.00     0.027 H 
ATOM     16  H15 <0> d           1.052   3.155  -0.712  0.00  0.00     0.027 H 
ENDBRANCH  10  13
ENDBRANCH   8  10
BRANCH   8  17
ATOM     17  O1  <0> d           0.354  -0.618  -1.443  0.00  0.00    -0.391 OA
ATOM     18  H16 <0> d          -0.238  -0.457  -2.191  0.00  0.00     0.210 HD
ENDBRANCH   8  17
ENDBRANCH   2   8
BRANCH   1  19
ATOM     19  C2  <0> d          -2.973  -1.725   1.710  0.00  0.00    -0.053 C 
ATOM     20  H5  <0> d          -3.344  -1.144   2.554  0.00  0.00     0.038 H 
ATOM     21  H6  <0> d          -3.658  -1.622   0.869  0.00  0.00     0.038 H 
BRANCH  19  22
ATOM     22  C1  <0> d          -2.874  -3.198   2.109  0.00  0.00    -0.073 C 
ATOM     23  H2  <0> d          -2.188  -3.301   2.951  0.00  0.00     0.027 H 
ATOM     24  H3  <0> d          -3.860  -3.564   2.397  0.00  0.00     0.027 H 
ATOM     25  H4  <0> d          -2.502  -3.779   1.265  0.00  0.00     0.027 H 
ENDBRANCH  19  22
ENDBRANCH   1  19
TORSDOF 7
