REMARK  2 active torsions:
REMARK  status: ('A' for Active; 'I' for Inactive)
REMARK    1  A    between atoms: C1_1  and  C2_2 
REMARK    2  A    between atoms: C5_5  and  C7_8 
ROOT
ATOM      1  C7  <0> d           0.002  -0.004   0.002  0.00  0.00    -0.076 C 
ATOM      2  C8  <0> d           0.018  -1.178  -0.004  0.00  0.00    -0.149 C 
ATOM      3  H7  <0> d           0.033  -2.278  -0.010  0.00  0.00     0.166 H 
ENDROOT
BRANCH   1   4
ATOM      4  C5  <0> d          -0.017   1.428   0.010  0.00  0.00     0.034 A 
ATOM      5  C4  <0> d           1.178   2.156   0.002  0.00  0.00    -0.062 A 
ATOM      6  C3  <0> d           1.105   3.537   0.011  0.00  0.00    -0.058 A 
ATOM      7  H5  <0> d           2.133   1.652  -0.010  0.00  0.00     0.085 H 
ATOM      8  C2  <0> d          -0.136   4.149   0.026  0.00  0.00     0.030 A 
ATOM      9  H4  <0> d           2.006   4.132   0.005  0.00  0.00     0.086 H 
ATOM     10  N1  <0> d          -1.246   3.438   0.033  0.00  0.00    -0.264 NA
ATOM     11  C6  <0> d          -1.228   2.121   0.019  0.00  0.00     0.020 A 
ATOM     12  H6  <0> d          -2.159   1.572   0.020  0.00  0.00     0.117 H 
BRANCH   8  13
ATOM     13  C1  <0> d          -0.220   5.654   0.035  0.00  0.00    -0.035 C 
ATOM     14  H1  <0> d           0.795   6.078   0.027  0.00  0.00     0.035 H 
ATOM     15  H2  <0> d          -0.749   5.986   0.940  0.00  0.00     0.035 H 
ATOM     16  H3  <0> d          -0.767   5.996  -0.856  0.00  0.00     0.035 H 
ENDBRANCH   8  13
ENDBRANCH   1   4
TORSDOF 2
