REMARK  1 active torsions:
REMARK  status: ('A' for Active; 'I' for Inactive)
REMARK    1  A    between atoms: C1_1  and  C2_2 
ROOT
ATOM      1  C2  <0> d          -1.905   0.666  -1.585  0.00  0.00    -0.056 C 
ATOM      2  H1  <0> d          -1.510  -0.344  -1.694  0.00  0.00     0.039 H 
ATOM      3  C3  <0> d          -0.761   1.597  -1.226  0.00  0.00    -0.054 C 
ATOM      4  C4  <0> d          -0.013   1.086   0.008  0.00  0.00     0.009 C 
ATOM      5  C5  <0> d          -0.729   1.578   1.248  0.00  0.00     0.217 C 
ATOM      6  O1  <0> d          -0.225   2.441   1.935  0.00  0.00    -0.274 OA
ATOM      7  N1  <0> d          -1.919   1.066   1.580  0.00  0.00    -0.361 N 
ATOM      8  C6  <0> d          -2.536   0.014   0.756  0.00  0.00    -0.004 C 
ATOM      9  C7  <0> d          -3.019   0.639  -0.555  0.00  0.00    -0.047 C 
ATOM     10  H5  <0> d          -1.158   2.590  -1.018  0.00  0.00     0.034 H 
ATOM     11  H6  <0> d          -0.069   1.656  -2.066  0.00  0.00     0.034 H 
ATOM     12  H7  <0> d           0.002  -0.004   0.002  0.00  0.00     0.047 H 
ATOM     13  H8  <0> d           1.009   1.466   0.000  0.00  0.00     0.047 H 
ATOM     14  H9  <0> d          -2.377   1.389   2.371  0.00  0.00     0.162 HD
ATOM     15  H10 <0> d          -3.383  -0.419   1.288  0.00  0.00     0.064 H 
ATOM     16  H11 <0> d          -1.800  -0.761   0.541  0.00  0.00     0.064 H 
ATOM     17  H12 <0> d          -3.355   1.658  -0.363  0.00  0.00     0.035 H 
ATOM     18  H13 <0> d          -3.853   0.054  -0.944  0.00  0.00     0.035 H 
ENDROOT
BRANCH   1  19
ATOM     19  C1  <0> d          -2.491   1.107  -2.927  0.00  0.00    -0.073 C 
ATOM     20  H2  <0> d          -1.718   1.059  -3.695  0.00  0.00     0.028 H 
ATOM     21  H3  <0> d          -3.315   0.447  -3.199  0.00  0.00     0.028 H 
ATOM     22  H4  <0> d          -2.857   2.131  -2.845  0.00  0.00     0.028 H 
ENDBRANCH   1  19
TORSDOF 1
