REMARK  1 active torsions:
REMARK  status: ('A' for Active; 'I' for Inactive)
REMARK    1  A    between atoms: C1_1  and  C2_2 
ROOT
ATOM      1  C2  <0> d           1.907  -2.560   2.178  0.00  0.00    -0.033 C 
ATOM      2  H1  <0> d           2.723  -2.692   1.469  0.00  0.00     0.043 H 
ATOM      3  C3  <0> d           0.681  -1.994   1.462  0.00  0.00    -0.037 C 
ATOM      4  C4  <0> d           0.912  -0.545   1.081  0.00  0.00    -0.050 C 
ATOM      5  C5  <0> d           1.833   0.178   1.663  0.00  0.00     0.048 C 
ATOM      6  C6  <0> d           2.062   1.637   1.339  0.00  0.00    -0.021 C 
ATOM      7  C7  <0> d           1.436   2.009  -0.001  0.00  0.00    -0.059 C 
ATOM      8  C8  <0> d          -0.019   1.521   0.010  0.00  0.00    -0.061 C 
ATOM      9  C9  <0> d           0.002  -0.004   0.002  0.00  0.00    -0.042 C 
ATOM     10  O1  <0> d           2.673  -0.339   2.606  0.00  0.00    -0.355 OA
ATOM     11  C10 <0> d           2.315  -1.551   3.262  0.00  0.00     0.029 C 
ATOM     12  H5  <0> d          -0.184  -2.060   2.122  0.00  0.00     0.040 H 
ATOM     13  H6  <0> d           0.489  -2.578   0.562  0.00  0.00     0.040 H 
ATOM     14  H7  <0> d           1.620   2.251   2.123  0.00  0.00     0.043 H 
ATOM     15  H8  <0> d           3.135   1.829   1.297  0.00  0.00     0.043 H 
ATOM     16  H9  <0> d           1.982   1.526  -0.811  0.00  0.00     0.033 H 
ATOM     17  H10 <0> d           1.461   3.091  -0.132  0.00  0.00     0.033 H 
ATOM     18  H11 <0> d          -0.538   1.888  -0.875  0.00  0.00     0.033 H 
ATOM     19  H12 <0> d          -0.521   1.878   0.909  0.00  0.00     0.033 H 
ATOM     20  H13 <0> d          -1.009  -0.376   0.168  0.00  0.00     0.039 H 
ATOM     21  H14 <0> d           0.355  -0.351  -0.969  0.00  0.00     0.039 H 
ATOM     22  H15 <0> d           3.168  -1.934   3.822  0.00  0.00     0.075 H 
ATOM     23  H16 <0> d           1.478  -1.373   3.937  0.00  0.00     0.075 H 
ENDROOT
BRANCH   1  24
ATOM     24  C1  <0> d           1.557  -3.902   2.824  0.00  0.00    -0.071 C 
ATOM     25  H2  <0> d           0.730  -3.767   3.520  0.00  0.00     0.028 H 
ATOM     26  H3  <0> d           1.268  -4.613   2.050  0.00  0.00     0.028 H 
ATOM     27  H4  <0> d           2.425  -4.284   3.362  0.00  0.00     0.028 H 
ENDBRANCH   1  24
TORSDOF 1
