REMARK  2 active torsions:
REMARK  status: ('A' for Active; 'I' for Inactive)
REMARK    1  A    between atoms: C7_7  and  N2_10 
REMARK    2  A    between atoms: C8_8  and  N1_9 
ROOT
ATOM      1  C1  <0> d          -0.017   1.388   0.010  0.00  0.00    -0.065 A 
ATOM      2  C2  <0> d           1.158   2.086   0.002  0.00  0.00    -0.067 A 
ATOM      3  C3  <0> d           2.362   1.360  -0.013  0.00  0.00     0.021 A 
ATOM      4  C4  <0> d           2.310  -0.057  -0.020  0.00  0.00     0.069 A 
ATOM      5  C5  <0> d           3.510  -0.789  -0.036  0.00  0.00    -0.052 A 
ATOM      6  C6  <0> d           4.707  -0.139  -0.043  0.00  0.00    -0.053 A 
ATOM      7  C7  <0> d           4.770   1.255  -0.036  0.00  0.00     0.053 A 
ATOM      8  C8  <0> d           3.610   2.011  -0.022  0.00  0.00     0.065 A 
ATOM      9  N3  <0> d           1.126  -0.679  -0.013  0.00  0.00    -0.260 NA
ATOM     10  C9  <0> d           0.002  -0.004   0.002  0.00  0.00     0.003 A 
ATOM     11  H1  <0> d          -0.959   1.916   0.026  0.00  0.00     0.085 H 
ATOM     12  H2  <0> d           1.162   3.166   0.008  0.00  0.00     0.085 H 
ATOM     13  H3  <0> d           3.482  -1.869  -0.041  0.00  0.00     0.087 H 
ATOM     14  H4  <0> d           5.622  -0.713  -0.054  0.00  0.00     0.087 H 
ATOM     15  H9  <0> d          -0.934  -0.542   0.008  0.00  0.00     0.114 H 
ENDROOT
BRANCH   7  16
ATOM     16  N2  <0> d           6.018   1.895  -0.044  0.00  0.00    -0.397 N 
ATOM     17  H7  <0> d           6.832   1.368  -0.055  0.00  0.00     0.156 HD
ATOM     18  H8  <0> d           6.066   2.863  -0.040  0.00  0.00     0.156 HD
ENDBRANCH   7  16
BRANCH   8  19
ATOM     19  N1  <0> d           3.678   3.407  -0.016  0.00  0.00    -0.397 N 
ATOM     20  H5  <0> d           2.862   3.932  -0.005  0.00  0.00     0.156 HD
ATOM     21  H6  <0> d           4.540   3.851  -0.022  0.00  0.00     0.156 HD
ENDBRANCH   8  19
TORSDOF 2
