REMARK  2 active torsions:
REMARK  status: ('A' for Active; 'I' for Inactive)
REMARK    1  A    between atoms: C1_1  and  C2_2 
REMARK    2  A    between atoms: C3_3  and  C7_8 
ROOT
ATOM      1  C2  <0> d          -1.917   1.442   1.290  0.00  0.00     0.055 C 
ATOM      2  C3  <0> d          -2.755   1.145   0.293  0.00  0.00     0.047 C 
ATOM      3  C4  <0> d          -2.287   0.953  -1.124  0.00  0.00    -0.030 C 
ATOM      4  C5  <0> d          -0.893   1.565  -1.291  0.00  0.00    -0.041 C 
ATOM      5  C6  <0> d          -0.018   1.095  -0.121  0.00  0.00     0.026 C 
ATOM      6  O1  <0> d          -0.594   1.602   1.113  0.00  0.00    -0.355 OA
ATOM      7  H4  <0> d          -2.983   1.443  -1.805  0.00  0.00     0.040 H 
ATOM      8  H5  <0> d          -2.246  -0.112  -1.350  0.00  0.00     0.040 H 
ATOM      9  H6  <0> d          -0.966   2.653  -1.282  0.00  0.00     0.036 H 
ATOM     10  H7  <0> d          -0.457   1.234  -2.233  0.00  0.00     0.036 H 
ATOM     11  H8  <0> d           0.007   0.006  -0.095  0.00  0.00     0.075 H 
ATOM     12  H9  <0> d           0.994   1.482  -0.241  0.00  0.00     0.075 H 
ENDROOT
BRANCH   1  13
ATOM     13  C1  <0> d          -2.480   1.605   2.678  0.00  0.00    -0.031 C 
ATOM     14  H1  <0> d          -2.894   0.655   3.016  0.00  0.00     0.036 H 
ATOM     15  H2  <0> d          -1.688   1.919   3.357  0.00  0.00     0.036 H 
ATOM     16  H3  <0> d          -3.267   2.360   2.664  0.00  0.00     0.036 H 
ENDBRANCH   1  13
BRANCH   2  17
ATOM     17  C7  <0> d          -4.134   1.007   0.581  0.00  0.00     0.207 C 
ATOM     18  O2  <0> d          -4.523   1.048   1.733  0.00  0.00    -0.644 OA
ATOM     19  O3  <0> d          -5.018   0.828  -0.423  0.00  0.00    -0.644 OA
ENDBRANCH   2  17
TORSDOF 2
