REMARK  3 active torsions:
REMARK  status: ('A' for Active; 'I' for Inactive)
REMARK    1  A    between atoms: C1_1  and  C2_2 
REMARK    2  A    between atoms: C3_3  and  O2_9 
REMARK    3  A    between atoms: C7_7  and  O1_8 
ROOT
ATOM      1  C2  <0> d          -0.718   1.572   1.248  0.00  0.00     0.004 A 
ATOM      2  C3  <0> d          -2.087   1.790   1.227  0.00  0.00     0.074 A 
ATOM      3  C4  <0> d          -2.735   2.232   2.372  0.00  0.00    -0.050 A 
ATOM      4  C5  <0> d          -2.015   2.466   3.528  0.00  0.00    -0.078 A 
ATOM      5  C6  <0> d          -0.650   2.254   3.550  0.00  0.00    -0.050 A 
ATOM      6  C7  <0> d           0.002   1.807   2.409  0.00  0.00     0.074 A 
ATOM      7  H4  <0> d          -3.802   2.398   2.358  0.00  0.00     0.087 H 
ATOM      8  H5  <0> d          -2.521   2.814   4.417  0.00  0.00     0.083 H 
ATOM      9  H6  <0> d          -0.090   2.437   4.455  0.00  0.00     0.087 H 
ENDROOT
BRANCH   1  10
ATOM     10  C1  <0> d          -0.013   1.086   0.008  0.00  0.00    -0.046 C 
ATOM     11  H1  <0> d           0.002  -0.004   0.002  0.00  0.00     0.033 H 
ATOM     12  H2  <0> d           1.010   1.463   0.000  0.00  0.00     0.033 H 
ATOM     13  H3  <0> d          -0.540   1.447  -0.875  0.00  0.00     0.033 H 
ENDBRANCH   1  10
BRANCH   6  14
ATOM     14  O1  <0> d           1.345   1.598   2.431  0.00  0.00    -0.360 OA
ATOM     15  H7  <0> d           1.867   2.374   2.185  0.00  0.00     0.217 HD
ENDBRANCH   6  14
BRANCH   2  16
ATOM     16  O2  <0> d          -2.794   1.566   0.089  0.00  0.00    -0.360 OA
ATOM     17  H8  <0> d          -3.136   0.665   0.009  0.00  0.00     0.217 HD
ENDBRANCH   2  16
TORSDOF 3
