REMARK  4 active torsions:
REMARK  status: ('A' for Active; 'I' for Inactive)
REMARK    1  A    between atoms: C1_1  and  C2_2 
REMARK    2  A    between atoms: C5_7  and  C7_10 
REMARK    3  A    between atoms: C8_11  and  C9_12 
REMARK    4  A    between atoms: C8_11  and  C10_13 
ROOT
ATOM      1  C2  <0> d          -0.643   2.163   0.639  0.00  0.00    -0.053 C 
ATOM      2  H1  <0> d          -0.932   1.113   0.694  0.00  0.00     0.039 H 
ATOM      3  C3  <0> d          -0.989   2.859   1.959  0.00  0.00    -0.042 C 
ATOM      4  C4  <0> d          -0.508   4.311   1.902  0.00  0.00     0.021 C 
ATOM      5  O1  <0> d           0.898   4.337   1.647  0.00  0.00    -0.382 OA
ATOM      6  C5  <0> d           1.276   3.741   0.404  0.00  0.00     0.055 C 
ATOM      7  H2  <0> d           0.775   4.259  -0.414  0.00  0.00     0.089 H 
ATOM      8  C6  <0> d           0.867   2.266   0.401  0.00  0.00    -0.035 C 
ATOM      9  H6  <0> d          -2.068   2.838   2.110  0.00  0.00     0.036 H 
ATOM     10  H7  <0> d          -0.495   2.344   2.783  0.00  0.00     0.036 H 
ATOM     11  H8  <0> d          -0.714   4.800   2.854  0.00  0.00     0.074 H 
ATOM     12  H9  <0> d          -1.032   4.837   1.103  0.00  0.00     0.074 H 
ATOM     13  H10 <0> d           1.398   1.739   1.194  0.00  0.00     0.037 H 
ATOM     14  H11 <0> d           1.115   1.821  -0.563  0.00  0.00     0.037 H 
ENDROOT
BRANCH   6  15
ATOM     15  C7  <0> d           2.769   3.849   0.229  0.00  0.00    -0.074 C 
ATOM     16  C8  <0> d           3.263   4.411  -0.847  0.00  0.00    -0.089 C 
ATOM     17  H12 <0> d           3.431   3.464   0.990  0.00  0.00     0.081 H 
BRANCH  16  18
ATOM     18  C9  <0> d           2.348   4.825  -1.969  0.00  0.00    -0.055 C 
ATOM     19  H13 <0> d           1.942   5.815  -1.761  0.00  0.00     0.033 H 
ATOM     20  H14 <0> d           2.907   4.851  -2.904  0.00  0.00     0.033 H 
ATOM     21  H15 <0> d           1.530   4.108  -2.055  0.00  0.00     0.033 H 
ENDBRANCH  16  18
BRANCH  16  22
ATOM     22  C10 <0> d           4.748   4.642  -0.961  0.00  0.00    -0.055 C 
ATOM     23  H16 <0> d           5.217   3.772  -1.421  0.00  0.00     0.033 H 
ATOM     24  H17 <0> d           4.932   5.522  -1.577  0.00  0.00     0.033 H 
ATOM     25  H18 <0> d           5.169   4.800   0.032  0.00  0.00     0.033 H 
ENDBRANCH  16  22
ENDBRANCH   6  15
BRANCH   1  26
ATOM     26  C1  <0> d          -1.390   2.840  -0.511  0.00  0.00    -0.073 C 
ATOM     27  H3  <0> d          -1.139   2.345  -1.449  0.00  0.00     0.028 H 
ATOM     28  H4  <0> d          -2.464   2.768  -0.338  0.00  0.00     0.028 H 
ATOM     29  H5  <0> d          -1.100   3.889  -0.564  0.00  0.00     0.028 H 
ENDBRANCH   1  26
TORSDOF 4
