REMARK  0 active torsions:
REMARK  status: ('A' for Active; 'I' for Inactive)
ROOT
ATOM      1  C1  <0> d           2.224   0.790  -0.015  0.00  0.00    -0.053 A 
ATOM      2  C2  <0> d           1.332  -0.267  -0.012  0.00  0.00    -0.053 A 
ATOM      3  C3  <0> d           0.002  -0.004   0.002  0.00  0.00     0.076 A 
ATOM      4  S1  <0> d          -0.022   1.781   0.012  0.00  0.00    -0.066 SA
ATOM      5  C4  <0> d           1.742   2.057  -0.004  0.00  0.00     0.076 A 
ATOM      6 Cl1  <0> d           2.612   3.559  -0.005  0.00  0.00    -0.076 Cl
ATOM      7 Cl2  <0> d          -1.332  -1.115   0.009  0.00  0.00    -0.076 Cl
ATOM      8  H1  <0> d           3.289   0.609  -0.026  0.00  0.00     0.086 H 
ATOM      9  H2  <0> d           1.690  -1.286  -0.021  0.00  0.00     0.086 H 
ENDROOT
TORSDOF 0
