REMARK  3 active torsions:
REMARK  status: ('A' for Active; 'I' for Inactive)
REMARK    1  A    between atoms: C3_3  and  C7_8 
REMARK    2  A    between atoms: C5_5  and  N1_7 
REMARK    3  A    between atoms: C7_8  and  O1_9 
ROOT
ATOM      1  C1  <0> d           1.173   1.783   0.000  0.00  0.00    -0.080 A 
ATOM      2  C2  <0> d           1.155   3.166   0.007  0.00  0.00    -0.075 A 
ATOM      3  C3  <0> d          -0.049   3.845   0.021  0.00  0.00    -0.033 A 
ATOM      4  C4  <0> d          -1.239   3.144   0.029  0.00  0.00    -0.050 A 
ATOM      5  C5  <0> d          -1.225   1.755   0.017  0.00  0.00     0.026 A 
ATOM      6  C6  <0> d          -0.013   1.076   0.008  0.00  0.00    -0.058 A 
ATOM      7  H1  <0> d           2.116   1.256  -0.011  0.00  0.00     0.083 H 
ATOM      8  H2  <0> d           2.084   3.717   0.001  0.00  0.00     0.084 H 
ATOM      9  H3  <0> d          -2.179   3.675   0.041  0.00  0.00     0.087 H 
ATOM     10  H4  <0> d           0.002  -0.004   0.002  0.00  0.00     0.086 H 
ENDROOT
BRANCH   3  11
ATOM     11  C7  <0> d          -0.064   5.352   0.029  0.00  0.00     0.041 C 
ATOM     12  H7  <0> d          -0.952   5.704   0.552  0.00  0.00     0.081 H 
ATOM     13  H8  <0> d           0.828   5.721   0.536  0.00  0.00     0.081 H 
BRANCH  11  14
ATOM     14  O1  <0> d          -0.081   5.835  -1.316  0.00  0.00    -0.396 OA
ATOM     15  H9  <0> d          -0.090   6.799  -1.388  0.00  0.00     0.209 HD
ENDBRANCH  11  14
ENDBRANCH   3  11
BRANCH   5  16
ATOM     16  N1  <0> d          -2.426   1.042   0.020  0.00  0.00    -0.399 N 
ATOM     17  H5  <0> d          -2.415   0.072   0.015  0.00  0.00     0.156 HD
ATOM     18  H6  <0> d          -3.272   1.518   0.026  0.00  0.00     0.156 HD
ENDBRANCH   5  16
TORSDOF 3
