REMARK  2 active torsions:
REMARK  status: ('A' for Active; 'I' for Inactive)
REMARK    1  A    between atoms: C1_1  and  C2_2 
REMARK    2  A    between atoms: C9_9  and  N1_12 
ROOT
ATOM      1  C2  <0> d          -2.408   1.370   0.032  0.00  0.00    -0.061 A 
ATOM      2  C3  <0> d          -2.390  -0.023   0.025  0.00  0.00    -0.076 A 
ATOM      3  C4  <0> d          -1.214  -0.709   0.010  0.00  0.00    -0.072 A 
ATOM      4  C5  <0> d           0.002  -0.004   0.002  0.00  0.00    -0.024 A 
ATOM      5  C6  <0> d           1.235  -0.679  -0.013  0.00  0.00    -0.072 A 
ATOM      6  C7  <0> d           2.398   0.029  -0.020  0.00  0.00    -0.080 A 
ATOM      7  C8  <0> d           2.392   1.421  -0.013  0.00  0.00    -0.057 A 
ATOM      8  C9  <0> d           1.204   2.120   0.002  0.00  0.00     0.036 A 
ATOM      9  C10 <0> d          -0.017   1.412   0.010  0.00  0.00     0.001 A 
ATOM     10  C11 <0> d          -1.249   2.085   0.031  0.00  0.00    -0.064 A 
ATOM     11  H4  <0> d          -3.323  -0.567   0.031  0.00  0.00     0.084 H 
ATOM     12  H5  <0> d          -1.216  -1.789   0.004  0.00  0.00     0.084 H 
ATOM     13  H6  <0> d           1.260  -1.759  -0.019  0.00  0.00     0.084 H 
ATOM     14  H7  <0> d           3.340  -0.498  -0.031  0.00  0.00     0.083 H 
ATOM     15  H8  <0> d           3.328   1.958  -0.019  0.00  0.00     0.086 H 
ATOM     16  H9  <0> d          -1.277   3.165   0.037  0.00  0.00     0.085 H 
ENDROOT
BRANCH   1  17
ATOM     17  C1  <0> d          -3.728   2.096   0.049  0.00  0.00    -0.051 C 
ATOM     18  H1  <0> d          -4.036   2.266   1.080  0.00  0.00     0.033 H 
ATOM     19  H2  <0> d          -3.623   3.053  -0.462  0.00  0.00     0.033 H 
ATOM     20  H3  <0> d          -4.480   1.493  -0.461  0.00  0.00     0.033 H 
ENDBRANCH   1  17
BRANCH   8  21
ATOM     21  N1  <0> d           1.209   3.513   0.009  0.00  0.00    -0.398 N 
ATOM     22  H10 <0> d           0.371   4.001   0.019  0.00  0.00     0.156 HD
ATOM     23  H11 <0> d           2.051   3.995   0.004  0.00  0.00     0.156 HD
ENDBRANCH   8  21
TORSDOF 2
