REMARK  4 active torsions:
REMARK  status: ('A' for Active; 'I' for Inactive)
REMARK    1  A    between atoms: C1_1  and  C2_2 
REMARK    2  A    between atoms: C1_1  and  C4_5 
REMARK    3  A    between atoms: C2_2  and  C3_3 
REMARK    4  A    between atoms: C4_5  and  O2_6 
ROOT
ATOM      1  C1  <0> d           2.696   3.548  -0.005  0.00  0.00    -0.036 C 
ATOM      2  H1  <0> d           3.204   3.160   0.878  0.00  0.00     0.036 H 
ATOM      3  H2  <0> d           3.187   3.170  -0.901  0.00  0.00     0.036 H 
ENDROOT
BRANCH   1   4
ATOM      4  C2  <0> d           1.235   3.094   0.007  0.00  0.00     0.018 C 
ATOM      5  H3  <0> d           0.727   3.482  -0.876  0.00  0.00     0.049 H 
ATOM      6  H4  <0> d           0.744   3.473   0.904  0.00  0.00     0.049 H 
BRANCH   4   7
ATOM      7  C3  <0> d           1.177   1.588  -0.001  0.00  0.00     0.172 C 
ATOM      8  O1  <0> d           2.199   0.944  -0.014  0.00  0.00    -0.648 OA
ATOM      9  O3  <0> d          -0.011   0.963   0.007  0.00  0.00    -0.648 OA
ENDBRANCH   4   7
ENDBRANCH   1   4
BRANCH   1  10
ATOM     10  C4  <0> d           2.755   5.077   0.003  0.00  0.00     0.017 C 
ATOM     11  H5  <0> d           2.248   5.465  -0.880  0.00  0.00     0.073 H 
ATOM     12  H6  <0> d           2.265   5.455   0.900  0.00  0.00     0.073 H 
BRANCH  10  13
ATOM     13  O2  <0> d           4.120   5.501  -0.008  0.00  0.00    -0.401 OA
ATOM     14  H7  <0> d           4.234   6.461  -0.004  0.00  0.00     0.209 HD
ENDBRANCH  10  13
ENDBRANCH   1  10
TORSDOF 4
