REMARK  0 active torsions:
REMARK  status: ('A' for Active; 'I' for Inactive)
ROOT
ATOM      1  C1  <0> d          -0.017   1.382   0.010  0.00  0.00    -0.062 A 
ATOM      2  C2  <0> d           1.201   2.050   0.002  0.00  0.00    -0.045 A 
ATOM      3  C3  <0> d           2.360   1.289  -0.014  0.00  0.00     0.125 A 
ATOM      4  N1  <0> d           2.281  -0.029  -0.020  0.00  0.00    -0.143 NA
ATOM      5  N2  <0> d           1.155  -0.645  -0.012  0.00  0.00    -0.162 NA
ATOM      6  C4  <0> d           0.002  -0.004   0.002  0.00  0.00     0.024 A 
ATOM      7 Br1  <0> d           4.050   2.137  -0.026  0.00  0.00    -0.027 Br
ATOM      8  H1  <0> d          -0.950   1.925   0.026  0.00  0.00     0.085 H 
ATOM      9  H2  <0> d           1.243   3.129   0.007  0.00  0.00     0.088 H 
ATOM     10  H3  <0> d          -0.925  -0.558   0.008  0.00  0.00     0.117 H 
ENDROOT
TORSDOF 0
