REMARK  8 active torsions:
REMARK  status: ('A' for Active; 'I' for Inactive)
REMARK    1  A    between atoms: C1_1  and  C2_2 
REMARK    2  A    between atoms: C2_2  and  O1_3 
REMARK    3  A    between atoms: O1_3  and  C3_4 
REMARK    4  A    between atoms: C3_4  and  C4_6 
REMARK    5  A    between atoms: C3_4  and  O2_7 
REMARK    6  A    between atoms: O2_7  and  C5_8 
REMARK    7  A    between atoms: C5_8  and  C6_9 
REMARK    8  A    between atoms: C5_8  and  C7_10 
ROOT
ATOM      1  C3  <0> d          -0.979   1.697   1.378  0.00  0.00     0.128 C 
ATOM      2  H1  <0> d          -0.542   1.352   2.315  0.00  0.00     0.128 H 
ENDROOT
BRANCH   1   3
ATOM      3  O1  <0> d          -2.404   1.616   1.459  0.00  0.00    -0.362 OA
BRANCH   3   4
ATOM      4  C2  <0> d          -2.959   2.276   2.598  0.00  0.00     0.019 C 
ATOM      5  H5  <0> d          -2.627   1.773   3.507  0.00  0.00     0.073 H 
ATOM      6  H6  <0> d          -2.627   3.314   2.615  0.00  0.00     0.073 H 
BRANCH   4   7
ATOM      7  C1  <0> d          -4.487   2.231   2.519  0.00  0.00    -0.056 C 
ATOM      8  H2  <0> d          -4.819   2.733   1.611  0.00  0.00     0.030 H 
ATOM      9  H3  <0> d          -4.819   1.193   2.503  0.00  0.00     0.030 H 
ATOM     10  H4  <0> d          -4.910   2.734   3.389  0.00  0.00     0.030 H 
ENDBRANCH   4   7
ENDBRANCH   3   4
ENDBRANCH   1   3
BRANCH   1  11
ATOM     11  C4  <0> d          -0.483   0.816   0.230  0.00  0.00    -0.031 C 
ATOM     12  H7  <0> d          -0.695  -0.229   0.456  0.00  0.00     0.034 H 
ATOM     13  H8  <0> d           0.591   0.950   0.106  0.00  0.00     0.034 H 
ATOM     14  H9  <0> d          -0.993   1.099  -0.692  0.00  0.00     0.034 H 
ENDBRANCH   1  11
BRANCH   1  15
ATOM     15  O2  <0> d          -0.591   3.051   1.141  0.00  0.00    -0.357 OA
BRANCH  15  16
ATOM     16  C5  <0> d          -1.036   3.572  -0.113  0.00  0.00     0.034 C 
ATOM     17  H10 <0> d          -1.884   2.987  -0.470  0.00  0.00     0.082 H 
BRANCH  16  18
ATOM     18  C6  <0> d          -1.461   5.032   0.062  0.00  0.00    -0.052 C 
ATOM     19  H11 <0> d          -0.613   5.617   0.419  0.00  0.00     0.030 H 
ATOM     20  H12 <0> d          -1.800   5.429  -0.894  0.00  0.00     0.030 H 
ATOM     21  H13 <0> d          -2.272   5.089   0.788  0.00  0.00     0.030 H 
ENDBRANCH  16  18
BRANCH  16  22
ATOM     22  C7  <0> d           0.103   3.492  -1.131  0.00  0.00    -0.052 C 
ATOM     23  H14 <0> d           0.337   2.447  -1.334  0.00  0.00     0.030 H 
ATOM     24  H15 <0> d          -0.201   3.982  -2.056  0.00  0.00     0.030 H 
ATOM     25  H16 <0> d           0.986   3.990  -0.729  0.00  0.00     0.030 H 
ENDBRANCH  16  22
ENDBRANCH  15  16
ENDBRANCH   1  15
TORSDOF 8
