REMARK  3 active torsions:
REMARK  status: ('A' for Active; 'I' for Inactive)
REMARK    1  A    between atoms: C1_1  and  C2_2 
REMARK    2  A    between atoms: C2_2  and  C3_3 
REMARK    3  A    between atoms: C3_3  and  C4_5 
ROOT
ATOM      1  C3  <0> d          -0.014   1.209   0.009  0.00  0.00     0.184 C 
ATOM      2  O1  <0> d           0.002  -0.004   0.002  0.00  0.00    -0.290 OA
ENDROOT
BRANCH   1   3
ATOM      3  C2  <0> d           1.280   1.980   0.001  0.00  0.00    -0.006 C 
ATOM      4  H4  <0> d           1.318   2.560  -0.813  0.00  0.00     0.044 H 
ATOM      5  H5  <0> d           1.338   2.603   0.893  0.00  0.00     0.044 H 
BRANCH   3   6
ATOM      6  C1  <0> d           2.457   1.002  -0.016  0.00  0.00    -0.070 C 
ATOM      7  H1  <0> d           2.416   0.370   0.871  0.00  0.00     0.028 H 
ATOM      8  H2  <0> d           2.399   0.380  -0.909  0.00  0.00     0.028 H 
ATOM      9  H3  <0> d           3.393   1.560  -0.022  0.00  0.00     0.028 H 
ENDBRANCH   3   6
ENDBRANCH   1   3
BRANCH   1  10
ATOM     10  C4  <0> d          -1.292   1.924   0.019  0.00  0.00     0.142 A 
ATOM     11  S1  <0> d          -2.955   1.271   0.023  0.00  0.00    -0.077 SA
ATOM     12  C6  <0> d          -3.793   2.792   0.035  0.00  0.00    -0.026 A 
ATOM     13  C5  <0> d          -2.751   3.676   0.035  0.00  0.00     0.010 A 
ATOM     14  H7  <0> d          -4.855   2.987   0.042  0.00  0.00     0.097 H 
ATOM     15  N1  <0> d          -1.525   3.233   0.033  0.00  0.00    -0.249 NA
ATOM     16  H6  <0> d          -2.943   4.739   0.042  0.00  0.00     0.115 H 
ENDBRANCH   1  10
TORSDOF 3
