REMARK  3 active torsions:
REMARK  status: ('A' for Active; 'I' for Inactive)
REMARK    1  A    between atoms: C1_1  and  C2_2 
REMARK    2  A    between atoms: C2_2  and  C3_3 
REMARK    3  A    between atoms: C8_8  and  O1_9 
ROOT
ATOM      1  C3  <0> d           0.731  -0.503   1.223  0.00  0.00    -0.025 A 
ATOM      2  C4  <0> d           2.076  -0.808   1.148  0.00  0.00    -0.074 A 
ATOM      3  C5  <0> d           2.746  -1.266   2.268  0.00  0.00    -0.082 A 
ATOM      4  C6  <0> d           2.071  -1.421   3.465  0.00  0.00    -0.080 A 
ATOM      5  C7  <0> d           0.726  -1.117   3.545  0.00  0.00    -0.051 A 
ATOM      6  C8  <0> d           0.053  -0.652   2.424  0.00  0.00     0.071 A 
ATOM      7  H6  <0> d           2.606  -0.688   0.215  0.00  0.00     0.084 H 
ATOM      8  H7  <0> d           3.797  -1.505   2.208  0.00  0.00     0.083 H 
ATOM      9  H8  <0> d           2.595  -1.780   4.338  0.00  0.00     0.083 H 
ATOM     10  H9  <0> d           0.199  -1.238   4.480  0.00  0.00     0.087 H 
ENDROOT
BRANCH   1  11
ATOM     11  C2  <0> d           0.002  -0.004   0.002  0.00  0.00    -0.042 C 
ATOM     12  H4  <0> d          -1.020  -0.381   0.010  0.00  0.00     0.039 H 
ATOM     13  H5  <0> d           0.512  -0.356  -0.895  0.00  0.00     0.039 H 
BRANCH  11  14
ATOM     14  C1  <0> d          -0.019   1.526   0.010  0.00  0.00    -0.073 C 
ATOM     15  H1  <0> d           1.004   1.903   0.003  0.00  0.00     0.028 H 
ATOM     16  H2  <0> d          -0.546   1.887  -0.873  0.00  0.00     0.028 H 
ATOM     17  H3  <0> d          -0.529   1.877   0.907  0.00  0.00     0.028 H 
ENDBRANCH  11  14
ENDBRANCH   1  11
BRANCH   6  18
ATOM     18  O1  <0> d          -1.269  -0.347   2.501  0.00  0.00    -0.360 OA
ATOM     19  H10 <0> d          -1.856  -1.090   2.305  0.00  0.00     0.217 HD
ENDBRANCH   6  18
TORSDOF 3
