REMARK  3 active torsions:
REMARK  status: ('A' for Active; 'I' for Inactive)
REMARK    1  A    between atoms: C1_1  and  C2_2 
REMARK    2  A    between atoms: C2_2  and  C4_4 
REMARK    3  A    between atoms: C9_10  and  O1_13 
ROOT
ATOM      1  C4  <0> d          -0.018   1.503   0.010  0.00  0.00    -0.030 C 
ATOM      2  H1  <0> d           1.005   1.879   0.003  0.00  0.00     0.047 H 
ATOM      3  C5  <0> d          -0.731   1.995   1.271  0.00  0.00    -0.055 C 
ATOM      4  C6  <0> d          -0.669   3.525   1.327  0.00  0.00    -0.042 C 
ATOM      5  C7  <0> d          -1.236   4.075   0.036  0.00  0.00    -0.061 C 
ATOM      6  C8  <0> d          -2.171   4.992   0.051  0.00  0.00    -0.117 C 
ATOM      7  C9  <0> d          -0.696   3.539  -1.271  0.00  0.00     0.057 C 
ATOM      8  H2  <0> d           0.337   3.862  -1.400  0.00  0.00     0.090 H 
ATOM      9  C10 <0> d          -0.755   2.008  -1.231  0.00  0.00    -0.031 C 
ATOM     10  H8  <0> d          -1.772   1.672   1.249  0.00  0.00     0.034 H 
ATOM     11  H9  <0> d          -0.241   1.580   2.151  0.00  0.00     0.034 H 
ATOM     12  H10 <0> d           0.366   3.847   1.438  0.00  0.00     0.039 H 
ATOM     13  H11 <0> d          -1.258   3.887   2.169  0.00  0.00     0.039 H 
ATOM     14  H12 <0> d          -2.566   5.376  -0.878  0.00  0.00     0.067 H 
ATOM     15  H13 <0> d          -2.547   5.365   0.992  0.00  0.00     0.067 H 
ATOM     16  H14 <0> d          -0.282   1.603  -2.125  0.00  0.00     0.038 H 
ATOM     17  H15 <0> d          -1.796   1.685  -1.193  0.00  0.00     0.038 H 
ENDROOT
BRANCH   1  18
ATOM     18  C2  <0> d           0.002  -0.004   0.002  0.00  0.00    -0.089 C 
ATOM     19  C3  <0> d           1.145  -0.644  -0.012  0.00  0.00    -0.119 C 
ATOM     20  H6  <0> d           2.073  -0.091  -0.018  0.00  0.00     0.067 H 
ATOM     21  H7  <0> d           1.160  -1.723  -0.018  0.00  0.00     0.067 H 
BRANCH  18  22
ATOM     22  C1  <0> d          -1.293  -0.775   0.010  0.00  0.00    -0.055 C 
ATOM     23  H3  <0> d          -1.615  -0.956  -1.015  0.00  0.00     0.033 H 
ATOM     24  H4  <0> d          -1.145  -1.728   0.518  0.00  0.00     0.033 H 
ATOM     25  H5  <0> d          -2.055  -0.199   0.534  0.00  0.00     0.033 H 
ENDBRANCH  18  22
ENDBRANCH   1  18
BRANCH   7  26
ATOM     26  O1  <0> d          -1.493   4.022  -2.354  0.00  0.00    -0.391 OA
ATOM     27  H16 <0> d          -1.500   4.986  -2.437  0.00  0.00     0.210 HD
ENDBRANCH   7  26
TORSDOF 3
