REMARK  0 active torsions:
REMARK  status: ('A' for Active; 'I' for Inactive)
ROOT
ATOM      1  C1  <0> d          -1.246   3.492   0.032  0.00  0.00    -0.081 A 
ATOM      2  C2  <0> d          -0.055   4.198   0.024  0.00  0.00    -0.081 A 
ATOM      3  C3  <0> d           1.154   3.527   0.009  0.00  0.00    -0.060 A 
ATOM      4  C4  <0> d           1.181   2.146   0.002  0.00  0.00     0.054 A 
ATOM      5  C5  <0> d          -0.017   1.428   0.010  0.00  0.00     0.066 A 
ATOM      6  C6  <0> d          -1.234   2.113   0.019  0.00  0.00    -0.061 A 
ATOM      7  C7  <0> d           0.002  -0.004   0.002  0.00  0.00     0.101 C 
ATOM      8  N1  <0> d           0.018  -1.140  -0.004  0.00  0.00    -0.191 NA
ATOM      9 Cl1  <0> d           2.700   1.306  -0.017  0.00  0.00    -0.083 Cl
ATOM     10  H1  <0> d          -2.186   4.022   0.043  0.00  0.00     0.083 H 
ATOM     11  H2  <0> d          -0.071   5.278   0.029  0.00  0.00     0.083 H 
ATOM     12  H3  <0> d           2.079   4.085   0.003  0.00  0.00     0.086 H 
ATOM     13  H4  <0> d          -2.164   1.564   0.021  0.00  0.00     0.085 H 
ENDROOT
TORSDOF 0
