REMARK  2 active torsions:
REMARK  status: ('A' for Active; 'I' for Inactive)
REMARK    1  A    between atoms: C3_3  and  N4_8 
REMARK    2  A    between atoms: C4_6  and  N3_7 
ROOT
ATOM      1  C1  <0> d           2.355  -0.022  -0.021  0.00  0.00    -0.034 A 
ATOM      2  C2  <0> d           2.336   1.361  -0.013  0.00  0.00    -0.034 A 
ATOM      3  C3  <0> d           1.095   1.999   0.002  0.00  0.00     0.143 A 
ATOM      4  N1  <0> d          -0.015   1.279   0.009  0.00  0.00    -0.131 NA
ATOM      5  N2  <0> d           0.002  -0.004   0.002  0.00  0.00    -0.131 NA
ATOM      6  C4  <0> d           1.131  -0.693  -0.013  0.00  0.00     0.143 A 
ATOM      7  H1  <0> d           3.288  -0.566  -0.032  0.00  0.00     0.089 H 
ATOM      8  H2  <0> d           3.254   1.931  -0.018  0.00  0.00     0.089 H 
ENDROOT
BRANCH   3   9
ATOM      9  N4  <0> d           1.025   3.391   0.010  0.00  0.00    -0.383 N 
ATOM     10  H5  <0> d           0.161   3.833   0.020  0.00  0.00     0.157 HD
ATOM     11  H6  <0> d           1.839   3.918   0.005  0.00  0.00     0.157 HD
ENDBRANCH   3   9
BRANCH   6  12
ATOM     12  N3  <0> d           1.099  -2.087  -0.019  0.00  0.00    -0.383 N 
ATOM     13  H3  <0> d           0.248  -2.552  -0.013  0.00  0.00     0.157 HD
ATOM     14  H4  <0> d           1.927  -2.591  -0.030  0.00  0.00     0.157 HD
ENDBRANCH   6  12
TORSDOF 2
