REMARK  1 active torsions:
REMARK  status: ('A' for Active; 'I' for Inactive)
REMARK    1  A    between atoms: C1_1  and  C2_2 
ROOT
ATOM      1  C2  <0> d           0.002  -0.004   0.002  0.00  0.00     0.010 A 
ATOM      2  H1  <0> d           0.521  -0.370  -0.884  0.00  0.00     0.072 H 
ATOM      3  C3  <0> d          -1.432  -0.557   0.047  0.00  0.00    -0.020 A 
ATOM      4  C4  <0> d          -1.489  -1.361   1.327  0.00  0.00    -0.027 A 
ATOM      5  C5  <0> d          -2.519  -2.086   1.895  0.00  0.00    -0.037 A 
ATOM      6  C6  <0> d          -2.323  -2.748   3.095  0.00  0.00     0.117 A 
ATOM      7  C7  <0> d          -1.091  -2.681   3.724  0.00  0.00    -0.043 A 
ATOM      8  C8  <0> d          -0.062  -1.958   3.159  0.00  0.00    -0.054 A 
ATOM      9  C9  <0> d          -0.253  -1.288   1.949  0.00  0.00     0.035 A 
ATOM     10  N1  <0> d           0.649  -0.510   1.215  0.00  0.00    -0.385 N 
ATOM     11  F1  <0> d          -3.330  -3.456   3.651  0.00  0.00    -0.206 F 
ATOM     12  H5  <0> d          -2.153   0.259   0.078  0.00  0.00     0.043 H 
ATOM     13  H6  <0> d          -1.619  -1.199  -0.814  0.00  0.00     0.043 H 
ATOM     14  H7  <0> d          -3.479  -2.136   1.403  0.00  0.00     0.089 H 
ATOM     15  H8  <0> d          -0.936  -3.196   4.660  0.00  0.00     0.088 H 
ATOM     16  H9  <0> d           0.896  -1.909   3.655  0.00  0.00     0.087 H 
ATOM     17  H10 <0> d           1.568  -0.332   1.471  0.00  0.00     0.160 HD
ENDROOT
BRANCH   1  18
ATOM     18  C1  <0> d          -0.019   1.526   0.010  0.00  0.00    -0.057 C 
ATOM     19  H2  <0> d           1.004   1.903   0.003  0.00  0.00     0.030 H 
ATOM     20  H3  <0> d          -0.546   1.887  -0.873  0.00  0.00     0.030 H 
ATOM     21  H4  <0> d          -0.529   1.877   0.907  0.00  0.00     0.030 H 
ENDBRANCH   1  18
TORSDOF 1
