REMARK  1 active torsions:
REMARK  status: ('A' for Active; 'I' for Inactive)
REMARK    1  A    between atoms: C1_1  and  C2_2 
ROOT
ATOM      1  C2  <0> d          -1.199   1.749   0.017  0.00  0.00    -0.056 A 
ATOM      2  C3  <0> d          -1.191   3.151   0.030  0.00  0.00    -0.062 A 
ATOM      3  C4  <0> d          -0.015   3.820   0.022  0.00  0.00    -0.019 A 
ATOM      4  N1  <0> d           1.165   3.149   0.007  0.00  0.00    -0.334 N 
ATOM      5  H1  <0> d           2.114   3.704   0.001  0.00  0.00     0.168 HD
ATOM      6  C5  <0> d           1.190   1.802   0.000  0.00  0.00     0.245 A 
ATOM      7  O1  <0> d           2.259   1.213  -0.012  0.00  0.00    -0.268 OA
ATOM      8  C6  <0> d          -0.013   1.076   0.008  0.00  0.00    -0.012 A 
ATOM      9  H5  <0> d          -2.123   3.696   0.042  0.00  0.00     0.086 H 
ATOM     10  H6  <0> d          -0.015   4.900   0.028  0.00  0.00     0.111 H 
ATOM     11  H7  <0> d           0.002  -0.004   0.002  0.00  0.00     0.092 H 
ENDROOT
BRANCH   1  12
ATOM     12  C1  <0> d          -2.503   0.994   0.020  0.00  0.00    -0.051 C 
ATOM     13  H2  <0> d          -3.340   1.708   0.027  0.00  0.00     0.033 H 
ATOM     14  H3  <0> d          -2.556   0.357   0.915  0.00  0.00     0.033 H 
ATOM     15  H4  <0> d          -2.565   0.366  -0.881  0.00  0.00     0.033 H 
ENDBRANCH   1  12
TORSDOF 1
