REMARK  4 active torsions:
REMARK  status: ('A' for Active; 'I' for Inactive)
REMARK    1  A    between atoms: C1_1  and  C2_2 
REMARK    2  A    between atoms: C2_2  and  C3_3 
REMARK    3  A    between atoms: C3_3  and  C7_9 
REMARK    4  A    between atoms: C7_9  and  C8_10 
ROOT
ATOM      1  C3  <0> d           0.806  -0.352  -1.540  0.00  0.00    -0.017 C 
ATOM      2  C4  <0> d           0.328   0.132  -2.929  0.00  0.00     0.018 C 
ATOM      3  C5  <0> d           0.749  -0.974  -3.872  0.00  0.00     0.218 C 
ATOM      4  O1  <0> d           0.816  -0.869  -5.079  0.00  0.00    -0.274 OA
ATOM      5  N1  <0> d           1.040  -2.088  -3.179  0.00  0.00    -0.360 N 
ATOM      6  C6  <0> d           0.849  -1.884  -1.738  0.00  0.00     0.003 C 
ATOM      7  H6  <0> d          -0.755   0.250  -2.939  0.00  0.00     0.048 H 
ATOM      8  H7  <0> d           0.817   1.068  -3.196  0.00  0.00     0.048 H 
ATOM      9  H8  <0> d           1.338  -2.920  -3.579  0.00  0.00     0.162 HD
ATOM     10  H9  <0> d           1.683  -2.312  -1.182  0.00  0.00     0.065 H 
ATOM     11  H10 <0> d          -0.091  -2.332  -1.415  0.00  0.00     0.065 H 
ENDROOT
BRANCH   1  12
ATOM     12  C2  <0> d          -0.197   0.032  -0.451  0.00  0.00    -0.059 C 
ATOM     13  H4  <0> d          -1.186  -0.338  -0.721  0.00  0.00     0.033 H 
ATOM     14  H5  <0> d          -0.229   1.117  -0.353  0.00  0.00     0.033 H 
BRANCH  12  15
ATOM     15  C1  <0> d           0.233  -0.588   0.880  0.00  0.00    -0.076 C 
ATOM     16  H1  <0> d           0.342  -1.665   0.761  0.00  0.00     0.027 H 
ATOM     17  H2  <0> d           1.186  -0.158   1.190  0.00  0.00     0.027 H 
ATOM     18  H3  <0> d          -0.522  -0.381   1.638  0.00  0.00     0.027 H 
ENDBRANCH  12  15
ENDBRANCH   1  12
BRANCH   1  19
ATOM     19  C7  <0> d           2.198   0.197  -1.218  0.00  0.00    -0.059 C 
ATOM     20  H11 <0> d           2.571  -0.271  -0.307  0.00  0.00     0.033 H 
ATOM     21  H12 <0> d           2.875  -0.023  -2.043  0.00  0.00     0.033 H 
BRANCH  19  22
ATOM     22  C8  <0> d           2.114   1.712  -1.016  0.00  0.00    -0.076 C 
ATOM     23  H13 <0> d           3.118   2.119  -0.902  0.00  0.00     0.027 H 
ATOM     24  H14 <0> d           1.633   2.167  -1.882  0.00  0.00     0.027 H 
ATOM     25  H15 <0> d           1.530   1.927  -0.121  0.00  0.00     0.027 H 
ENDBRANCH  19  22
ENDBRANCH   1  19
TORSDOF 4
