REMARK  1 active torsions:
REMARK  status: ('A' for Active; 'I' for Inactive)
REMARK       I    between atoms: N1_4  and  C6_7 
REMARK    1  A    between atoms: C6_7  and  C7_9 
ROOT
ATOM      1  C7  <0> d          -1.293  -0.775   0.010  0.00  0.00     0.088 C 
ATOM      2  C8  <0> d          -1.004  -2.219  -0.000  0.00  0.00     0.068 C 
ATOM      3  N2  <0> d          -0.781  -3.333  -0.008  0.00  0.00    -0.197 NA
ATOM      4  H11 <0> d          -1.859  -0.524   0.907  0.00  0.00     0.069 H 
ATOM      5  H12 <0> d          -1.876  -0.515  -0.873  0.00  0.00     0.069 H 
ENDROOT
BRANCH   1   6
ATOM      6  C6  <0> d           0.002  -0.004   0.002  0.00  0.00     0.232 C 
ATOM      7  N1  <0> d          -0.016   1.344   0.009  0.00  0.00    -0.351 N 
ATOM      8  C3  <0> d           1.238   2.109   0.002  0.00  0.00    -0.002 C 
ATOM      9  C4  <0> d          -1.290   2.075   0.019  0.00  0.00    -0.002 C 
ATOM     10  C2  <0> d           1.221   3.095   1.174  0.00  0.00    -0.050 C 
ATOM     11  H5  <0> d           2.082   1.429   0.108  0.00  0.00     0.064 H 
ATOM     12  H6  <0> d           1.326   2.656  -0.937  0.00  0.00     0.064 H 
ATOM     13  C1  <0> d          -0.042   3.956   1.094  0.00  0.00    -0.062 C 
ATOM     14  H3  <0> d           1.226   2.542   2.114  0.00  0.00     0.035 H 
ATOM     15  H4  <0> d           2.102   3.735   1.124  0.00  0.00     0.035 H 
ATOM     16  C5  <0> d          -1.279   3.061   1.198  0.00  0.00    -0.050 C 
ATOM     17  H1  <0> d          -0.044   4.675   1.913  0.00  0.00     0.033 H 
ATOM     18  H2  <0> d          -0.058   4.489   0.143  0.00  0.00     0.033 H 
ATOM     19  H9  <0> d          -1.251   2.509   2.137  0.00  0.00     0.035 H 
ATOM     20  H10 <0> d          -2.177   3.677   1.164  0.00  0.00     0.035 H 
ATOM     21  H7  <0> d          -1.405   2.621  -0.917  0.00  0.00     0.064 H 
ATOM     22  H8  <0> d          -2.115   1.371   0.138  0.00  0.00     0.064 H 
ATOM     23  O1  <0> d           1.060  -0.596  -0.011  0.00  0.00    -0.272 OA
ENDBRANCH   1   6
TORSDOF 1
