REMARK  4 active torsions:
REMARK  status: ('A' for Active; 'I' for Inactive)
REMARK    1  A    between atoms: C1_1  and  C2_2 
REMARK    2  A    between atoms: C2_2  and  C3_3 
REMARK    3  A    between atoms: C2_2  and  C4_4 
REMARK    4  A    between atoms: C6_6  and  C7_10 
ROOT
ATOM      1  C4  <0> d           0.731  -0.503   1.223  0.00  0.00     0.060 A 
ATOM      2  C5  <0> d           2.112  -0.661   1.347  0.00  0.00    -0.023 A 
ATOM      3  C6  <0> d           2.312  -1.140   2.633  0.00  0.00     0.128 A 
ATOM      4  N1  <0> d           1.071  -1.243   3.199  0.00  0.00    -0.271 N 
ATOM      5  H1  <0> d           0.892  -1.552   4.100  0.00  0.00     0.189 HD
ATOM      6  N2  <0> d           0.181  -0.860   2.356  0.00  0.00    -0.178 NA
ATOM      7  H9  <0> d           2.865  -0.454   0.601  0.00  0.00     0.090 H 
ENDROOT
BRANCH   1   8
ATOM      8  C2  <0> d           0.002  -0.004   0.002  0.00  0.00    -0.017 C 
ATOM      9  H5  <0> d          -1.020  -0.381   0.010  0.00  0.00     0.048 H 
BRANCH   8  10
ATOM     10  C1  <0> d          -0.019   1.526   0.010  0.00  0.00    -0.068 C 
ATOM     11  H2  <0> d           1.004   1.903   0.003  0.00  0.00     0.028 H 
ATOM     12  H3  <0> d          -0.546   1.887  -0.873  0.00  0.00     0.028 H 
ATOM     13  H4  <0> d          -0.529   1.877   0.907  0.00  0.00     0.028 H 
ENDBRANCH   8  10
BRANCH   8  14
ATOM     14  C3  <0> d           0.718  -0.497  -1.257  0.00  0.00    -0.068 C 
ATOM     15  H6  <0> d           1.741  -0.120  -1.264  0.00  0.00     0.028 H 
ATOM     16  H7  <0> d           0.733  -1.587  -1.263  0.00  0.00     0.028 H 
ATOM     17  H8  <0> d           0.191  -0.136  -2.140  0.00  0.00     0.028 H 
ENDBRANCH   8  14
ENDBRANCH   1   8
BRANCH   3  18
ATOM     18  C7  <0> d           3.597  -1.472   3.260  0.00  0.00     0.228 C 
ATOM     19  O1  <0> d           3.627  -1.888   4.410  0.00  0.00    -0.643 OA
ATOM     20  O2  <0> d           4.638  -1.331   2.632  0.00  0.00    -0.643 OA
ENDBRANCH   3  18
TORSDOF 4
