REMARK  2 active torsions:
REMARK  status: ('A' for Active; 'I' for Inactive)
REMARK    1  A    between atoms: C1_1  and  C2_2 
REMARK    2  A    between atoms: N2_8  and  C7_11 
ROOT
ATOM      1  C2  <0> d           0.032  -3.187  -1.541  0.00  0.00     0.063 A 
ATOM      2  C3  <0> d           0.026  -2.139  -0.615  0.00  0.00     0.133 A 
ATOM      3  C4  <0> d          -0.003  -0.816  -1.100  0.00  0.00     0.087 A 
ATOM      4  C5  <0> d          -0.026  -0.611  -2.478  0.00  0.00    -0.036 A 
ATOM      5  C6  <0> d          -0.023  -1.696  -3.308  0.00  0.00     0.005 A 
ATOM      6  N1  <0> d          -0.000  -2.930  -2.830  0.00  0.00    -0.263 NA
ATOM      7  N2  <0> d           0.002  -0.004   0.002  0.00  0.00    -0.254 N 
ATOM      8  N3  <0> d           0.024  -0.848   1.123  0.00  0.00    -0.065 NA
ATOM      9  N4  <0> d           0.037  -2.076   0.735  0.00  0.00    -0.128 NA
ATOM     10  H4  <0> d          -0.046   0.390  -2.883  0.00  0.00     0.089 H 
ATOM     11  H5  <0> d          -0.041  -1.544  -4.377  0.00  0.00     0.114 H 
ENDROOT
BRANCH   1  12
ATOM     12  C1  <0> d           0.056  -4.615  -1.059  0.00  0.00    -0.033 C 
ATOM     13  H1  <0> d          -0.966  -4.973  -0.934  0.00  0.00     0.035 H 
ATOM     14  H2  <0> d           0.571  -5.237  -1.791  0.00  0.00     0.035 H 
ATOM     15  H3  <0> d           0.579  -4.668  -0.105  0.00  0.00     0.035 H 
ENDBRANCH   1  12
BRANCH   7  16
ATOM     16  C7  <0> d          -0.018   1.461   0.010  0.00  0.00     0.004 C 
ATOM     17  H6  <0> d           1.005   1.838   0.002  0.00  0.00     0.059 H 
ATOM     18  H7  <0> d          -0.545   1.822  -0.873  0.00  0.00     0.059 H 
ATOM     19  H8  <0> d          -0.528   1.812   0.907  0.00  0.00     0.059 H 
ENDBRANCH   7  16
TORSDOF 2
