REMARK  3 active torsions:
REMARK  status: ('A' for Active; 'I' for Inactive)
REMARK    1  A    between atoms: C1_1  and  N1_2 
REMARK       I    between atoms: N1_2  and  C2_3 
REMARK    2  A    between atoms: C2_3  and  C3_5 
REMARK    3  A    between atoms: C8_10  and  O2_11 
ROOT
ATOM      1  C3  <0> d          -2.455   0.869   0.018  0.00  0.00     0.065 A 
ATOM      2  C4  <0> d          -2.441  -0.528   0.005  0.00  0.00    -0.065 A 
ATOM      3  C5  <0> d          -3.628  -1.227   0.011  0.00  0.00    -0.082 A 
ATOM      4  C6  <0> d          -4.837  -0.551   0.021  0.00  0.00    -0.080 A 
ATOM      5  C7  <0> d          -4.866   0.829   0.029  0.00  0.00    -0.050 A 
ATOM      6  C8  <0> d          -3.680   1.549   0.028  0.00  0.00     0.081 A 
ATOM      7  H5  <0> d          -1.500  -1.059  -0.007  0.00  0.00     0.085 H 
ATOM      8  H6  <0> d          -3.616  -2.307   0.004  0.00  0.00     0.083 H 
ATOM      9  H7  <0> d          -5.763  -1.107   0.021  0.00  0.00     0.083 H 
ATOM     10  H8  <0> d          -5.812   1.349   0.036  0.00  0.00     0.087 H 
ENDROOT
BRANCH   1  11
ATOM     11  C2  <0> d          -1.187   1.624   0.017  0.00  0.00     0.254 C 
ATOM     12  N1  <0> d          -0.011   0.966   0.007  0.00  0.00    -0.361 N 
ATOM     13  H4  <0> d           0.002  -0.004   0.002  0.00  0.00     0.162 HD
ATOM     14  O1  <0> d          -1.204   2.840   0.023  0.00  0.00    -0.268 OA
BRANCH  12  15
ATOM     15  C1  <0> d           1.248   1.716  -0.001  0.00  0.00    -0.018 C 
ATOM     16  H1  <0> d           2.086   1.019  -0.012  0.00  0.00     0.056 H 
ATOM     17  H2  <0> d           1.288   2.348  -0.888  0.00  0.00     0.056 H 
ATOM     18  H3  <0> d           1.305   2.338   0.892  0.00  0.00     0.056 H 
ENDBRANCH  12  15
ENDBRANCH   1  11
BRANCH   6  19
ATOM     19  O2  <0> d          -3.707   2.905   0.035  0.00  0.00    -0.360 OA
ATOM     20  H9  <0> d          -3.719   3.303  -0.846  0.00  0.00     0.217 HD
ENDBRANCH   6  19
TORSDOF 3
