REMARK  3 active torsions:
REMARK  status: ('A' for Active; 'I' for Inactive)
REMARK    1  A    between atoms: C1_1  and  C2_2 
REMARK    2  A    between atoms: C2_2  and  C3_3 
REMARK    3  A    between atoms: C2_2  and  C4_4 
ROOT
ATOM      1  C2  <0> d           1.304  -2.151  -0.021  0.00  0.00    -0.019 C 
ATOM      2  H4  <0> d           2.260  -2.454  -0.473  0.00  0.00     0.048 H 
ENDROOT
BRANCH   1   3
ATOM      3  C1  <0> d           1.217  -2.674   1.414  0.00  0.00    -0.068 C 
ATOM      4  H1  <0> d           2.054  -2.269   2.003  0.00  0.00     0.028 H 
ATOM      5  H2  <0> d           1.272  -3.772   1.408  0.00  0.00     0.028 H 
ATOM      6  H3  <0> d           0.265  -2.356   1.863  0.00  0.00     0.028 H 
ENDBRANCH   1   3
BRANCH   1   7
ATOM      7  C3  <0> d           0.141  -2.715  -0.840  0.00  0.00    -0.068 C 
ATOM      8  H5  <0> d           0.203  -2.339  -1.872  0.00  0.00     0.028 H 
ATOM      9  H6  <0> d          -0.812  -2.397  -0.391  0.00  0.00     0.028 H 
ATOM     10  H7  <0> d           0.195  -3.813  -0.847  0.00  0.00     0.028 H 
ENDBRANCH   1   7
BRANCH   1  11
ATOM     11  C4  <0> d           1.230  -0.646  -0.013  0.00  0.00     0.042 A 
ATOM     12  N2  <0> d           2.336   0.080  -0.020  0.00  0.00    -0.246 NA
ATOM     13  C7  <0> d           2.281   1.397  -0.012  0.00  0.00     0.088 A 
ATOM     14  N1  <0> d           1.132   2.043   0.002  0.00  0.00    -0.230 NA
ATOM     15  H9  <0> d           3.201   1.962  -0.018  0.00  0.00     0.146 H 
ATOM     16  C6  <0> d          -0.017   1.384   0.010  0.00  0.00     0.129 A 
ATOM     17  C5  <0> d           0.002  -0.004   0.002  0.00  0.00    -0.020 A 
ATOM     18 Cl1  <0> d          -1.525   2.243   0.021  0.00  0.00    -0.062 Cl
ATOM     19  H8  <0> d          -0.918  -0.570   0.008  0.00  0.00     0.091 H 
ENDBRANCH   1  11
TORSDOF 3
