REMARK  2 active torsions:
REMARK  status: ('A' for Active; 'I' for Inactive)
REMARK    1  A    between atoms: N1_4  and  C6_8 
REMARK    2  A    between atoms: C6_8  and  C7_9 
ROOT
ATOM      1  C7  <0> d          -0.013   1.086   0.008  0.00  0.00     0.030 C 
ATOM      2  C8  <0> d          -0.725   1.573  -1.185  0.00  0.00     0.060 C 
ATOM      3  N2  <0> d          -1.274   1.950  -2.105  0.00  0.00    -0.197 NA
ATOM      4  H7  <0> d           0.002  -0.004   0.002  0.00  0.00     0.057 H 
ATOM      5  H8  <0> d           1.010   1.463   0.000  0.00  0.00     0.057 H 
ENDROOT
BRANCH   1   6
ATOM      6  C6  <0> d          -0.729   1.579   1.267  0.00  0.00     0.013 C 
ATOM      7  H5  <0> d          -0.744   2.669   1.273  0.00  0.00     0.066 H 
ATOM      8  H6  <0> d          -1.751   1.202   1.275  0.00  0.00     0.066 H 
BRANCH   6   9
ATOM      9  N1  <0> d          -0.020   1.094   2.454  0.00  0.00    -0.324 N 
ATOM     10  C3  <0> d          -0.368  -0.099   3.002  0.00  0.00    -0.017 A 
ATOM     11  C2  <0> d           0.276  -0.570   4.095  0.00  0.00    -0.068 A 
ATOM     12  H3  <0> d          -1.163  -0.679   2.558  0.00  0.00     0.111 H 
ATOM     13  C1  <0> d           1.305   0.181   4.680  0.00  0.00    -0.076 A 
ATOM     14  H2  <0> d          -0.007  -1.522   4.520  0.00  0.00     0.085 H 
ATOM     15  C5  <0> d           1.649   1.381   4.131  0.00  0.00    -0.017 A 
ATOM     16  H1  <0> d           1.820  -0.187   5.555  0.00  0.00     0.083 H 
ATOM     17  C4  <0> d           0.964   1.838   2.992  0.00  0.00     0.247 A 
ATOM     18  H4  <0> d           2.440   1.974   4.567  0.00  0.00     0.092 H 
ATOM     19  O1  <0> d           1.262   2.911   2.490  0.00  0.00    -0.268 OA
ENDBRANCH   6   9
ENDBRANCH   1   6
TORSDOF 2
