REMARK  3 active torsions:
REMARK  status: ('A' for Active; 'I' for Inactive)
REMARK    1  A    between atoms: C1_1  and  C2_2 
REMARK    2  A    between atoms: C5_6  and  O1_12 
REMARK    3  A    between atoms: C7_9  and  C8_11 
ROOT
ATOM      1  C2  <0> d          -0.729   1.579   1.267  0.00  0.00    -0.054 C 
ATOM      2  H1  <0> d          -1.751   1.202   1.275  0.00  0.00     0.040 H 
ATOM      3  C3  <0> d           0.011   1.072   2.506  0.00  0.00    -0.059 C 
ATOM      4  C4  <0> d          -0.705   1.566   3.765  0.00  0.00    -0.041 C 
ATOM      5  C5  <0> d          -0.726   3.096   3.774  0.00  0.00     0.036 C 
ATOM      6  H2  <0> d           0.297   3.473   3.766  0.00  0.00     0.082 H 
ATOM      7  C6  <0> d          -1.466   3.603   2.534  0.00  0.00    -0.038 C 
ATOM      8  C7  <0> d          -0.750   3.109   1.275  0.00  0.00    -0.052 C 
ATOM      9  H3  <0> d           0.273   3.486   1.268  0.00  0.00     0.040 H 
ATOM     10  H7  <0> d           0.026  -0.018   2.500  0.00  0.00     0.033 H 
ATOM     11  H8  <0> d           1.034   1.450   2.499  0.00  0.00     0.033 H 
ATOM     12  H9  <0> d          -1.728   1.188   3.773  0.00  0.00     0.036 H 
ATOM     13  H10 <0> d          -0.178   1.205   4.648  0.00  0.00     0.036 H 
ATOM     14  H11 <0> d          -2.488   3.225   2.542  0.00  0.00     0.037 H 
ATOM     15  H12 <0> d          -1.480   4.692   2.540  0.00  0.00     0.037 H 
ENDROOT
BRANCH   1  16
ATOM     16  C1  <0> d          -0.013   1.086   0.008  0.00  0.00    -0.073 C 
ATOM     17  H4  <0> d           0.002  -0.004   0.002  0.00  0.00     0.028 H 
ATOM     18  H5  <0> d           1.010   1.463   0.000  0.00  0.00     0.028 H 
ATOM     19  H6  <0> d          -0.540   1.447  -0.875  0.00  0.00     0.028 H 
ENDBRANCH   1  16
BRANCH   8  20
ATOM     20  C8  <0> d          -1.490   3.616   0.036  0.00  0.00    -0.072 C 
ATOM     21  H13 <0> d          -2.512   3.239   0.043  0.00  0.00     0.028 H 
ATOM     22  H14 <0> d          -1.504   4.706   0.042  0.00  0.00     0.028 H 
ATOM     23  H15 <0> d          -0.979   3.264  -0.861  0.00  0.00     0.028 H 
ENDBRANCH   8  20
BRANCH   5  24
ATOM     24  O1  <0> d          -1.395   3.557   4.949  0.00  0.00    -0.396 OA
ATOM     25  H16 <0> d          -0.979   3.272   5.775  0.00  0.00     0.210 HD
ENDBRANCH   5  24
TORSDOF 3
