REMARK  0 active torsions:
REMARK  status: ('A' for Active; 'I' for Inactive)
ROOT
ATOM      1  C1  <0> d          -0.019   1.572   0.011  0.00  0.00    -0.051 C 
ATOM      2  C2  <0> d           1.550   1.686  -0.004  0.00  0.00    -0.036 C 
ATOM      3  H1  <0> d           1.970   2.689   0.069  0.00  0.00     0.046 H 
ATOM      4  C3  <0> d           1.881   0.888  -1.309  0.00  0.00    -0.047 C 
ATOM      5  C4  <0> d           0.837  -0.235  -1.306  0.00  0.00     0.010 C 
ATOM      6  C5  <0> d           0.002  -0.004   0.002  0.00  0.00    -0.026 C 
ATOM      7  H2  <0> d          -0.962  -0.510   0.060  0.00  0.00     0.047 H 
ATOM      8  C6  <0> d           0.993  -0.248   1.149  0.00  0.00    -0.101 C 
ATOM      9  C7  <0> d           1.885   0.723   1.142  0.00  0.00    -0.102 C 
ATOM     10  C8  <0> d           1.358  -1.653  -1.506  0.00  0.00     0.029 C 
ATOM     11  O1  <0> d           0.180  -1.835  -2.322  0.00  0.00    -0.389 OA
ATOM     12  C9  <0> d           0.033  -0.423  -2.588  0.00  0.00     0.029 C 
ATOM     13  H3  <0> d          -0.459   1.978   0.921  0.00  0.00     0.035 H 
ATOM     14  H4  <0> d          -0.476   1.988  -0.887  0.00  0.00     0.035 H 
ATOM     15  H5  <0> d           1.763   1.522  -2.188  0.00  0.00     0.035 H 
ATOM     16  H6  <0> d           2.890   0.476  -1.264  0.00  0.00     0.035 H 
ATOM     17  H7  <0> d           0.964  -1.075   1.844  0.00  0.00     0.077 H 
ATOM     18  H8  <0> d           2.713   0.823   1.828  0.00  0.00     0.076 H 
ATOM     19  H9  <0> d           2.294  -1.706  -2.062  0.00  0.00     0.075 H 
ATOM     20  H10 <0> d           1.364  -2.255  -0.597  0.00  0.00     0.075 H 
ATOM     21  H11 <0> d          -0.994  -0.065  -2.522  0.00  0.00     0.075 H 
ATOM     22  H12 <0> d           0.549  -0.085  -3.486  0.00  0.00     0.075 H 
ENDROOT
TORSDOF 0
