REMARK  0 active torsions:
REMARK  status: ('A' for Active; 'I' for Inactive)
ROOT
ATOM      1  C1  <0> d          -0.018   1.441   0.010  0.00  0.00     0.040 C 
ATOM      2  C2  <0> d           1.390   1.985  -0.001  0.00  0.00     0.040 C 
ATOM      3  O1  <0> d           1.668   2.292  -1.359  0.00  0.00    -0.382 OA
ATOM      4  C3  <0> d           2.241   1.328  -2.162  0.00  0.00     0.076 C 
ATOM      5  C4  <0> d           1.274   0.128  -2.126  0.00  0.00     0.173 C 
ATOM      6  O2  <0> d           0.715  -0.246  -3.129  0.00  0.00    -0.293 OA
ATOM      7  C5  <0> d           1.046  -0.559  -0.828  0.00  0.00     0.076 C 
ATOM      8  O3  <0> d           0.002  -0.004   0.002  0.00  0.00    -0.382 OA
ATOM      9  H1  <0> d          -0.532   1.790   0.905  0.00  0.00     0.077 H 
ATOM     10  H2  <0> d          -0.549   1.800  -0.872  0.00  0.00     0.077 H 
ATOM     11  H3  <0> d           1.451   2.886   0.610  0.00  0.00     0.077 H 
ATOM     12  H4  <0> d           2.088   1.232   0.366  0.00  0.00     0.077 H 
ATOM     13  H5  <0> d           2.343   1.699  -3.182  0.00  0.00     0.086 H 
ATOM     14  H6  <0> d           3.215   1.039  -1.767  0.00  0.00     0.086 H 
ATOM     15  H7  <0> d           0.801  -1.601  -1.032  0.00  0.00     0.086 H 
ATOM     16  H8  <0> d           1.978  -0.537  -0.263  0.00  0.00     0.086 H 
ENDROOT
TORSDOF 0
