REMARK  2 active torsions:
REMARK  status: ('A' for Active; 'I' for Inactive)
REMARK    1  A    between atoms: C1_1  and  C2_2 
REMARK    2  A    between atoms: C4_4  and  C5_8 
ROOT
ATOM      1  C2  <0> d           0.002  -0.004   0.002  0.00  0.00     0.047 A 
ATOM      2  C3  <0> d           1.297  -0.399  -0.013  0.00  0.00     0.083 A 
ATOM      3  C4  <0> d           2.097   0.750  -0.014  0.00  0.00     0.074 A 
ATOM      4  N1  <0> d           1.310   1.796  -0.001  0.00  0.00    -0.178 NA
ATOM      5  N2  <0> d          -0.016   1.346   0.009  0.00  0.00    -0.281 N 
ATOM      6  H1  <0> d          -0.833   1.923   0.020  0.00  0.00     0.189 HD
ATOM      7 Cl1  <0> d           1.865  -2.039  -0.026  0.00  0.00    -0.080 Cl
ENDROOT
BRANCH   1   8
ATOM      8  C1  <0> d          -1.203  -0.909   0.009  0.00  0.00    -0.034 C 
ATOM      9  H2  <0> d          -1.503  -1.122  -1.017  0.00  0.00     0.035 H 
ATOM     10  H3  <0> d          -0.954  -1.842   0.516  0.00  0.00     0.035 H 
ATOM     11  H4  <0> d          -2.023  -0.418   0.533  0.00  0.00     0.035 H 
ENDBRANCH   1   8
BRANCH   3  12
ATOM     12  C5  <0> d           3.603   0.777  -0.028  0.00  0.00    -0.032 C 
ATOM     13  H5  <0> d           3.957   0.789  -1.059  0.00  0.00     0.035 H 
ATOM     14  H6  <0> d           3.955   1.671   0.487  0.00  0.00     0.035 H 
ATOM     15  H7  <0> d           3.988  -0.109   0.477  0.00  0.00     0.035 H 
ENDBRANCH   3  12
TORSDOF 2
