REMARK  0 active torsions:
REMARK  status: ('A' for Active; 'I' for Inactive)
ROOT
ATOM      1  C1  <0> d          -0.017   1.378   0.010  0.00  0.00    -0.080 A 
ATOM      2  C2  <0> d           1.171   2.086   0.002  0.00  0.00    -0.081 A 
ATOM      3  C3  <0> d           2.378   1.414  -0.013  0.00  0.00    -0.059 A 
ATOM      4  C4  <0> d           2.400   0.031  -0.022  0.00  0.00     0.072 A 
ATOM      5  C5  <0> d           1.210  -0.680  -0.014  0.00  0.00     0.138 A 
ATOM      6  C6  <0> d           0.002  -0.004   0.002  0.00  0.00    -0.044 A 
ATOM      7  F1  <0> d           1.230  -2.030  -0.022  0.00  0.00    -0.204 F 
ATOM      8 Cl1  <0> d           3.916  -0.814  -0.042  0.00  0.00    -0.081 Cl
ATOM      9  H1  <0> d          -0.959   1.905   0.026  0.00  0.00     0.083 H 
ATOM     10  H2  <0> d           1.154   3.166   0.008  0.00  0.00     0.083 H 
ATOM     11  H3  <0> d           3.305   1.968  -0.020  0.00  0.00     0.086 H 
ATOM     12  H4  <0> d          -0.926  -0.557   0.008  0.00  0.00     0.088 H 
ENDROOT
TORSDOF 0
