REMARK  4 active torsions:
REMARK  status: ('A' for Active; 'I' for Inactive)
REMARK    1  A    between atoms: C1_1  and  C2_2 
REMARK    2  A    between atoms: C2_2  and  C3_3 
REMARK    3  A    between atoms: C6_6  and  C9_9 
REMARK    4  A    between atoms: C9_9  and  O1_10 
ROOT
ATOM      1  C3  <0> d          -2.012   2.463   3.523  0.00  0.00    -0.059 A 
ATOM      2  C4  <0> d          -2.366   1.254   2.955  0.00  0.00    -0.076 A 
ATOM      3  C5  <0> d          -1.719   0.808   1.818  0.00  0.00    -0.074 A 
ATOM      4  C6  <0> d          -0.718   1.572   1.248  0.00  0.00    -0.035 A 
ATOM      5  C7  <0> d          -0.360   2.779   1.819  0.00  0.00    -0.074 A 
ATOM      6  C8  <0> d          -1.010   3.227   2.953  0.00  0.00    -0.076 A 
ATOM      7  H6  <0> d          -3.149   0.657   3.400  0.00  0.00     0.084 H 
ATOM      8  H7  <0> d          -1.996  -0.137   1.374  0.00  0.00     0.084 H 
ATOM      9  H8  <0> d           0.425   3.373   1.376  0.00  0.00     0.084 H 
ATOM     10  H9  <0> d          -0.733   4.172   3.397  0.00  0.00     0.084 H 
ENDROOT
BRANCH   1  11
ATOM     11  C2  <0> d          -2.718   2.950   4.762  0.00  0.00    -0.044 C 
ATOM     12  H4  <0> d          -2.732   4.040   4.768  0.00  0.00     0.039 H 
ATOM     13  H5  <0> d          -3.741   2.573   4.769  0.00  0.00     0.039 H 
BRANCH  11  14
ATOM     14  C1  <0> d          -1.979   2.442   6.002  0.00  0.00    -0.073 C 
ATOM     15  H1  <0> d          -1.965   1.353   5.996  0.00  0.00     0.028 H 
ATOM     16  H2  <0> d          -0.957   2.819   5.995  0.00  0.00     0.028 H 
ATOM     17  H3  <0> d          -2.490   2.794   6.899  0.00  0.00     0.028 H 
ENDBRANCH  11  14
ENDBRANCH   1  11
BRANCH   4  18
ATOM     18  C9  <0> d          -0.013   1.086   0.008  0.00  0.00     0.040 C 
ATOM     19  H10 <0> d           0.002  -0.004   0.002  0.00  0.00     0.081 H 
ATOM     20  H11 <0> d           1.010   1.463   0.000  0.00  0.00     0.081 H 
BRANCH  18  21
ATOM     21  O1  <0> d          -0.704   1.559  -1.150  0.00  0.00    -0.396 OA
ATOM     22  H12 <0> d          -0.304   1.284  -1.986  0.00  0.00     0.209 HD
ENDBRANCH  18  21
ENDBRANCH   4  18
TORSDOF 4
