REMARK  2 active torsions:
REMARK  status: ('A' for Active; 'I' for Inactive)
REMARK    1  A    between atoms: C3_3  and  C6_8 
REMARK    2  A    between atoms: C4_5  and  O1_7 
ROOT
ATOM      1  C1  <0> d           3.113   2.394   1.189  0.00  0.00    -0.076 A 
ATOM      2  C2  <0> d           3.698   2.676  -0.037  0.00  0.00    -0.048 A 
ATOM      3  C3  <0> d           3.007   2.368  -1.206  0.00  0.00     0.136 A 
ATOM      4  N1  <0> d           1.801   1.811  -1.152  0.00  0.00    -0.218 NA
ATOM      5  C4  <0> d           1.221   1.531  -0.001  0.00  0.00     0.162 A 
ATOM      6  C5  <0> d           1.855   1.819   1.205  0.00  0.00    -0.032 A 
ATOM      7  H1  <0> d           3.627   2.623   2.111  0.00  0.00     0.083 H 
ATOM      8  H2  <0> d           4.677   3.129  -0.085  0.00  0.00     0.087 H 
ATOM      9  H3  <0> d           1.371   1.591   2.144  0.00  0.00     0.090 H 
ENDROOT
BRANCH   3  10
ATOM     10  C6  <0> d           3.620   2.663  -2.520  0.00  0.00     0.229 C 
ATOM     11  O2  <0> d           4.721   3.173  -2.576  0.00  0.00    -0.643 OA
ATOM     12  O3  <0> d           2.957   2.368  -3.655  0.00  0.00    -0.643 OA
ENDBRANCH   3  10
BRANCH   5  13
ATOM     13  O1  <0> d          -0.011   0.963   0.007  0.00  0.00    -0.345 OA
ATOM     14  H4  <0> d           0.002  -0.004   0.002  0.00  0.00     0.219 HD
ENDBRANCH   5  13
TORSDOF 2
