REMARK  2 active torsions:
REMARK  status: ('A' for Active; 'I' for Inactive)
REMARK    1  A    between atoms: C1_1  and  C2_2 
REMARK    2  A    between atoms: C4_4  and  C6_7 
ROOT
ATOM      1  C2  <0> d          -3.677   1.970   0.031  0.00  0.00    -0.020 A 
ATOM      2  C3  <0> d          -2.555   1.224   0.015  0.00  0.00    -0.054 A 
ATOM      3  C4  <0> d          -1.298   1.929   0.019  0.00  0.00     0.048 A 
ATOM      4  C5  <0> d          -1.352   3.308   0.026  0.00  0.00    -0.028 A 
ATOM      5  S1  <0> d          -3.052   3.638   0.036  0.00  0.00    -0.106 SA
ATOM      6  H4  <0> d          -2.596   0.145   0.005  0.00  0.00     0.086 H 
ATOM      7  H5  <0> d          -0.533   4.012   0.025  0.00  0.00     0.096 H 
ENDROOT
BRANCH   1   8
ATOM      8  C1  <0> d          -5.111   1.507   0.035  0.00  0.00    -0.045 C 
ATOM      9  H1  <0> d          -5.772   2.373   0.043  0.00  0.00     0.034 H 
ATOM     10  H2  <0> d          -5.302   0.911  -0.857  0.00  0.00     0.034 H 
ATOM     11  H3  <0> d          -5.294   0.901   0.923  0.00  0.00     0.034 H 
ENDBRANCH   1   8
BRANCH   3  12
ATOM     12  C6  <0> d          -0.014   1.211   0.009  0.00  0.00     0.209 C 
ATOM     13  O1  <0> d           0.002  -0.004   0.002  0.00  0.00    -0.644 OA
ATOM     14  O2  <0> d           1.144   1.901   0.001  0.00  0.00    -0.644 OA
ENDBRANCH   3  12
TORSDOF 2
