REMARK  3 active torsions:
REMARK  status: ('A' for Active; 'I' for Inactive)
REMARK    1  A    between atoms: C1_1  and  O1_2 
REMARK    2  A    between atoms: O1_2  and  C2_3 
REMARK    3  A    between atoms: C2_3  and  C3_5 
ROOT
ATOM      1  C3  <0> d          -1.229   1.758   0.017  0.00  0.00     0.148 A 
ATOM      2  C4  <0> d          -0.013   1.076   0.008  0.00  0.00     0.035 A 
ATOM      3  N1  <0> d           1.121   1.753   0.001  0.00  0.00    -0.269 NA
ATOM      4  C5  <0> d           1.104   3.074   0.008  0.00  0.00     0.019 A 
ATOM      5  C6  <0> d          -0.105   3.756   0.022  0.00  0.00     0.020 A 
ATOM      6  N2  <0> d          -1.241   3.088   0.029  0.00  0.00    -0.252 NA
ATOM      7  H4  <0> d           0.002  -0.004   0.002  0.00  0.00     0.118 H 
ATOM      8  H5  <0> d           2.033   3.625   0.001  0.00  0.00     0.117 H 
ATOM      9  H6  <0> d          -0.114   4.836   0.027  0.00  0.00     0.117 H 
ENDROOT
BRANCH   1  10
ATOM     10  C2  <0> d          -2.503   1.004   0.020  0.00  0.00     0.313 C 
ATOM     11  O2  <0> d          -2.490  -0.210   0.013  0.00  0.00    -0.257 OA
BRANCH  10  12
ATOM     12  O1  <0> d          -3.677   1.665   0.029  0.00  0.00    -0.321 OA
BRANCH  12  13
ATOM     13  C1  <0> d          -4.886   0.861   0.031  0.00  0.00     0.013 C 
ATOM     14  H1  <0> d          -4.900   0.228   0.918  0.00  0.00     0.067 H 
ATOM     15  H2  <0> d          -5.757   1.516   0.038  0.00  0.00     0.067 H 
ATOM     16  H3  <0> d          -4.908   0.237  -0.862  0.00  0.00     0.067 H 
ENDBRANCH  12  13
ENDBRANCH  10  12
ENDBRANCH   1  10
TORSDOF 3
