REMARK  1 active torsions:
REMARK  status: ('A' for Active; 'I' for Inactive)
REMARK    1  A    between atoms: N1_6  and  C5_7 
ROOT
ATOM      1  C1  <0> d           0.772  -0.505   1.227  0.00  0.00     0.006 C 
ATOM      2  C2  <0> d           0.002  -0.004   0.002  0.00  0.00     0.031 C 
ATOM      3  O1  <0> d          -0.017   1.426   0.010  0.00  0.00    -0.389 OA
ATOM      4  C3  <0> d           1.284   2.019   0.001  0.00  0.00     0.031 C 
ATOM      5  C4  <0> d           2.067   1.539   1.225  0.00  0.00     0.006 C 
ATOM      6  N1  <0> d           2.125   0.070   1.217  0.00  0.00    -0.245 NA
ATOM      7  H1  <0> d           0.252  -0.198   2.134  0.00  0.00     0.059 H 
ATOM      8  H2  <0> d           0.839  -1.593   1.195  0.00  0.00     0.059 H 
ATOM      9  H3  <0> d          -1.020  -0.382   0.035  0.00  0.00     0.076 H 
ATOM     10  H4  <0> d           0.492  -0.356  -0.906  0.00  0.00     0.076 H 
ATOM     11  H5  <0> d           1.811   1.726  -0.907  0.00  0.00     0.076 H 
ATOM     12  H6  <0> d           1.189   3.105   0.032  0.00  0.00     0.076 H 
ATOM     13  H7  <0> d           1.568   1.878   2.133  0.00  0.00     0.059 H 
ATOM     14  H8  <0> d           3.079   1.943   1.192  0.00  0.00     0.059 H 
ENDROOT
BRANCH   6  15
ATOM     15  C5  <0> d           2.879  -0.407   2.292  0.00  0.00     0.247 A 
ATOM     16  N4  <0> d           2.465  -1.263   3.227  0.00  0.00    -0.094 NA
ATOM     17  N3  <0> d           3.415  -1.490   4.064  0.00  0.00    -0.020 NA
ATOM     18  N5  <0> d           4.443  -0.807   3.724  0.00  0.00    -0.020 NA
ATOM     19  N2  <0> d           4.126  -0.089   2.571  0.00  0.00    -0.094 NA
ENDBRANCH   6  15
TORSDOF 1
