REMARK  1 active torsions:
REMARK  status: ('A' for Active; 'I' for Inactive)
REMARK    1  A    between atoms: C4_4  and  C7_7 
ROOT
ATOM      1  C1  <0> d           5.983  -2.024  -0.064  0.00  0.00    -0.083 A 
ATOM      2  C2  <0> d           5.965  -0.641  -0.057  0.00  0.00    -0.082 A 
ATOM      3  C3  <0> d           4.763   0.036  -0.043  0.00  0.00    -0.069 A 
ATOM      4  C4  <0> d           3.565  -0.676  -0.035  0.00  0.00     0.015 A 
ATOM      5  C5  <0> d           3.589  -2.070  -0.036  0.00  0.00    -0.069 A 
ATOM      6  C6  <0> d           4.798  -2.736  -0.056  0.00  0.00    -0.082 A 
ATOM      7  H1  <0> d           6.927  -2.550  -0.076  0.00  0.00     0.083 H 
ATOM      8  H2  <0> d           6.894  -0.090  -0.063  0.00  0.00     0.083 H 
ATOM      9  H3  <0> d           4.750   1.116  -0.038  0.00  0.00     0.085 H 
ATOM     10  H4  <0> d           2.664  -2.627  -0.026  0.00  0.00     0.085 H 
ATOM     11  H5  <0> d           4.818  -3.816  -0.062  0.00  0.00     0.083 H 
ENDROOT
BRANCH   4  12
ATOM     12  C7  <0> d           2.270   0.045  -0.019  0.00  0.00     0.203 A 
ATOM     13  N4  <0> d           2.247   1.375  -0.012  0.00  0.00    -0.126 NA
ATOM     14  N3  <0> d           1.118   1.999   0.002  0.00  0.00    -0.140 NA
ATOM     15  C8  <0> d          -0.016   1.319   0.009  0.00  0.00     0.129 A 
ATOM     16  N2  <0> d           0.002  -0.004   0.002  0.00  0.00    -0.140 NA
ATOM     17  H6  <0> d          -0.959   1.844   0.017  0.00  0.00     0.152 H 
ATOM     18  N1  <0> d           1.127  -0.636  -0.012  0.00  0.00    -0.126 NA
ENDBRANCH   4  12
TORSDOF 1
