REMARK  3 active torsions:
REMARK  status: ('A' for Active; 'I' for Inactive)
REMARK    1  A    between atoms: C1_1  and  C2_2 
REMARK    2  A    between atoms: C2_2  and  S1_3 
REMARK    3  A    between atoms: S1_3  and  C3_4 
ROOT
ATOM      1  C2  <0> d          -2.742   1.074   0.022  0.00  0.00    -0.019 C 
ATOM      2  H4  <0> d          -2.647   0.457  -0.871  0.00  0.00     0.049 H 
ATOM      3  H5  <0> d          -2.638   0.448   0.908  0.00  0.00     0.049 H 
ENDROOT
BRANCH   1   4
ATOM      4  C1  <0> d          -4.115   1.750   0.033  0.00  0.00    -0.068 C 
ATOM      5  H1  <0> d          -4.209   2.366   0.926  0.00  0.00     0.028 H 
ATOM      6  H2  <0> d          -4.218   2.376  -0.854  0.00  0.00     0.028 H 
ATOM      7  H3  <0> d          -4.894   0.988   0.033  0.00  0.00     0.028 H 
ENDBRANCH   1   4
BRANCH   1   8
ATOM      8  S1  <0> d          -1.447   2.339   0.022  0.00  0.00    -0.087 SA
BRANCH   8   9
ATOM      9  C3  <0> d          -0.016   1.311   0.009  0.00  0.00     0.233 A 
ATOM     10  N3  <0> d           0.002  -0.004   0.002  0.00  0.00    -0.100 NA
ATOM     11  N2  <0> d           1.211  -0.437  -0.012  0.00  0.00    -0.021 NA
ATOM     12  N1  <0> d           2.041   0.549  -0.015  0.00  0.00    -0.021 NA
ATOM     13  N4  <0> d           1.264   1.701  -0.001  0.00  0.00    -0.100 NA
ENDBRANCH   8   9
ENDBRANCH   1   8
TORSDOF 3
