REMARK  1 active torsions:
REMARK  status: ('A' for Active; 'I' for Inactive)
REMARK    1  A    between atoms: C3_3  and  O1_9 
ROOT
ATOM      1  C1  <0> d          -1.219   1.751   0.017  0.00  0.00    -0.043 A 
ATOM      2  C2  <0> d          -0.013   1.076   0.008  0.00  0.00    -0.046 A 
ATOM      3  C3  <0> d           1.178   1.786   0.000  0.00  0.00     0.087 A 
ATOM      4  C4  <0> d           1.158   3.174   0.008  0.00  0.00     0.070 A 
ATOM      5  C5  <0> d          -0.050   3.846   0.023  0.00  0.00    -0.022 A 
ATOM      6  C6  <0> d          -1.238   3.135   0.030  0.00  0.00     0.118 A 
ATOM      7  F1  <0> d          -2.418   3.793   0.045  0.00  0.00    -0.206 F 
ATOM      8 Cl1  <0> d           2.648   4.065  -0.002  0.00  0.00    -0.081 Cl
ATOM      9  H1  <0> d          -2.146   1.198   0.018  0.00  0.00     0.088 H 
ATOM     10  H2  <0> d           0.002  -0.004   0.002  0.00  0.00     0.087 H 
ATOM     11  H3  <0> d          -0.067   4.926   0.029  0.00  0.00     0.090 H 
ENDROOT
BRANCH   3  12
ATOM     12  O1  <0> d           2.365   1.123  -0.015  0.00  0.00    -0.359 OA
ATOM     13  H4  <0> d           2.700   0.936  -0.903  0.00  0.00     0.217 HD
ENDBRANCH   3  12
TORSDOF 1
