REMARK  0 active torsions:
REMARK  status: ('A' for Active; 'I' for Inactive)
ROOT
ATOM      1  C1  <0> d          -0.016   1.362   0.009  0.00  0.00    -0.038 A 
ATOM      2  C2  <0> d           0.002  -0.004   0.002  0.00  0.00     0.004 A 
ATOM      3  N1  <0> d          -1.116  -0.710   0.009  0.00  0.00    -0.271 NA
ATOM      4  C3  <0> d          -2.307  -0.144   0.023  0.00  0.00     0.030 A 
ATOM      5  C4  <0> d          -2.422   1.237   0.031  0.00  0.00     0.077 A 
ATOM      6  C5  <0> d          -1.252   2.020   0.031  0.00  0.00     0.062 A 
ATOM      7  N2  <0> d          -1.642   3.315   0.043  0.00  0.00    -0.350 N 
ATOM      8  C6  <0> d          -2.943   3.380   0.062  0.00  0.00     0.041 A 
ATOM      9  N3  <0> d          -3.474   2.129   0.045  0.00  0.00    -0.349 N 
ATOM     10  H1  <0> d           0.906   1.924   0.004  0.00  0.00     0.089 H 
ATOM     11  H2  <0> d           0.951  -0.519  -0.010  0.00  0.00     0.114 H 
ATOM     12  H3  <0> d          -3.195  -0.759   0.028  0.00  0.00     0.118 H 
ATOM     13  H4  <0> d          -3.516   4.295   0.076  0.00  0.00     0.140 H 
ATOM     14  H5  <0> d          -4.418   1.905   0.053  0.00  0.00     0.166 HD
ATOM     15  H6  <0> d          -1.044   4.079   0.039  0.00  0.00     0.166 HD
ENDROOT
TORSDOF 0
