REMARK  2 active torsions:
REMARK  status: ('A' for Active; 'I' for Inactive)
REMARK    1  A    between atoms: C4_5  and  C6_8 
REMARK    2  A    between atoms: C6_8  and  O1_9 
ROOT
ATOM      1  C1  <0> d          -1.117  -2.109   0.002  0.00  0.00    -0.044 A 
ATOM      2  C2  <0> d           0.121  -2.722  -0.014  0.00  0.00     0.003 A 
ATOM      3  N1  <0> d           1.228  -2.006  -0.021  0.00  0.00    -0.272 NA
ATOM      4  C3  <0> d           1.202  -0.687  -0.013  0.00  0.00     0.011 A 
ATOM      5  C4  <0> d           0.002  -0.004   0.002  0.00  0.00     0.004 A 
ATOM      6  C5  <0> d          -1.185  -0.723   0.015  0.00  0.00     0.045 A 
ATOM      7 Cl1  <0> d          -2.718   0.091   0.042  0.00  0.00    -0.084 Cl
ATOM      8  H1  <0> d          -2.021  -2.701   0.007  0.00  0.00     0.088 H 
ATOM      9  H2  <0> d           0.183  -3.800  -0.020  0.00  0.00     0.114 H 
ATOM     10  H3  <0> d           2.131  -0.135  -0.019  0.00  0.00     0.115 H 
ENDROOT
BRANCH   5  11
ATOM     11  C6  <0> d          -0.018   1.503   0.010  0.00  0.00     0.043 C 
ATOM     12  H4  <0> d          -0.545   1.864  -0.873  0.00  0.00     0.081 H 
ATOM     13  H5  <0> d          -0.529   1.854   0.907  0.00  0.00     0.081 H 
BRANCH  11  14
ATOM     14  O1  <0> d           1.322   1.997   0.000  0.00  0.00    -0.396 OA
ATOM     15  H6  <0> d           1.385   2.962   0.005  0.00  0.00     0.209 HD
ENDBRANCH  11  14
ENDBRANCH   5  11
TORSDOF 2
