REMARK  1 active torsions:
REMARK  status: ('A' for Active; 'I' for Inactive)
REMARK    1  A    between atoms: C2_2  and  C3_3 
ROOT
ATOM      1  C1  <0> d           0.018  -1.178  -0.004  0.00  0.00    -0.149 C 
ATOM      2  C2  <0> d           0.002  -0.004   0.002  0.00  0.00    -0.075 C 
ATOM      3  H1  <0> d           0.032  -2.228  -0.010  0.00  0.00     0.166 H 
ENDROOT
BRANCH   2   4
ATOM      4  C3  <0> d          -0.017   1.428   0.010  0.00  0.00     0.058 A 
ATOM      5  C8  <0> d           1.181   2.145   0.002  0.00  0.00     0.176 A 
ATOM      6  C7  <0> d           1.155   3.529   0.005  0.00  0.00     0.194 A 
ATOM      7  F1  <0> d           2.363   1.490  -0.013  0.00  0.00    -0.201 F 
ATOM      8  C6  <0> d          -0.058   4.200   0.026  0.00  0.00     0.158 A 
ATOM      9  F2  <0> d           2.312   4.226  -0.008  0.00  0.00    -0.200 F 
ATOM     10  C5  <0> d          -1.248   3.491   0.039  0.00  0.00    -0.041 A 
ATOM     11  F3  <0> d          -0.080   5.551   0.033  0.00  0.00    -0.203 F 
ATOM     12  C4  <0> d          -1.234   2.112   0.031  0.00  0.00    -0.059 A 
ATOM     13  H3  <0> d          -2.190   4.019   0.055  0.00  0.00     0.088 H 
ATOM     14  H2  <0> d          -2.163   1.561   0.041  0.00  0.00     0.086 H 
ENDBRANCH   2   4
TORSDOF 1
