REMARK  2 active torsions:
REMARK  status: ('A' for Active; 'I' for Inactive)
REMARK    1  A    between atoms: C4_5  and  C6_7 
REMARK    2  A    between atoms: C6_7  and  C7_8 
ROOT
ATOM      1  C6  <0> d           1.834  -1.806  -0.026  0.00  0.00     0.015 C 
ATOM      2  H6  <0> d           2.755  -1.860   0.555  0.00  0.00     0.051 H 
ATOM      3  H7  <0> d           1.089  -2.470   0.411  0.00  0.00     0.051 H 
ENDROOT
BRANCH   1   4
ATOM      4  C4  <0> d           2.111  -2.226  -1.446  0.00  0.00     0.039 A 
ATOM      5  N1  <0> d           1.152  -2.145  -2.348  0.00  0.00    -0.265 NA
ATOM      6  C3  <0> d           1.349  -2.497  -3.604  0.00  0.00     0.002 A 
ATOM      7  C2  <0> d           2.576  -2.978  -4.019  0.00  0.00    -0.066 A 
ATOM      8  H4  <0> d           0.541  -2.413  -4.315  0.00  0.00     0.114 H 
ATOM      9  C1  <0> d           3.608  -3.082  -3.098  0.00  0.00    -0.080 A 
ATOM     10  H3  <0> d           2.730  -3.268  -5.047  0.00  0.00     0.085 H 
ATOM     11  C5  <0> d           3.364  -2.697  -1.788  0.00  0.00    -0.059 A 
ATOM     12  H2  <0> d           4.578  -3.454  -3.393  0.00  0.00     0.083 H 
ATOM     13  H5  <0> d           4.144  -2.765  -1.044  0.00  0.00     0.086 H 
ENDBRANCH   1   4
BRANCH   1  14
ATOM     14  C7  <0> d           1.315  -0.391  -0.013  0.00  0.00     0.033 A 
ATOM     15  N3  <0> d           0.002  -0.004   0.002  0.00  0.00    -0.353 N 
ATOM     16  C9  <0> d          -0.016   1.346   0.009  0.00  0.00     0.064 A 
ATOM     17  H1  <0> d          -0.795  -0.608   0.006  0.00  0.00     0.166 HD
ATOM     18  N2  <0> d           1.214   1.781   0.000  0.00  0.00    -0.254 NA
ATOM     19  H9  <0> d          -0.902   1.964   0.017  0.00  0.00     0.143 H 
ATOM     20  C8  <0> d           2.053   0.735  -0.014  0.00  0.00     0.025 A 
ATOM     21  H8  <0> d           3.132   0.787  -0.024  0.00  0.00     0.117 H 
ENDBRANCH   1  14
TORSDOF 2
