REMARK  0 active torsions:
REMARK  status: ('A' for Active; 'I' for Inactive)
ROOT
ATOM      1  C1  <0> d          -0.103  -0.300  -1.548  0.00  0.00    -0.038 C 
ATOM      2  C2  <0> d           1.194   0.400  -2.046  0.00  0.00    -0.038 C 
ATOM      3  C3  <0> d           2.006   0.684  -0.767  0.00  0.00     0.052 C 
ATOM      4  H1  <0> d           3.088   0.645  -0.896  0.00  0.00     0.084 H 
ATOM      5  C4  <0> d           1.504   1.913  -0.002  0.00  0.00     0.063 C 
ATOM      6  H2  <0> d           1.957   2.019   0.984  0.00  0.00     0.060 H 
ATOM      7  C5  <0> d          -0.018   1.473   0.010  0.00  0.00     0.007 C 
ATOM      8  H3  <0> d          -0.236   1.631  -1.046  0.00  0.00     0.048 H 
ATOM      9  C6  <0> d           0.002  -0.004   0.002  0.00  0.00     0.045 C 
ATOM     10  H4  <0> d          -0.695  -0.508   0.671  0.00  0.00     0.084 H 
ATOM     11  O1  <0> d           1.439  -0.344   0.141  0.00  0.00    -0.379 OA
ATOM     12  C7  <0> d          -0.649   2.688   0.517  0.00  0.00     0.035 C 
ATOM     13  O2  <0> d           0.084   3.720  -0.270  0.00  0.00    -0.321 OA
ATOM     14  C8  <0> d           1.279   3.220  -0.711  0.00  0.00     0.266 C 
ATOM     15  O3  <0> d           2.016   3.732  -1.520  0.00  0.00    -0.265 OA
ATOM     16  H5  <0> d          -0.077  -1.371  -1.749  0.00  0.00     0.036 H 
ATOM     17  H6  <0> d          -0.992   0.160  -1.980  0.00  0.00     0.036 H 
ATOM     18  H7  <0> d           0.951   1.333  -2.555  0.00  0.00     0.036 H 
ATOM     19  H8  <0> d           1.752  -0.259  -2.711  0.00  0.00     0.036 H 
ATOM     20  H9  <0> d          -1.715   2.703   0.290  0.00  0.00     0.076 H 
ATOM     21  H10 <0> d          -0.473   2.809   1.586  0.00  0.00     0.076 H 
ENDROOT
TORSDOF 0
