REMARK  3 active torsions:
REMARK  status: ('A' for Active; 'I' for Inactive)
REMARK    1  A    between atoms: C1_1  and  N1_2 
REMARK    2  A    between atoms: C4_5  and  C5_7 
REMARK    3  A    between atoms: C5_7  and  C6_8 
ROOT
ATOM      1  N1  <0> d           0.002  -0.004   0.002  0.00  0.00    -0.285 N 
ATOM      2  C2  <0> d           0.008  -0.792  -1.094  0.00  0.00    -0.000 A 
ATOM      3  C3  <0> d           0.027  -2.079  -0.676  0.00  0.00    -0.041 A 
ATOM      4  C4  <0> d           0.034  -2.078   0.723  0.00  0.00     0.066 A 
ATOM      5  N2  <0> d           0.025  -0.834   1.130  0.00  0.00    -0.177 NA
ATOM      6  H4  <0> d          -0.002  -0.456  -2.120  0.00  0.00     0.114 H 
ATOM      7  H5  <0> d           0.036  -2.953  -1.310  0.00  0.00     0.088 H 
ENDROOT
BRANCH   4   8
ATOM      8  C5  <0> d           0.054  -3.297   1.607  0.00  0.00     0.057 C 
ATOM      9  H6  <0> d          -0.874  -3.349   2.177  0.00  0.00     0.058 H 
ATOM     10  H7  <0> d           0.153  -4.191   0.992  0.00  0.00     0.058 H 
BRANCH   8  11
ATOM     11  C6  <0> d           1.221  -3.209   2.557  0.00  0.00     0.178 C 
ATOM     12  O1  <0> d           1.967  -2.246   2.519  0.00  0.00    -0.648 OA
ATOM     13  O2  <0> d           1.419  -4.102   3.363  0.00  0.00    -0.648 OA
ENDBRANCH   8  11
ENDBRANCH   4   8
BRANCH   1  14
ATOM     14  C1  <0> d          -0.018   1.461   0.010  0.00  0.00     0.002 C 
ATOM     15  H1  <0> d           1.005   1.838   0.002  0.00  0.00     0.059 H 
ATOM     16  H2  <0> d          -0.545   1.822  -0.873  0.00  0.00     0.059 H 
ATOM     17  H3  <0> d          -0.528   1.812   0.907  0.00  0.00     0.059 H 
ENDBRANCH   1  14
TORSDOF 3
