REMARK  2 active torsions:
REMARK  status: ('A' for Active; 'I' for Inactive)
REMARK    1  A    between atoms: C1_1  and  O1_2 
REMARK    2  A    between atoms: O1_2  and  C2_3 
ROOT
ATOM      1  C2  <0> d          -0.787   2.892   1.346  0.00  0.00     0.068 A 
ATOM      2  C3  <0> d          -0.258   3.751   0.394  0.00  0.00    -0.050 A 
ATOM      3  C4  <0> d          -0.367   5.116   0.562  0.00  0.00    -0.074 A 
ATOM      4  C5  <0> d          -1.005   5.632   1.682  0.00  0.00    -0.051 A 
ATOM      5  C6  <0> d          -1.531   4.781   2.629  0.00  0.00    -0.049 A 
ATOM      6  C7  <0> d          -1.429   3.408   2.461  0.00  0.00    -0.044 A 
ATOM      7  C8  <0> d          -2.025   5.919   3.483  0.00  0.00    -0.037 A 
ATOM      8  C9  <0> d          -1.443   6.860   2.436  0.00  0.00    -0.037 A 
ATOM      9  H4  <0> d           0.238   3.351  -0.478  0.00  0.00     0.087 H 
ATOM     10  H5  <0> d           0.044   5.784  -0.180  0.00  0.00     0.084 H 
ATOM     11  H6  <0> d          -1.845   2.741   3.201  0.00  0.00     0.088 H 
ATOM     12  H7  <0> d          -3.111   5.969   3.558  0.00  0.00     0.040 H 
ATOM     13  H8  <0> d          -1.530   5.984   4.452  0.00  0.00     0.040 H 
ATOM     14  H9  <0> d          -0.614   7.464   2.805  0.00  0.00     0.040 H 
ATOM     15  H10 <0> d          -2.196   7.448   1.912  0.00  0.00     0.040 H 
ENDROOT
BRANCH   1  16
ATOM     16  O1  <0> d          -0.682   1.547   1.184  0.00  0.00    -0.356 OA
BRANCH  16  17
ATOM     17  C1  <0> d          -0.013   1.086   0.008  0.00  0.00     0.010 C 
ATOM     18  H1  <0> d           0.002  -0.004   0.002  0.00  0.00     0.066 H 
ATOM     19  H2  <0> d           1.010   1.463   0.000  0.00  0.00     0.066 H 
ATOM     20  H3  <0> d          -0.540   1.447  -0.875  0.00  0.00     0.066 H 
ENDBRANCH  16  17
ENDBRANCH   1  16
TORSDOF 2
