REMARK  2 active torsions:
REMARK  status: ('A' for Active; 'I' for Inactive)
REMARK    1  A    between atoms: C5_6  and  C6_7 
REMARK    2  A    between atoms: C6_7  and  N2_8 
REMARK       I    between atoms: N2_8  and  C7_9 
REMARK       I    between atoms: C7_9  and  N3_11 
ROOT
ATOM      1  C1  <0> d          -1.223   1.742   0.017  0.00  0.00    -0.058 A 
ATOM      2  C2  <0> d          -0.013   1.076   0.008  0.00  0.00     0.002 A 
ATOM      3  N1  <0> d           1.125   1.743   0.001  0.00  0.00    -0.273 NA
ATOM      4  C3  <0> d           1.155   3.061   0.007  0.00  0.00     0.002 A 
ATOM      5  C4  <0> d          -0.015   3.796   0.022  0.00  0.00    -0.058 A 
ATOM      6  C5  <0> d          -1.231   3.129   0.030  0.00  0.00    -0.038 A 
ATOM      7  H1  <0> d          -2.151   1.190   0.018  0.00  0.00     0.086 H 
ATOM      8  H2  <0> d           0.002  -0.004   0.002  0.00  0.00     0.114 H 
ATOM      9  H3  <0> d           2.107   3.573   0.001  0.00  0.00     0.114 H 
ATOM     10  H4  <0> d           0.016   4.875   0.027  0.00  0.00     0.086 H 
ENDROOT
BRANCH   6  11
ATOM     11  C6  <0> d          -2.530   3.893   0.046  0.00  0.00     0.021 C 
ATOM     12  H5  <0> d          -3.296   3.302   0.569  0.00  0.00     0.071 H 
ATOM     13  H6  <0> d          -2.386   4.851   0.568  0.00  0.00     0.071 H 
BRANCH  11  14
ATOM     14  N2  <0> d          -2.963   4.147  -1.330  0.00  0.00    -0.339 N 
ATOM     15  C7  <0> d          -4.108   4.820  -1.563  0.00  0.00     0.314 C 
ATOM     16  O1  <0> d          -4.780   5.216  -0.631  0.00  0.00    -0.248 OA
ATOM     17  N3  <0> d          -4.506   5.054  -2.829  0.00  0.00    -0.352 N 
ATOM     18  H8  <0> d          -5.440   5.603  -3.019  0.00  0.00     0.160 HD
ATOM     19  H9  <0> d          -3.898   4.695  -3.672  0.00  0.00     0.160 HD
ATOM     20  H7  <0> d          -2.355   3.788  -2.174  0.00  0.00     0.164 HD
ENDBRANCH  11  14
ENDBRANCH   6  11
TORSDOF 2
