REMARK  1 active torsions:
REMARK  status: ('A' for Active; 'I' for Inactive)
REMARK    1  A    between atoms: C2_2  and  C5_9 
ROOT
ATOM      1  C1  <0> d           0.002  -0.004   0.002  0.00  0.00     0.002 A 
ATOM      2  C2  <0> d          -0.017   1.396   0.010  0.00  0.00     0.110 A 
ATOM      3  C3  <0> d           1.217   2.077   0.007  0.00  0.00     0.200 A 
ATOM      4  N1  <0> d           2.338   1.369  -0.002  0.00  0.00    -0.297 N 
ATOM      5  C4  <0> d           2.305   0.046  -0.009  0.00  0.00     0.257 A 
ATOM      6  N2  <0> d           1.165  -0.629  -0.012  0.00  0.00    -0.329 N 
ATOM      7  O1  <0> d           3.472  -0.638  -0.018  0.00  0.00    -0.151 OA
ATOM      8  O2  <0> d           1.256   3.429   0.014  0.00  0.00    -0.171 OA
ATOM      9  H1  <0> d          -0.921  -0.565   0.008  0.00  0.00     0.113 H 
ATOM     10  H2  <0> d           1.186  -1.629  -0.026  0.00  0.00     0.168 HD
ATOM     11  H3  <0> d           3.220   1.841  -0.003  0.00  0.00     0.171 HD
ENDROOT
BRANCH   2  12
ATOM     12  C5  <0> d          -1.290   2.135   0.020  0.00  0.00     0.215 C 
ATOM     13  O3  <0> d          -1.286   3.350   0.026  0.00  0.00    -0.644 OA
ATOM     14  O4  <0> d          -2.459   1.464   0.022  0.00  0.00    -0.644 OA
ENDBRANCH   2  12
TORSDOF 1
