REMARK  5 active torsions:
REMARK  status: ('A' for Active; 'I' for Inactive)
REMARK    1  A    between atoms: C1_1  and  C2_2 
REMARK    2  A    between atoms: C2_2  and  O1_3 
REMARK    3  A    between atoms: O1_3  and  C3_4 
REMARK    4  A    between atoms: C3_4  and  C4_6 
REMARK    5  A    between atoms: C5_7  and  N2_12 
ROOT
ATOM      1  C4  <0> d           1.472  -2.353   2.426  0.00  0.00     0.134 A 
ATOM      2  C5  <0> d           1.665  -3.700   2.704  0.00  0.00     0.060 A 
ATOM      3  C6  <0> d           2.378  -3.770   3.913  0.00  0.00    -0.041 A 
ATOM      4  C7  <0> d           2.602  -2.507   4.340  0.00  0.00    -0.020 A 
ATOM      5  N1  <0> d           2.065  -1.634   3.451  0.00  0.00    -0.359 N 
ATOM      6  H1  <0> d           2.091  -0.667   3.522  0.00  0.00     0.165 HD
ATOM      7  H7  <0> d           2.692  -4.674   4.413  0.00  0.00     0.089 H 
ATOM      8  H8  <0> d           3.127  -2.236   5.244  0.00  0.00     0.111 H 
ENDROOT
BRANCH   1   9
ATOM      9  C3  <0> d           0.801  -1.815   1.305  0.00  0.00     0.312 C 
ATOM     10  O2  <0> d           0.321  -2.559   0.469  0.00  0.00    -0.258 OA
BRANCH   9  11
ATOM     11  O1  <0> d           0.693  -0.477   1.160  0.00  0.00    -0.317 OA
BRANCH  11  12
ATOM     12  C2  <0> d           0.002  -0.004   0.002  0.00  0.00     0.026 C 
ATOM     13  H5  <0> d          -1.020  -0.381   0.010  0.00  0.00     0.074 H 
ATOM     14  H6  <0> d           0.512  -0.356  -0.895  0.00  0.00     0.074 H 
BRANCH  12  15
ATOM     15  C1  <0> d          -0.019   1.526   0.010  0.00  0.00    -0.056 C 
ATOM     16  H2  <0> d           1.004   1.903   0.003  0.00  0.00     0.030 H 
ATOM     17  H3  <0> d          -0.546   1.887  -0.873  0.00  0.00     0.030 H 
ATOM     18  H4  <0> d          -0.529   1.877   0.907  0.00  0.00     0.030 H 
ENDBRANCH  12  15
ENDBRANCH  11  12
ENDBRANCH   9  11
ENDBRANCH   1   9
BRANCH   2  19
ATOM     19  N2  <0> d           1.235  -4.775   1.933  0.00  0.00    -0.397 N 
ATOM     20  H9  <0> d           0.747  -4.616   1.110  0.00  0.00     0.156 HD
ATOM     21  H10 <0> d           1.423  -5.683   2.218  0.00  0.00     0.156 HD
ENDBRANCH   2  19
TORSDOF 5
