REMARK  4 active torsions:
REMARK  status: ('A' for Active; 'I' for Inactive)
REMARK    1  A    between atoms: C1_1  and  C2_2 
REMARK    2  A    between atoms: C2_2  and  C3_3 
REMARK    3  A    between atoms: C2_2  and  C4_4 
REMARK    4  A    between atoms: C2_2  and  O3_7 
ROOT
ATOM      1  C2  <0> d           0.002  -0.004   0.002  0.00  0.00     0.138 C 
ENDROOT
BRANCH   1   2
ATOM      2  C1  <0> d          -0.019   1.526   0.010  0.00  0.00    -0.039 C 
ATOM      3  H1  <0> d           1.004   1.903   0.003  0.00  0.00     0.032 H 
ATOM      4  H2  <0> d          -0.546   1.887  -0.873  0.00  0.00     0.032 H 
ATOM      5  H3  <0> d          -0.529   1.877   0.907  0.00  0.00     0.032 H 
ENDBRANCH   1   2
BRANCH   1   6
ATOM      6  C3  <0> d           0.742  -0.511   1.242  0.00  0.00    -0.039 C 
ATOM      7  H4  <0> d           0.232  -0.159   2.138  0.00  0.00     0.032 H 
ATOM      8  H5  <0> d           0.757  -1.601   1.236  0.00  0.00     0.032 H 
ATOM      9  H6  <0> d           1.765  -0.134   1.234  0.00  0.00     0.032 H 
ENDBRANCH   1   6
BRANCH   1  10
ATOM     10  C4  <0> d          -1.412  -0.526   0.013  0.00  0.00     0.208 C 
ATOM     11  O1  <0> d          -1.810  -1.227  -0.902  0.00  0.00    -0.646 OA
ATOM     12  O2  <0> d          -2.158  -0.246   0.936  0.00  0.00    -0.646 OA
ENDBRANCH   1  10
BRANCH   1  13
ATOM     13  O3  <0> d           0.671  -0.465  -1.174  0.00  0.00    -0.380 OA
ATOM     14  H7  <0> d           1.588  -0.167  -1.247  0.00  0.00     0.211 HD
ENDBRANCH   1  13
TORSDOF 4
