REMARK  3 active torsions:
REMARK  status: ('A' for Active; 'I' for Inactive)
REMARK    1  A    between atoms: C2_2  and  C3_3 
REMARK    2  A    between atoms: C3_3  and  C4_4 
REMARK    3  A    between atoms: C9_9  and  O1_10 
ROOT
ATOM      1  C4  <0> d          -2.170   1.352  -1.144  0.00  0.00    -0.022 A 
ATOM      2  C5  <0> d          -2.163   2.065  -2.328  0.00  0.00    -0.074 A 
ATOM      3  C6  <0> d          -2.931   1.641  -3.396  0.00  0.00    -0.082 A 
ATOM      4  C7  <0> d          -3.716   0.509  -3.280  0.00  0.00    -0.080 A 
ATOM      5  C8  <0> d          -3.731  -0.205  -2.097  0.00  0.00    -0.051 A 
ATOM      6  C9  <0> d          -2.956   0.216  -1.025  0.00  0.00     0.072 A 
ATOM      7  H6  <0> d          -1.554   2.952  -2.419  0.00  0.00     0.084 H 
ATOM      8  H7  <0> d          -2.921   2.198  -4.321  0.00  0.00     0.083 H 
ATOM      9  H8  <0> d          -4.319   0.182  -4.114  0.00  0.00     0.083 H 
ATOM     10  H9  <0> d          -4.344  -1.089  -2.007  0.00  0.00     0.087 H 
ENDROOT
BRANCH   1  11
ATOM     11  C3  <0> d          -1.328   1.812   0.018  0.00  0.00    -0.024 C 
ATOM     12  H4  <0> d          -1.853   1.605   0.951  0.00  0.00     0.046 H 
ATOM     13  H5  <0> d          -1.145   2.883  -0.066  0.00  0.00     0.046 H 
BRANCH  11  14
ATOM     14  C2  <0> d          -0.013   1.076   0.008  0.00  0.00    -0.108 C 
ATOM     15  C1  <0> d           1.113   1.746   0.001  0.00  0.00    -0.124 C 
ATOM     16  H1  <0> d           2.055   1.219  -0.011  0.00  0.00     0.066 H 
ATOM     17  H2  <0> d           1.098   2.826   0.007  0.00  0.00     0.066 H 
ATOM     18  H3  <0> d           0.002  -0.004   0.002  0.00  0.00     0.076 H 
ENDBRANCH  11  14
ENDBRANCH   1  11
BRANCH   6  19
ATOM     19  O1  <0> d          -2.969  -0.484   0.140  0.00  0.00    -0.360 OA
ATOM     20  H10 <0> d          -3.644  -0.192   0.767  0.00  0.00     0.217 HD
ENDBRANCH   6  19
TORSDOF 3
