REMARK  1 active torsions:
REMARK  status: ('A' for Active; 'I' for Inactive)
REMARK    1  A    between atoms: C1_1  and  C2_2 
ROOT
ATOM      1  C2  <0> d           0.002  -0.004   0.002  0.00  0.00    -0.084 C 
ATOM      2  C3  <0> d           0.005  -0.619  -1.141  0.00  0.00    -0.098 C 
ATOM      3  C4  <0> d           0.025  -2.113  -1.261  0.00  0.00    -0.035 C 
ATOM      4  C5  <0> d          -0.427  -2.765   0.011  0.00  0.00    -0.103 C 
ATOM      5  C6  <0> d          -0.430  -2.150   1.155  0.00  0.00    -0.102 C 
ATOM      6  C7  <0> d           0.024  -0.728   1.314  0.00  0.00    -0.030 C 
ATOM      7  H4  <0> d          -0.008  -0.028  -2.046  0.00  0.00     0.077 H 
ATOM      8  H5  <0> d          -0.637  -2.416  -2.072  0.00  0.00     0.044 H 
ATOM      9  H6  <0> d           1.040  -2.440  -1.488  0.00  0.00     0.044 H 
ATOM     10  H7  <0> d          -0.765  -3.790  -0.025  0.00  0.00     0.076 H 
ATOM     11  H8  <0> d          -0.770  -2.686   2.029  0.00  0.00     0.076 H 
ATOM     12  H9  <0> d           1.039  -0.716   1.712  0.00  0.00     0.045 H 
ATOM     13  H10 <0> d          -0.638  -0.220   2.014  0.00  0.00     0.045 H 
ENDROOT
BRANCH   1  14
ATOM     14  C1  <0> d          -0.018   1.503   0.010  0.00  0.00    -0.054 C 
ATOM     15  H1  <0> d           1.004   1.880   0.003  0.00  0.00     0.033 H 
ATOM     16  H2  <0> d          -0.545   1.864  -0.873  0.00  0.00     0.033 H 
ATOM     17  H3  <0> d          -0.529   1.854   0.907  0.00  0.00     0.033 H 
ENDBRANCH   1  14
TORSDOF 1
