REMARK  3 active torsions:
REMARK  status: ('A' for Active; 'I' for Inactive)
REMARK    1  A    between atoms: C1_1  and  N5_10 
REMARK    2  A    between atoms: C2_2  and  N4_9 
REMARK    3  A    between atoms: C3_4  and  N3_8 
ROOT
ATOM      1  C1  <0> d          -0.017   1.398   0.010  0.00  0.00     0.141 A 
ATOM      2  C2  <0> d           1.193   2.080   0.002  0.00  0.00     0.172 A 
ATOM      3  N1  <0> d           2.342   1.393  -0.013  0.00  0.00    -0.045 NA
ATOM      4  C3  <0> d           2.350   0.078  -0.020  0.00  0.00     0.703 A 
ATOM      5  N2  <0> d           1.193  -0.639  -0.013  0.00  0.00    -0.153 N 
ATOM      6  C4  <0> d           0.002  -0.004   0.002  0.00  0.00     0.289 A 
ATOM      7  O1  <0> d          -1.041  -0.640   0.009  0.00  0.00    -0.265 OA
ATOM      8  H7  <0> d           1.224  -1.608  -0.019  0.00  0.00     0.187 HD
ENDROOT
BRANCH   1   9
ATOM      9  N5  <0> d          -1.241   2.101   0.031  0.00  0.00    -0.392 N 
ATOM     10  H5  <0> d          -2.080   1.615   0.040  0.00  0.00     0.156 HD
ATOM     11  H6  <0> d          -1.242   3.071   0.036  0.00  0.00     0.156 HD
ENDBRANCH   1   9
BRANCH   2  12
ATOM     12  N4  <0> d           1.210   3.465   0.009  0.00  0.00    -0.381 N 
ATOM     13  H3  <0> d           0.377   3.960   0.019  0.00  0.00     0.157 HD
ATOM     14  H4  <0> d           2.057   3.939   0.003  0.00  0.00     0.157 HD
ENDBRANCH   2  12
BRANCH   4  15
ATOM     15  N3  <0> d           3.550  -0.586  -0.035  0.00  0.00    -0.233 N 
ATOM     16  H1  <0> d           4.381  -0.085  -0.040  0.00  0.00     0.174 HD
ATOM     17  H2  <0> d           3.568  -1.556  -0.040  0.00  0.00     0.174 HD
ENDBRANCH   4  15
TORSDOF 3
