REMARK  1 active torsions:
REMARK  status: ('A' for Active; 'I' for Inactive)
REMARK    1  A    between atoms: C1_1  and  C2_2 
ROOT
ATOM      1  C2  <0> d          -0.016   1.328   0.009  0.00  0.00     0.045 A 
ATOM      2  C3  <0> d           1.312   1.737  -0.001  0.00  0.00     0.074 A 
ATOM      3  C4  <0> d           2.028   3.007  -0.001  0.00  0.00     0.186 A 
ATOM      4  O1  <0> d           1.419   4.070   0.011  0.00  0.00    -0.287 OA
ATOM      5  C5  <0> d           3.428   2.983  -0.013  0.00  0.00    -0.034 A 
ATOM      6  C6  <0> d           4.100   1.779  -0.026  0.00  0.00    -0.076 A 
ATOM      7  C7  <0> d           3.429   0.569  -0.027  0.00  0.00    -0.047 A 
ATOM      8  C8  <0> d           2.048   0.523  -0.015  0.00  0.00     0.115 A 
ATOM      9  O2  <0> d           1.127  -0.454  -0.011  0.00  0.00    -0.237 OA
ATOM     10  N1  <0> d           0.002  -0.004   0.002  0.00  0.00    -0.264 N 
ATOM     11  H1  <0> d          -0.797  -0.553   0.007  0.00  0.00     0.194 HD
ATOM     12  H5  <0> d           3.983   3.910  -0.012  0.00  0.00     0.089 H 
ATOM     13  H6  <0> d           5.180   1.780  -0.035  0.00  0.00     0.083 H 
ATOM     14  H7  <0> d           3.993  -0.352  -0.037  0.00  0.00     0.087 H 
ENDROOT
BRANCH   1  15
ATOM     15  C1  <0> d          -1.234   2.215   0.020  0.00  0.00    -0.035 C 
ATOM     16  H2  <0> d          -1.523   2.424   1.050  0.00  0.00     0.035 H 
ATOM     17  H3  <0> d          -1.007   3.151  -0.490  0.00  0.00     0.035 H 
ATOM     18  H4  <0> d          -2.054   1.712  -0.492  0.00  0.00     0.035 H 
ENDBRANCH   1  15
TORSDOF 1
