REMARK  1 active torsions:
REMARK  status: ('A' for Active; 'I' for Inactive)
REMARK    1  A    between atoms: C10_12  and  O1_14 
ROOT
ATOM      1  C1  <0> d           0.680   4.079   1.267  0.00  0.00    -0.065 C 
ATOM      2  C2  <0> d           1.420   3.572   2.506  0.00  0.00    -0.065 C 
ATOM      3  C3  <0> d           1.441   2.042   2.498  0.00  0.00    -0.059 C 
ATOM      4  C4  <0> d           2.157   1.548   1.239  0.00  0.00    -0.026 C 
ATOM      5  H1  <0> d           3.179   1.926   1.231  0.00  0.00     0.044 H 
ATOM      6  C5  <0> d           1.417   2.055  -0.000  0.00  0.00    -0.048 C 
ATOM      7  H2  <0> d           1.927   1.704  -0.897  0.00  0.00     0.040 H 
ATOM      8  C6  <0> d           1.396   3.585   0.008  0.00  0.00    -0.061 C 
ATOM      9  C7  <0> d          -0.019   1.526   0.010  0.00  0.00    -0.061 C 
ATOM     10  C8  <0> d           0.002  -0.004   0.002  0.00  0.00    -0.062 C 
ATOM     11  C9  <0> d           0.742  -0.511   1.242  0.00  0.00    -0.041 C 
ATOM     12  C10 <0> d           2.178   0.019   1.231  0.00  0.00     0.039 C 
ATOM     13  H3  <0> d           2.688  -0.333   0.334  0.00  0.00     0.083 H 
ATOM     14  H4  <0> d           0.665   5.168   1.273  0.00  0.00     0.033 H 
ATOM     15  H5  <0> d          -0.343   3.701   1.274  0.00  0.00     0.033 H 
ATOM     16  H6  <0> d           2.442   3.949   2.499  0.00  0.00     0.033 H 
ATOM     17  H7  <0> d           0.910   3.923   3.403  0.00  0.00     0.033 H 
ATOM     18  H8  <0> d           0.418   1.665   2.506  0.00  0.00     0.033 H 
ATOM     19  H9  <0> d           1.968   1.681   3.381  0.00  0.00     0.033 H 
ATOM     20  H10 <0> d           2.419   3.962   0.000  0.00  0.00     0.033 H 
ATOM     21  H11 <0> d           0.869   3.946  -0.875  0.00  0.00     0.033 H 
ATOM     22  H12 <0> d          -0.546   1.887  -0.873  0.00  0.00     0.033 H 
ATOM     23  H13 <0> d          -0.529   1.877   0.907  0.00  0.00     0.033 H 
ATOM     24  H14 <0> d          -1.020  -0.381   0.010  0.00  0.00     0.033 H 
ATOM     25  H15 <0> d           0.512  -0.356  -0.895  0.00  0.00     0.033 H 
ATOM     26  H16 <0> d           0.232  -0.159   2.138  0.00  0.00     0.036 H 
ATOM     27  H17 <0> d           0.757  -1.601   1.236  0.00  0.00     0.036 H 
ENDROOT
BRANCH  12  28
ATOM     28  O1  <0> d           2.869  -0.455   2.388  0.00  0.00    -0.395 OA
ATOM     29  H18 <0> d           2.921  -1.418   2.449  0.00  0.00     0.210 HD
ENDBRANCH  12  28
TORSDOF 1
