REMARK  4 active torsions:
REMARK  status: ('A' for Active; 'I' for Inactive)
REMARK    1  A    between atoms: C1_1  and  C2_2 
REMARK    2  A    between atoms: C2_2  and  C3_3 
REMARK    3  A    between atoms: C6_7  and  C8_9 
REMARK    4  A    between atoms: C6_7  and  O3_12 
ROOT
ATOM      1  C3  <0> d           0.718  -0.497  -1.257  0.00  0.00    -0.051 C 
ATOM      2  H1  <0> d           0.264  -0.064  -2.148  0.00  0.00     0.040 H 
ATOM      3  C4  <0> d           2.220  -0.152  -1.194  0.00  0.00    -0.058 C 
ATOM      4  C5  <0> d           2.971  -1.343  -1.815  0.00  0.00    -0.026 C 
ATOM      5  C6  <0> d           1.899  -2.370  -2.234  0.00  0.00     0.146 C 
ATOM      6  C7  <0> d           0.683  -2.044  -1.329  0.00  0.00    -0.023 C 
ATOM      7  H7  <0> d           2.420   0.754  -1.765  0.00  0.00     0.033 H 
ATOM      8  H8  <0> d           2.529  -0.016  -0.157  0.00  0.00     0.033 H 
ATOM      9  H9  <0> d           3.535  -1.014  -2.688  0.00  0.00     0.038 H 
ATOM     10  H10 <0> d           3.644  -1.784  -1.080  0.00  0.00     0.038 H 
ATOM     11  H11 <0> d           0.812  -2.480  -0.339  0.00  0.00     0.038 H 
ATOM     12  H12 <0> d          -0.244  -2.389  -1.786  0.00  0.00     0.038 H 
ENDROOT
BRANCH   1  13
ATOM     13  C2  <0> d           0.002  -0.004   0.002  0.00  0.00    -0.065 C 
ATOM     14  H5  <0> d           0.529  -0.365   0.885  0.00  0.00     0.033 H 
ATOM     15  H6  <0> d          -1.020  -0.381   0.010  0.00  0.00     0.033 H 
BRANCH  13  16
ATOM     16  C1  <0> d          -0.019   1.526   0.010  0.00  0.00    -0.076 C 
ATOM     17  H2  <0> d           1.004   1.903   0.003  0.00  0.00     0.027 H 
ATOM     18  H3  <0> d          -0.546   1.887  -0.873  0.00  0.00     0.027 H 
ATOM     19  H4  <0> d          -0.529   1.877   0.907  0.00  0.00     0.027 H 
ENDBRANCH  13  16
ENDBRANCH   1  13
BRANCH   5  20
ATOM     20  C8  <0> d           2.386  -3.774  -1.980  0.00  0.00     0.209 C 
ATOM     21  O1  <0> d           2.707  -4.113  -0.854  0.00  0.00    -0.646 OA
ATOM     22  O2  <0> d           2.459  -4.570  -2.900  0.00  0.00    -0.646 OA
ENDBRANCH   5  20
BRANCH   5  23
ATOM     23  O3  <0> d           1.555  -2.200  -3.610  0.00  0.00    -0.379 OA
ATOM     24  H13 <0> d           2.293  -2.335  -4.220  0.00  0.00     0.211 HD
ENDBRANCH   5  23
TORSDOF 4
