REMARK  2 active torsions:
REMARK  status: ('A' for Active; 'I' for Inactive)
REMARK    1  A    between atoms: C1_1  and  C2_2 
REMARK    2  A    between atoms: C6_7  and  O1_9 
ROOT
ATOM      1  C2  <0> d          -1.429  -0.627   0.197  0.00  0.00     0.000 C 
ATOM      2  C3  <0> d          -1.814  -0.019   1.583  0.00  0.00    -0.052 C 
ATOM      3  C4  <0> d          -0.472  -0.005   2.363  0.00  0.00    -0.055 C 
ATOM      4  C5  <0> d           0.551  -0.607   1.347  0.00  0.00    -0.012 C 
ATOM      5  H1  <0> d           1.608  -0.448   1.558  0.00  0.00     0.050 H 
ATOM      6  C6  <0> d           0.002  -0.004   0.002  0.00  0.00     0.052 C 
ATOM      7  H2  <0> d           0.515  -0.402  -0.874  0.00  0.00     0.085 H 
ATOM      8  C7  <0> d           0.100  -2.063   1.183  0.00  0.00    -0.099 C 
ATOM      9  C8  <0> d          -1.040  -2.075   0.522  0.00  0.00    -0.096 C 
ATOM     10  H6  <0> d          -2.199   0.994   1.463  0.00  0.00     0.034 H 
ATOM     11  H7  <0> d          -2.548  -0.648   2.087  0.00  0.00     0.034 H 
ATOM     12  H8  <0> d          -0.539  -0.629   3.254  0.00  0.00     0.034 H 
ATOM     13  H9  <0> d          -0.193   1.015   2.628  0.00  0.00     0.034 H 
ATOM     14  H11 <0> d           0.628  -2.932   1.548  0.00  0.00     0.077 H 
ATOM     15  H12 <0> d          -1.605  -2.955   0.254  0.00  0.00     0.077 H 
ENDROOT
BRANCH   1  16
ATOM     16  C1  <0> d          -2.425  -0.430  -0.948  0.00  0.00    -0.063 C 
ATOM     17  H3  <0> d          -2.026  -0.881  -1.857  0.00  0.00     0.029 H 
ATOM     18  H4  <0> d          -3.371  -0.905  -0.691  0.00  0.00     0.029 H 
ATOM     19  H5  <0> d          -2.585   0.635  -1.111  0.00  0.00     0.029 H 
ENDBRANCH   1  16
BRANCH   6  20
ATOM     20  O1  <0> d          -0.017   1.425   0.010  0.00  0.00    -0.394 OA
ATOM     21  H10 <0> d           0.861   1.830   0.004  0.00  0.00     0.210 HD
ENDBRANCH   6  20
TORSDOF 2
