REMARK  2 active torsions:
REMARK  status: ('A' for Active; 'I' for Inactive)
REMARK    1  A    between atoms: C1_1  and  C2_2 
REMARK    2  A    between atoms: C5_5  and  C9_11 
ROOT
ATOM      1  C2  <0> d          -1.919   2.457   0.862  0.00  0.00     0.044 C 
ATOM      2  C3  <0> d          -0.727   1.579   1.269  0.00  0.00    -0.047 C 
ATOM      3  C4  <0> d          -0.013   1.086   0.008  0.00  0.00    -0.035 C 
ATOM      4  C5  <0> d          -0.752   1.593  -1.235  0.00  0.00     0.067 C 
ATOM      5  C6  <0> d          -2.188   1.059  -1.210  0.00  0.00    -0.035 C 
ATOM      6  C7  <0> d          -2.897   1.585   0.059  0.00  0.00    -0.047 C 
ATOM      7  O1  <0> d          -0.781   3.054  -1.194  0.00  0.00    -0.310 OA
ATOM      8  C8  <0> d          -1.395   3.530  -0.080  0.00  0.00     0.268 C 
ATOM      9  O2  <0> d          -1.516   4.712   0.144  0.00  0.00    -0.264 OA
ATOM     10  H4  <0> d          -1.084   0.724   1.843  0.00  0.00     0.035 H 
ATOM     11  H5  <0> d          -0.035   2.163   1.875  0.00  0.00     0.035 H 
ATOM     12  H6  <0> d           0.002  -0.004   0.002  0.00  0.00     0.037 H 
ATOM     13  H7  <0> d           1.010   1.462   0.000  0.00  0.00     0.037 H 
ATOM     14  H8  <0> d          -2.722   1.414  -2.092  0.00  0.00     0.037 H 
ATOM     15  H9  <0> d          -2.171  -0.030  -1.212  0.00  0.00     0.037 H 
ATOM     16  H10 <0> d          -3.215   0.738   0.668  0.00  0.00     0.035 H 
ATOM     17  H11 <0> d          -3.767   2.178  -0.222  0.00  0.00     0.035 H 
ENDROOT
BRANCH   1  18
ATOM     18  C1  <0> d          -2.607   3.079   2.079  0.00  0.00    -0.060 C 
ATOM     19  H1  <0> d          -3.446   3.691   1.748  0.00  0.00     0.029 H 
ATOM     20  H2  <0> d          -2.971   2.288   2.735  0.00  0.00     0.029 H 
ATOM     21  H3  <0> d          -1.895   3.701   2.620  0.00  0.00     0.029 H 
ENDBRANCH   1  18
BRANCH   4  22
ATOM     22  C9  <0> d          -0.037   1.116  -2.501  0.00  0.00    -0.047 C 
ATOM     23  H12 <0> d          -0.015   0.027  -2.517  0.00  0.00     0.031 H 
ATOM     24  H13 <0> d          -0.571   1.482  -3.378  0.00  0.00     0.031 H 
ATOM     25  H14 <0> d           0.982   1.501  -2.509  0.00  0.00     0.031 H 
ENDBRANCH   4  22
TORSDOF 2
