REMARK  5 active torsions:
REMARK  status: ('A' for Active; 'I' for Inactive)
REMARK    1  A    between atoms: C1_1  and  C2_2 
REMARK    2  A    between atoms: C4_4  and  C7_8 
REMARK    3  A    between atoms: C5_5  and  C6_7 
REMARK    4  A    between atoms: C7_8  and  O3_10 
REMARK    5  A    between atoms: O3_10  and  C8_11 
ROOT
ATOM      1  C2  <0> d          -0.016   1.338   0.009  0.00  0.00     0.050 A 
ATOM      2  C3  <0> d           1.245   1.795  -0.000  0.00  0.00    -0.036 A 
ATOM      3  C4  <0> d           2.107   0.604  -0.015  0.00  0.00     0.071 A 
ATOM      4  C5  <0> d           1.256  -0.464  -0.012  0.00  0.00     0.065 A 
ATOM      5  O1  <0> d           0.002  -0.004   0.002  0.00  0.00    -0.319 OA
ATOM      6  H4  <0> d           1.563   2.827   0.002  0.00  0.00     0.089 H 
ENDROOT
BRANCH   3   7
ATOM      7  C7  <0> d           3.579   0.569  -0.028  0.00  0.00     0.295 C 
ATOM      8  O2  <0> d           4.162  -0.497  -0.039  0.00  0.00    -0.259 OA
BRANCH   7   9
ATOM      9  O3  <0> d           4.279   1.721  -0.029  0.00  0.00    -0.322 OA
BRANCH   9  10
ATOM     10  C8  <0> d           5.727   1.611  -0.043  0.00  0.00     0.013 C 
ATOM     11  H8  <0> d           6.043   1.076  -0.938  0.00  0.00     0.067 H 
ATOM     12  H9  <0> d           6.167   2.608  -0.042  0.00  0.00     0.067 H 
ATOM     13  H10 <0> d           6.059   1.067   0.842  0.00  0.00     0.067 H 
ENDBRANCH   9  10
ENDBRANCH   7   9
ENDBRANCH   3   7
BRANCH   4  14
ATOM     14  C6  <0> d           1.663  -1.915  -0.024  0.00  0.00    -0.030 C 
ATOM     15  H5  <0> d           0.772  -2.543  -0.018  0.00  0.00     0.036 H 
ATOM     16  H6  <0> d           2.247  -2.122  -0.921  0.00  0.00     0.036 H 
ATOM     17  H7  <0> d           2.265  -2.131   0.859  0.00  0.00     0.036 H 
ENDBRANCH   4  14
BRANCH   1  18
ATOM     18  C1  <0> d          -1.256   2.195   0.020  0.00  0.00    -0.031 C 
ATOM     19  H1  <0> d          -2.139   1.556   0.021  0.00  0.00     0.036 H 
ATOM     20  H2  <0> d          -1.258   2.820   0.913  0.00  0.00     0.036 H 
ATOM     21  H3  <0> d          -1.267   2.829  -0.867  0.00  0.00     0.036 H 
ENDBRANCH   1  18
TORSDOF 5
