REMARK  0 active torsions:
REMARK  status: ('A' for Active; 'I' for Inactive)
ROOT
ATOM      1  C1  <0> d          -0.751   1.992  -1.231  0.00  0.00    -0.021 C 
ATOM      2  C2  <0> d          -0.753   3.539  -1.167  0.00  0.00     0.115 C 
ATOM      3  N1  <0> d          -0.042   3.982   0.040  0.00  0.00     0.088 N 
ATOM      4  C3  <0> d           1.360   3.545   0.018  0.00  0.00     0.115 C 
ATOM      5  C4  <0> d           1.415   2.015  -0.001  0.00  0.00    -0.021 C 
ATOM      6  C5  <0> d          -0.018   1.468   0.010  0.00  0.00     0.054 C 
ATOM      7  C6  <0> d          -0.727   1.979   1.271  0.00  0.00    -0.021 C 
ATOM      8  C7  <0> d          -0.723   3.510   1.254  0.00  0.00     0.115 C 
ATOM      9  C8  <0> d           0.002  -0.004   0.002  0.00  0.00     0.069 C 
ATOM     10  N2  <0> d           0.018  -1.140  -0.004  0.00  0.00    -0.196 NA
ATOM     11  H1  <0> d          -0.230   1.650  -2.137  0.00  0.00     0.038 H 
ATOM     12  H2  <0> d          -1.783   1.611  -1.236  0.00  0.00     0.038 H 
ATOM     13  H3  <0> d          -0.248   3.943  -2.058  0.00  0.00     0.080 H 
ATOM     14  H4  <0> d          -1.790   3.903  -1.137  0.00  0.00     0.080 H 
ATOM     15  H5  <0> d           1.853   3.942  -0.881  0.00  0.00     0.080 H 
ATOM     16  H6  <0> d           1.875   3.921   0.915  0.00  0.00     0.080 H 
ATOM     17  H7  <0> d           1.936   1.678  -0.909  0.00  0.00     0.038 H 
ATOM     18  H8  <0> d           1.957   1.657   0.887  0.00  0.00     0.038 H 
ATOM     19  H9  <0> d          -1.763   1.609   1.284  0.00  0.00     0.038 H 
ATOM     20  H10 <0> d          -0.197   1.615   2.163  0.00  0.00     0.038 H 
ATOM     21  H11 <0> d          -0.194   3.886   2.141  0.00  0.00     0.080 H 
ATOM     22  H12 <0> d          -1.759   3.880   1.261  0.00  0.00     0.080 H 
ENDROOT
TORSDOF 0
