REMARK  5 active torsions:
REMARK  status: ('A' for Active; 'I' for Inactive)
REMARK    1  A    between atoms: C1_1  and  C2_2 
REMARK    2  A    between atoms: C6_6  and  C9_10 
REMARK    3  A    between atoms: C7_7  and  N1_8 
REMARK    4  A    between atoms: N1_8  and  C8_9 
REMARK    5  A    between atoms: C9_10  and  O1_11 
ROOT
ATOM      1  C2  <0> d           3.729   0.954   2.443  0.00  0.00    -0.040 A 
ATOM      2  C3  <0> d           2.873   0.277   3.289  0.00  0.00    -0.075 A 
ATOM      3  C4  <0> d           1.557   0.067   2.920  0.00  0.00    -0.082 A 
ATOM      4  C5  <0> d           1.094   0.534   1.703  0.00  0.00    -0.073 A 
ATOM      5  C6  <0> d           1.945   1.211   0.853  0.00  0.00    -0.013 A 
ATOM      6  C7  <0> d           3.269   1.419   1.218  0.00  0.00     0.022 A 
ATOM      7  H4  <0> d           3.231  -0.088   4.240  0.00  0.00     0.084 H 
ATOM      8  H5  <0> d           0.889  -0.462   3.583  0.00  0.00     0.083 H 
ATOM      9  H6  <0> d           0.066   0.368   1.418  0.00  0.00     0.084 H 
ENDROOT
BRANCH   6  10
ATOM     10  N1  <0> d           4.135   2.099   0.358  0.00  0.00    -0.296 NA
ATOM     11  H7  <0> d           3.649   2.832  -0.137  0.00  0.00     0.127 HD
BRANCH  10  12
ATOM     12  C8  <0> d           4.783   1.171  -0.578  0.00  0.00    -0.031 C 
ATOM     13  H8  <0> d           5.423   0.484  -0.024  0.00  0.00     0.048 H 
ATOM     14  H9  <0> d           4.022   0.606  -1.115  0.00  0.00     0.048 H 
ATOM     15  H10 <0> d           5.386   1.735  -1.290  0.00  0.00     0.048 H 
ENDBRANCH  10  12
ENDBRANCH   6  10
BRANCH   1  16
ATOM     16  C1  <0> d           5.163   1.182   2.847  0.00  0.00    -0.050 C 
ATOM     17  H1  <0> d           5.788   0.392   2.431  0.00  0.00     0.033 H 
ATOM     18  H2  <0> d           5.498   2.147   2.467  0.00  0.00     0.033 H 
ATOM     19  H3  <0> d           5.241   1.173   3.934  0.00  0.00     0.033 H 
ENDBRANCH   1  16
BRANCH   5  20
ATOM     20  C9  <0> d           1.440   1.719  -0.473  0.00  0.00     0.042 C 
ATOM     21  H11 <0> d           2.014   1.263  -1.280  0.00  0.00     0.081 H 
ATOM     22  H12 <0> d           1.554   2.802  -0.515  0.00  0.00     0.081 H 
BRANCH  20  23
ATOM     23  O1  <0> d           0.060   1.379  -0.619  0.00  0.00    -0.396 OA
ATOM     24  H13 <0> d          -0.116   0.428  -0.592  0.00  0.00     0.209 HD
ENDBRANCH  20  23
ENDBRANCH   5  20
TORSDOF 5
