REMARK  3 active torsions:
REMARK  status: ('A' for Active; 'I' for Inactive)
REMARK    1  A    between atoms: C2_2  and  C4_8 
REMARK    2  A    between atoms: C3_6  and  N3_7 
REMARK    3  A    between atoms: C4_8  and  C5_9 
ROOT
ATOM      1  C1  <0> d          -0.766  -3.011  -1.097  0.00  0.00    -0.016 A 
ATOM      2  C2  <0> d          -0.997  -2.253  -0.001  0.00  0.00     0.039 A 
ATOM      3  N1  <0> d          -0.917  -3.055   1.082  0.00  0.00    -0.303 N 
ATOM      4  H1  <0> d          -0.479  -5.297   1.185  0.00  0.00     0.188 HD
ATOM      5  N2  <0> d          -0.627  -4.352   0.640  0.00  0.00    -0.286 N 
ATOM      6  C3  <0> d          -0.534  -4.328  -0.668  0.00  0.00     0.115 A 
ATOM      7  H2  <0> d          -0.759  -2.664  -2.119  0.00  0.00     0.092 H 
ATOM      8  H7  <0> d          -1.035  -2.854   2.157  0.00  0.00     0.186 HD
ENDROOT
BRANCH   2   9
ATOM      9  C4  <0> d          -1.293  -0.775   0.010  0.00  0.00     0.055 C 
ATOM     10  H5  <0> d          -1.881  -0.513  -0.881  0.00  0.00     0.058 H 
ATOM     11  H6  <0> d          -1.864  -0.522   0.915  0.00  0.00     0.058 H 
BRANCH   9  12
ATOM     12  C5  <0> d           0.002  -0.004   0.002  0.00  0.00     0.178 C 
ATOM     13  O1  <0> d           1.056  -0.594  -0.011  0.00  0.00    -0.648 OA
ATOM     14  O2  <0> d          -0.016   1.338   0.009  0.00  0.00    -0.648 OA
ENDBRANCH   9  12
ENDBRANCH   2   9
BRANCH   6  15
ATOM     15  N3  <0> d          -0.253  -5.423  -1.493  0.00  0.00    -0.384 N 
ATOM     16  H3  <0> d          -0.087  -6.417  -1.051  0.00  0.00     0.157 HD
ATOM     17  H4  <0> d          -0.197  -5.290  -2.584  0.00  0.00     0.157 HD
ENDBRANCH   6  15
TORSDOF 3
