REMARK  1 active torsions:
REMARK  status: ('A' for Active; 'I' for Inactive)
REMARK    1  A    between atoms: C1_1  and  C2_2 
ROOT
ATOM      1  C2  <0> d           0.002  -0.004   0.002  0.00  0.00     0.245 A 
ATOM      2  H1  <0> d          -1.017  -0.391  -0.003  0.00  0.00     0.107 H 
ATOM      3  C3  <0> d           0.751  -0.504  -1.208  0.00  0.00     0.255 A 
ATOM      4  O1  <0> d           0.446  -0.289  -2.362  0.00  0.00    -0.271 OA
ATOM      5  N1  <0> d           1.810  -1.226  -0.803  0.00  0.00    -0.322 N 
ATOM      6  C4  <0> d           1.859  -1.271   0.654  0.00  0.00     0.272 A 
ATOM      7  N2  <0> d           0.726  -0.505   1.180  0.00  0.00     0.350 N 
ATOM      8  C5  <0> d           1.790  -2.727   1.150  0.00  0.00    -0.011 C 
ATOM      9  C6  <0> d           3.270  -3.116   1.390  0.00  0.00    -0.061 C 
ATOM     10  C7  <0> d           3.878  -1.812   1.965  0.00  0.00    -0.061 C 
ATOM     11  C8  <0> d           3.184  -0.687   1.169  0.00  0.00    -0.011 C 
ATOM     12  H5  <0> d           2.448  -1.656  -1.394  0.00  0.00     0.165 HD
ATOM     13  H6  <0> d           1.224  -2.787   2.079  0.00  0.00     0.039 H 
ATOM     14  H7  <0> d           1.345  -3.368   0.389  0.00  0.00     0.039 H 
ATOM     15  H8  <0> d           3.344  -3.928   2.113  0.00  0.00     0.033 H 
ATOM     16  H9  <0> d           3.755  -3.388   0.452  0.00  0.00     0.033 H 
ATOM     17  H10 <0> d           3.653  -1.723   3.027  0.00  0.00     0.033 H 
ATOM     18  H11 <0> d           4.955  -1.788   1.799  0.00  0.00     0.033 H 
ATOM     19  H12 <0> d           3.809  -0.382   0.329  0.00  0.00     0.039 H 
ATOM     20  H13 <0> d           2.989   0.165   1.819  0.00  0.00     0.039 H 
ENDROOT
BRANCH   1  21
ATOM     21  C1  <0> d          -0.019   1.526   0.010  0.00  0.00    -0.036 C 
ATOM     22  H2  <0> d           1.004   1.903   0.003  0.00  0.00     0.031 H 
ATOM     23  H3  <0> d          -0.546   1.887  -0.873  0.00  0.00     0.031 H 
ATOM     24  H4  <0> d          -0.529   1.877   0.907  0.00  0.00     0.031 H 
ENDBRANCH   1  21
TORSDOF 1
