REMARK  1 active torsions:
REMARK  status: ('A' for Active; 'I' for Inactive)
REMARK    1  A    between atoms: C1_1  and  C2_2 
ROOT
ATOM      1  C2  <0> d          -0.674   3.242   0.026  0.00  0.00     0.025 A 
ATOM      2  H1  <0> d          -1.004   3.780  -0.863  0.00  0.00     0.074 H 
ATOM      3  C3  <0> d          -1.221   1.802   0.017  0.00  0.00     0.015 A 
ATOM      4  N1  <0> d          -0.011   0.966   0.007  0.00  0.00    -0.341 N 
ATOM      5  C4  <0> d           1.070   1.757   0.001  0.00  0.00     0.316 A 
ATOM      6  O1  <0> d           2.207   1.326  -0.012  0.00  0.00    -0.247 OA
ATOM      7  N2  <0> d           0.785   3.066   0.011  0.00  0.00    -0.337 N 
ATOM      8  H5  <0> d          -1.817   1.622  -0.878  0.00  0.00     0.067 H 
ATOM      9  H6  <0> d          -1.810   1.612   0.915  0.00  0.00     0.067 H 
ATOM     10  H7  <0> d           0.002  -0.004   0.002  0.00  0.00     0.164 HD
ATOM     11  H8  <0> d           1.438   3.783   0.009  0.00  0.00     0.164 HD
ENDROOT
BRANCH   1  12
ATOM     12  C1  <0> d          -1.113   3.981   1.292  0.00  0.00    -0.056 C 
ATOM     13  H2  <0> d          -0.658   4.971   1.311  0.00  0.00     0.030 H 
ATOM     14  H3  <0> d          -2.199   4.080   1.298  0.00  0.00     0.030 H 
ATOM     15  H4  <0> d          -0.795   3.418   2.170  0.00  0.00     0.030 H 
ENDBRANCH   1  12
TORSDOF 1
