REMARK  1 active torsions:
REMARK  status: ('A' for Active; 'I' for Inactive)
REMARK    1  A    between atoms: C2_2  and  C4_7 
ROOT
ATOM      1  C1  <0> d          -0.016   1.338   0.009  0.00  0.00     0.056 A 
ATOM      2  C2  <0> d           1.282   1.753  -0.001  0.00  0.00     0.159 A 
ATOM      3  N1  <0> d           2.059   0.634  -0.014  0.00  0.00    -0.205 NA
ATOM      4  C3  <0> d           1.281  -0.407  -0.012  0.00  0.00     0.245 A 
ATOM      5  O1  <0> d           0.002  -0.004   0.002  0.00  0.00    -0.292 OA
ATOM      6 Cl1  <0> d           1.813  -2.060  -0.027  0.00  0.00    -0.035 Cl
ATOM      7  H1  <0> d          -0.893   1.969   0.025  0.00  0.00     0.127 H 
ENDROOT
BRANCH   2   8
ATOM      8  C4  <0> d           1.754   3.145   0.002  0.00  0.00     0.231 C 
ATOM      9  O2  <0> d           0.947   4.065   0.014  0.00  0.00    -0.643 OA
ATOM     10  O3  <0> d           2.954   3.384  -0.008  0.00  0.00    -0.643 OA
ENDBRANCH   2   8
TORSDOF 1
