REMARK  4 active torsions:
REMARK  status: ('A' for Active; 'I' for Inactive)
REMARK    1  A    between atoms: C1_1  and  C2_2 
REMARK    2  A    between atoms: C4_4  and  O1_14 
REMARK    3  A    between atoms: C8_11  and  C9_12 
REMARK    4  A    between atoms: C8_11  and  C10_13 
ROOT
ATOM      1  C2  <0> d          -0.731   3.186   1.211  0.00  0.00    -0.080 C 
ATOM      2  C3  <0> d          -0.605   3.888   0.108  0.00  0.00    -0.073 C 
ATOM      3  C4  <0> d          -0.659   3.188  -1.248  0.00  0.00     0.056 C 
ATOM      4  H1  <0> d          -1.447   3.641  -1.851  0.00  0.00     0.089 H 
ATOM      5  C5  <0> d          -0.975   1.703  -1.028  0.00  0.00    -0.018 C 
ATOM      6  H2  <0> d          -1.084   1.133  -1.951  0.00  0.00     0.045 H 
ATOM      7  C6  <0> d          -0.013   1.086   0.008  0.00  0.00    -0.051 C 
ATOM      8  C7  <0> d          -0.954   1.691   1.067  0.00  0.00    -0.025 C 
ATOM      9  H3  <0> d          -1.040   1.139   2.003  0.00  0.00     0.048 H 
ATOM     10  C8  <0> d          -2.075   1.455   0.019  0.00  0.00    -0.034 C 
ATOM     11  H7  <0> d          -0.452   4.956   0.158  0.00  0.00     0.081 H 
ATOM     12  H8  <0> d           0.002  -0.004   0.002  0.00  0.00     0.034 H 
ATOM     13  H9  <0> d           0.984   1.526   0.001  0.00  0.00     0.034 H 
ENDROOT
BRANCH  10  14
ATOM     14  C9  <0> d          -3.170   2.524   0.032  0.00  0.00    -0.068 C 
ATOM     15  H10 <0> d          -3.655   2.559  -0.944  0.00  0.00     0.028 H 
ATOM     16  H11 <0> d          -3.908   2.278   0.796  0.00  0.00     0.028 H 
ATOM     17  H12 <0> d          -2.728   3.495   0.253  0.00  0.00     0.028 H 
ENDBRANCH  10  14
BRANCH  10  18
ATOM     18  C10 <0> d          -2.629   0.029   0.010  0.00  0.00    -0.068 C 
ATOM     19  H13 <0> d          -1.823  -0.675   0.217  0.00  0.00     0.028 H 
ATOM     20  H14 <0> d          -3.400  -0.066   0.775  0.00  0.00     0.028 H 
ATOM     21  H15 <0> d          -3.059  -0.188  -0.968  0.00  0.00     0.028 H 
ENDBRANCH  10  18
BRANCH   3  22
ATOM     22  O1  <0> d           0.590   3.313  -1.931  0.00  0.00    -0.391 OA
ATOM     23  H16 <0> d           0.854   4.227  -2.105  0.00  0.00     0.210 HD
ENDBRANCH   3  22
BRANCH   1  24
ATOM     24  C1  <0> d          -0.658   3.839   2.567  0.00  0.00    -0.054 C 
ATOM     25  H4  <0> d           0.376   3.844   2.913  0.00  0.00     0.033 H 
ATOM     26  H5  <0> d          -1.022   4.864   2.496  0.00  0.00     0.033 H 
ATOM     27  H6  <0> d          -1.274   3.283   3.272  0.00  0.00     0.033 H 
ENDBRANCH   1  24
TORSDOF 4
