REMARK  3 active torsions:
REMARK  status: ('A' for Active; 'I' for Inactive)
REMARK    1  A    between atoms: C1_1  and  C2_2 
REMARK    2  A    between atoms: C3_4  and  C5_8 
REMARK    3  A    between atoms: C3_4  and  C6_9 
ROOT
ATOM      1  C2  <0> d           0.002  -0.004   0.002  0.00  0.00    -0.013 A 
ATOM      2  H1  <0> d          -0.874  -0.488   0.432  0.00  0.00     0.045 H 
ATOM      3  C3  <0> d           0.681  -0.695  -1.183  0.00  0.00    -0.006 A 
ATOM      4  C4  <0> d           1.355  -0.693   0.192  0.00  0.00     0.124 A 
ATOM      5 Cl1  <0> d           1.377  -2.245   1.110  0.00  0.00    -0.100 Cl
ATOM      6 Cl2  <0> d           2.802   0.359   0.408  0.00  0.00    -0.100 Cl
ENDROOT
BRANCH   3   7
ATOM      7  C5  <0> d           1.287   0.197  -2.268  0.00  0.00    -0.066 C 
ATOM      8  H5  <0> d           2.054   0.834  -1.828  0.00  0.00     0.028 H 
ATOM      9  H6  <0> d           1.733  -0.426  -3.043  0.00  0.00     0.028 H 
ATOM     10  H7  <0> d           0.505   0.818  -2.706  0.00  0.00     0.028 H 
ENDBRANCH   3   7
BRANCH   3  11
ATOM     11  C6  <0> d           0.077  -2.013  -1.672  0.00  0.00    -0.066 C 
ATOM     12  H8  <0> d          -0.953  -1.846  -1.987  0.00  0.00     0.028 H 
ATOM     13  H9  <0> d           0.659  -2.388  -2.514  0.00  0.00     0.028 H 
ATOM     14  H10 <0> d           0.096  -2.744  -0.863  0.00  0.00     0.028 H 
ENDBRANCH   3  11
BRANCH   1  15
ATOM     15  C1  <0> d          -0.019   1.526   0.010  0.00  0.00    -0.069 C 
ATOM     16  H2  <0> d           1.004   1.903   0.003  0.00  0.00     0.028 H 
ATOM     17  H3  <0> d          -0.546   1.887  -0.873  0.00  0.00     0.028 H 
ATOM     18  H4  <0> d          -0.529   1.877   0.907  0.00  0.00     0.028 H 
ENDBRANCH   1  15
TORSDOF 3
