REMARK  0 active torsions:
REMARK  status: ('A' for Active; 'I' for Inactive)
ROOT
ATOM      1  C1  <0> d          -0.016   1.304   0.009  0.00  0.00     0.067 A 
ATOM      2  N1  <0> d           1.246   1.776  -0.000  0.00  0.00    -0.343 N 
ATOM      3  H1  <0> d           1.514   2.708   0.002  0.00  0.00     0.167 HD
ATOM      4  C2  <0> d           2.086   0.681  -0.014  0.00  0.00     0.148 A 
ATOM      5  C3  <0> d           1.264  -0.439  -0.012  0.00  0.00     0.165 A 
ATOM      6  N2  <0> d           0.002  -0.004   0.002  0.00  0.00    -0.224 NA
ATOM      7  N3  <0> d           1.847  -1.696  -0.025  0.00  0.00    -0.291 N 
ATOM      8  H2  <0> d           1.288  -2.489  -0.024  0.00  0.00     0.172 HD
ATOM      9  C4  <0> d           3.188  -1.819  -0.039  0.00  0.00     0.328 A 
ATOM     10  O1  <0> d           3.681  -2.930  -0.051  0.00  0.00    -0.247 OA
ATOM     11  N4  <0> d           3.995  -0.744  -0.042  0.00  0.00    -0.273 N 
ATOM     12  H3  <0> d           4.957  -0.869  -0.052  0.00  0.00     0.173 HD
ATOM     13  C5  <0> d           3.487   0.506  -0.029  0.00  0.00     0.280 A 
ATOM     14  O2  <0> d           4.228   1.472  -0.031  0.00  0.00    -0.265 OA
ATOM     15  H4  <0> d          -0.907   1.914   0.025  0.00  0.00     0.143 H 
ENDROOT
TORSDOF 0
