REMARK  1 active torsions:
REMARK  status: ('A' for Active; 'I' for Inactive)
REMARK    1  A    between atoms: C3_3  and  N3_9 
ROOT
ATOM      1  C1  <0> d           1.228  -0.646  -0.013  0.00  0.00    -0.064 A 
ATOM      2  C2  <0> d           0.002  -0.004   0.002  0.00  0.00    -0.053 A 
ATOM      3  C3  <0> d          -0.017   1.390   0.010  0.00  0.00     0.065 A 
ATOM      4  C4  <0> d           1.202   2.083   0.002  0.00  0.00     0.162 A 
ATOM      5  N1  <0> d           2.353   1.420  -0.013  0.00  0.00    -0.248 NA
ATOM      6  C5  <0> d           2.392   0.106  -0.020  0.00  0.00     0.004 A 
ATOM      7  C6  <0> d           1.206   3.515   0.009  0.00  0.00     0.122 C 
ATOM      8  N2  <0> d           1.209   4.651   0.015  0.00  0.00    -0.190 NA
ATOM      9  H1  <0> d           1.276  -1.725  -0.020  0.00  0.00     0.085 H 
ATOM     10  H2  <0> d          -0.918  -0.569   0.007  0.00  0.00     0.087 H 
ATOM     11  H3  <0> d           3.348  -0.397  -0.032  0.00  0.00     0.114 H 
ENDROOT
BRANCH   3  12
ATOM     12  N3  <0> d          -1.223   2.080   0.019  0.00  0.00    -0.397 N 
ATOM     13  H4  <0> d          -2.062   1.592   0.021  0.00  0.00     0.156 HD
ATOM     14  H5  <0> d          -1.227   3.050   0.025  0.00  0.00     0.156 HD
ENDBRANCH   3  12
TORSDOF 1
