REMARK  4 active torsions:
REMARK  status: ('A' for Active; 'I' for Inactive)
REMARK    1  A    between atoms: C1_1  and  C2_2 
REMARK    2  A    between atoms: C2_2  and  C3_3 
REMARK    3  A    between atoms: C8_8  and  N1_9 
REMARK    4  A    between atoms: N1_9  and  C9_10 
ROOT
ATOM      1  C3  <0> d          -2.680   1.649   2.587  0.00  0.00    -0.032 A 
ATOM      2  C4  <0> d          -3.996   1.294   2.813  0.00  0.00    -0.075 A 
ATOM      3  C5  <0> d          -4.665   0.496   1.904  0.00  0.00    -0.082 A 
ATOM      4  C6  <0> d          -4.019   0.049   0.765  0.00  0.00    -0.081 A 
ATOM      5  C7  <0> d          -2.705   0.403   0.531  0.00  0.00    -0.057 A 
ATOM      6  C8  <0> d          -2.029   1.202   1.445  0.00  0.00     0.034 A 
ATOM      7  H6  <0> d          -4.503   1.641   3.701  0.00  0.00     0.084 H 
ATOM      8  H7  <0> d          -5.694   0.221   2.083  0.00  0.00     0.083 H 
ATOM      9  H8  <0> d          -4.544  -0.574   0.057  0.00  0.00     0.083 H 
ATOM     10  H9  <0> d          -2.203   0.058  -0.360  0.00  0.00     0.086 H 
ENDROOT
BRANCH   1  11
ATOM     11  C2  <0> d          -1.953   2.520   3.579  0.00  0.00    -0.042 C 
ATOM     12  H4  <0> d          -0.897   2.215   3.629  0.00  0.00     0.039 H 
ATOM     13  H5  <0> d          -2.414   2.410   4.571  0.00  0.00     0.039 H 
BRANCH  11  14
ATOM     14  C1  <0> d          -2.041   3.981   3.135  0.00  0.00    -0.073 C 
ATOM     15  H1  <0> d          -1.510   4.617   3.858  0.00  0.00     0.028 H 
ATOM     16  H2  <0> d          -3.096   4.286   3.084  0.00  0.00     0.028 H 
ATOM     17  H3  <0> d          -1.579   4.091   2.142  0.00  0.00     0.028 H 
ENDBRANCH  11  14
ENDBRANCH   1  11
BRANCH   6  18
ATOM     18  N1  <0> d          -0.698   1.558   1.213  0.00  0.00    -0.394 N 
ATOM     19  H10 <0> d          -0.166   2.194   1.936  0.00  0.00     0.159 HD
BRANCH  18  20
ATOM     20  C9  <0> d          -0.013   1.086   0.008  0.00  0.00    -0.021 C 
ATOM     21  H11 <0> d           1.019   1.467   0.000  0.00  0.00     0.056 H 
ATOM     22  H12 <0> d          -0.545   1.450  -0.883  0.00  0.00     0.056 H 
ATOM     23  H13 <0> d           0.002  -0.014   0.002  0.00  0.00     0.056 H 
ENDBRANCH  18  20
ENDBRANCH   6  18
TORSDOF 4
