REMARK  4 active torsions:
REMARK  status: ('A' for Active; 'I' for Inactive)
REMARK    1  A    between atoms: C5_6  and  O1_7 
REMARK    2  A    between atoms: O1_7  and  C6_8 
REMARK    3  A    between atoms: C6_8  and  C7_9 
REMARK    4  A    between atoms: C7_9  and  O2_10 
ROOT
ATOM      1  C1  <0> d           1.178   1.773   0.000  0.00  0.00    -0.034 A 
ATOM      2  C2  <0> d          -0.013   1.076   0.008  0.00  0.00     0.004 A 
ATOM      3  N1  <0> d          -1.169   1.712   0.017  0.00  0.00    -0.273 NA
ATOM      4  C3  <0> d          -1.239   3.029   0.029  0.00  0.00     0.004 A 
ATOM      5  C4  <0> d          -0.094   3.799   0.022  0.00  0.00    -0.034 A 
ATOM      6  C5  <0> d           1.147   3.166   0.008  0.00  0.00     0.071 A 
ATOM      7  H1  <0> d           2.121   1.247  -0.011  0.00  0.00     0.089 H 
ATOM      8  H2  <0> d           0.002  -0.004   0.002  0.00  0.00     0.114 H 
ATOM      9  H3  <0> d          -2.205   3.512   0.040  0.00  0.00     0.114 H 
ATOM     10  H4  <0> d          -0.158   4.877   0.028  0.00  0.00     0.089 H 
ENDROOT
BRANCH   6  11
ATOM     11  O1  <0> d           2.296   3.887   0.000  0.00  0.00    -0.349 OA
BRANCH  11  12
ATOM     12  C6  <0> d           2.169   5.311   0.009  0.00  0.00     0.045 C 
ATOM     13  H5  <0> d           1.616   5.631  -0.875  0.00  0.00     0.078 H 
ATOM     14  H6  <0> d           1.633   5.622   0.905  0.00  0.00     0.078 H 
BRANCH  12  15
ATOM     15  C7  <0> d           3.560   5.947  -0.002  0.00  0.00     0.037 C 
ATOM     16  H7  <0> d           3.465   7.029   0.094  0.00  0.00     0.077 H 
ATOM     17  H8  <0> d           4.144   5.559   0.832  0.00  0.00     0.077 H 
BRANCH  15  18
ATOM     18  O2  <0> d           4.218   5.634  -1.231  0.00  0.00    -0.399 OA
ATOM     19  H9  <0> d           5.107   6.006  -1.307  0.00  0.00     0.209 HD
ENDBRANCH  15  18
ENDBRANCH  12  15
ENDBRANCH  11  12
ENDBRANCH   6  11
TORSDOF 4
