REMARK  1 active torsions:
REMARK  status: ('A' for Active; 'I' for Inactive)
REMARK    1  A    between atoms: C1_1  and  C2_2 
ROOT
ATOM      1  C2  <0> d           1.206  -0.675  -0.013  0.00  0.00    -0.022 A 
ATOM      2  C3  <0> d           0.002  -0.004   0.002  0.00  0.00    -0.051 A 
ATOM      3  C4  <0> d          -0.017   1.393   0.010  0.00  0.00     0.083 A 
ATOM      4  C5  <0> d           1.189   2.103   0.002  0.00  0.00     0.140 A 
ATOM      5  C6  <0> d           2.389   1.419  -0.013  0.00  0.00    -0.006 A 
ATOM      6  C7  <0> d           2.398   0.033  -0.021  0.00  0.00     0.125 A 
ATOM      7  F1  <0> d           3.575  -0.631  -0.036  0.00  0.00    -0.205 F 
ATOM      8  F2  <0> d           1.180   3.454   0.009  0.00  0.00    -0.204 F 
ATOM      9  C8  <0> d          -1.265   2.095   0.019  0.00  0.00     0.102 C 
ATOM     10  N1  <0> d          -2.255   2.652   0.027  0.00  0.00    -0.191 NA
ATOM     11  H4  <0> d          -0.925  -0.558   0.008  0.00  0.00     0.086 H 
ATOM     12  H5  <0> d           3.321   1.964  -0.019  0.00  0.00     0.093 H 
ENDROOT
BRANCH   1  13
ATOM     13  C1  <0> d           1.227  -2.182  -0.021  0.00  0.00    -0.048 C 
ATOM     14  H1  <0> d           0.195  -2.562  -0.013  0.00  0.00     0.033 H 
ATOM     15  H2  <0> d           1.759  -2.546   0.870  0.00  0.00     0.033 H 
ATOM     16  H3  <0> d           1.741  -2.536  -0.927  0.00  0.00     0.033 H 
ENDBRANCH   1  13
TORSDOF 1
