REMARK  3 active torsions:
REMARK  status: ('A' for Active; 'I' for Inactive)
REMARK    1  A    between atoms: C1_1  and  C2_2 
REMARK    2  A    between atoms: C2_2  and  C3_3 
REMARK    3  A    between atoms: C3_3  and  C4_4 
ROOT
ATOM      1  C2  <0> d           0.002  -0.004   0.002  0.00  0.00     0.248 C 
ATOM      2  F4  <0> d          -1.310  -0.488   0.012  0.00  0.00    -0.207 F 
ATOM      3  F5  <0> d           0.657  -0.455  -1.149  0.00  0.00    -0.207 F 
ENDROOT
BRANCH   1   4
ATOM      4  C1  <0> d          -0.019   1.526   0.010  0.00  0.00    -0.016 C 
ATOM      5  H1  <0> d           1.004   1.903   0.003  0.00  0.00     0.035 H 
ATOM      6  H2  <0> d          -0.546   1.887  -0.873  0.00  0.00     0.035 H 
ATOM      7  H3  <0> d          -0.529   1.877   0.907  0.00  0.00     0.035 H 
ENDBRANCH   1   4
BRANCH   1   8
ATOM      8  C3  <0> d           0.742  -0.511   1.242  0.00  0.00     0.086 C 
ATOM      9  H4  <0> d           1.765  -0.134   1.234  0.00  0.00     0.055 H 
ATOM     10  H5  <0> d           0.232  -0.159   2.138  0.00  0.00     0.055 H 
BRANCH   8  11
ATOM     11  C4  <0> d           0.763  -2.041   1.233  0.00  0.00     0.393 C 
ATOM     12  F1  <0> d           1.418  -2.492   0.082  0.00  0.00    -0.171 F 
ATOM     13  F2  <0> d           1.440  -2.504   2.366  0.00  0.00    -0.171 F 
ATOM     14  F3  <0> d          -0.550  -2.525   1.243  0.00  0.00    -0.171 F 
ENDBRANCH   8  11
ENDBRANCH   1   8
TORSDOF 3
