REMARK  1 active torsions:
REMARK  status: ('A' for Active; 'I' for Inactive)
REMARK    1  A    between atoms: C4_4  and  C7_7 
REMARK       I    between atoms: C7_7  and  N1_9 
ROOT
ATOM      1  C1  <0> d          -0.017   1.379   0.010  0.00  0.00    -0.083 A 
ATOM      2  C2  <0> d           1.168   2.094   0.002  0.00  0.00    -0.082 A 
ATOM      3  C3  <0> d           2.377   1.429  -0.013  0.00  0.00    -0.068 A 
ATOM      4  C4  <0> d           2.403   0.034  -0.021  0.00  0.00     0.031 A 
ATOM      5  C5  <0> d           1.204  -0.681  -0.013  0.00  0.00    -0.068 A 
ATOM      6  C6  <0> d           0.002  -0.004   0.002  0.00  0.00    -0.082 A 
ATOM      7  H1  <0> d          -0.961   1.904   0.026  0.00  0.00     0.083 H 
ATOM      8  H2  <0> d           1.147   3.173   0.008  0.00  0.00     0.083 H 
ATOM      9  H3  <0> d           3.302   1.988  -0.019  0.00  0.00     0.085 H 
ATOM     10  H4  <0> d           1.218  -1.760  -0.019  0.00  0.00     0.085 H 
ATOM     11  H5  <0> d          -0.926  -0.556   0.008  0.00  0.00     0.083 H 
ENDROOT
BRANCH   4  12
ATOM     12  C7  <0> d           3.696  -0.685  -0.037  0.00  0.00     0.249 C 
ATOM     13  O1  <0> d           4.738  -0.060  -0.044  0.00  0.00    -0.268 OA
ATOM     14  N1  <0> d           3.717  -2.032  -0.045  0.00  0.00    -0.366 N 
ATOM     15  H6  <0> d           2.885  -2.531  -0.039  0.00  0.00     0.159 HD
ATOM     16  H7  <0> d           4.565  -2.504  -0.056  0.00  0.00     0.159 HD
ENDBRANCH   4  12
TORSDOF 1
