REMARK  1 active torsions:
REMARK  status: ('A' for Active; 'I' for Inactive)
REMARK    1  A    between atoms: C1_1  and  C2_2 
ROOT
ATOM      1  C2  <0> d           2.397   0.007  -0.020  0.00  0.00    -0.038 A 
ATOM      2  C3  <0> d           1.206  -0.687  -0.013  0.00  0.00    -0.076 A 
ATOM      3  C4  <0> d           0.002  -0.004   0.002  0.00  0.00    -0.080 A 
ATOM      4  C5  <0> d          -0.017   1.379   0.010  0.00  0.00    -0.044 A 
ATOM      5  C6  <0> d           1.169   2.088   0.002  0.00  0.00     0.137 A 
ATOM      6  C7  <0> d           2.389   1.403  -0.013  0.00  0.00     0.089 A 
ATOM      7  C8  <0> d           3.623   2.131  -0.021  0.00  0.00     0.103 C 
ATOM      8  N1  <0> d           4.601   2.707  -0.026  0.00  0.00    -0.191 NA
ATOM      9  F1  <0> d           1.151   3.439   0.009  0.00  0.00    -0.204 F 
ATOM     10  H4  <0> d           1.212  -1.767  -0.018  0.00  0.00     0.084 H 
ATOM     11  H5  <0> d          -0.927  -0.554   0.008  0.00  0.00     0.083 H 
ATOM     12  H6  <0> d          -0.960   1.905   0.017  0.00  0.00     0.088 H 
ENDROOT
BRANCH   1  13
ATOM     13  C1  <0> d           3.706  -0.740  -0.036  0.00  0.00    -0.050 C 
ATOM     14  H1  <0> d           4.012  -0.915  -1.067  0.00  0.00     0.033 H 
ATOM     15  H2  <0> d           4.468  -0.150   0.474  0.00  0.00     0.033 H 
ATOM     16  H3  <0> d           3.585  -1.696   0.475  0.00  0.00     0.033 H 
ENDBRANCH   1  13
TORSDOF 1
