REMARK  5 active torsions:
REMARK  status: ('A' for Active; 'I' for Inactive)
REMARK    1  A    between atoms: C1_1  and  O1_2 
REMARK    2  A    between atoms: O1_2  and  C2_3 
REMARK    3  A    between atoms: C2_3  and  C3_4 
REMARK    4  A    between atoms: C3_4  and  C4_6 
REMARK    5  A    between atoms: C3_4  and  O2_8 
ROOT
ATOM      1  C3  <0> d           0.613  -2.097  -1.041  0.00  0.00     0.071 C 
ATOM      2  H1  <0> d          -0.419  -2.427  -0.920  0.00  0.00     0.092 H 
ENDROOT
BRANCH   1   3
ATOM      3  C2  <0> d           0.652  -0.570  -1.138  0.00  0.00     0.046 C 
ATOM      4  H5  <0> d           0.139  -0.251  -2.045  0.00  0.00     0.078 H 
ATOM      5  H6  <0> d           1.688  -0.234  -1.169  0.00  0.00     0.078 H 
BRANCH   3   6
ATOM      6  O1  <0> d           0.002  -0.004   0.002  0.00  0.00    -0.393 OA
BRANCH   6   7
ATOM      7  C1  <0> d          -0.017   1.425   0.010  0.00  0.00     0.004 C 
ATOM      8  H2  <0> d           1.005   1.802   0.002  0.00  0.00     0.066 H 
ATOM      9  H3  <0> d          -0.544   1.786  -0.873  0.00  0.00     0.066 H 
ATOM     10  H4  <0> d          -0.527   1.776   0.907  0.00  0.00     0.066 H 
ENDBRANCH   6   7
ENDBRANCH   3   6
ENDBRANCH   1   3
BRANCH   1  11
ATOM     11  C4  <0> d           1.188  -2.695  -2.299  0.00  0.00    -0.083 C 
ATOM     12  C5  <0> d           2.178  -3.549  -2.225  0.00  0.00    -0.122 C 
ATOM     13  H8  <0> d           2.590  -3.977  -3.127  0.00  0.00     0.066 H 
ATOM     14  H9  <0> d           2.583  -3.825  -1.263  0.00  0.00     0.066 H 
ATOM     15  H7  <0> d           0.783  -2.419  -3.262  0.00  0.00     0.079 H 
ENDBRANCH   1  11
BRANCH   1  16
ATOM     16  O2  <0> d           1.385  -2.522   0.084  0.00  0.00    -0.390 OA
ATOM     17  H10 <0> d           2.315  -2.263   0.044  0.00  0.00     0.210 HD
ENDBRANCH   1  16
TORSDOF 5
