REMARK  1 active torsions:
REMARK  status: ('A' for Active; 'I' for Inactive)
REMARK    1  A    between atoms: C4_4  and  C7_7 
ROOT
ATOM      1  C1  <0> d          -1.238   3.133   0.029  0.00  0.00    -0.083 A 
ATOM      2  C2  <0> d          -1.219   1.751   0.017  0.00  0.00    -0.082 A 
ATOM      3  C3  <0> d          -0.013   1.076   0.008  0.00  0.00    -0.072 A 
ATOM      4  C4  <0> d           1.175   1.783   0.000  0.00  0.00    -0.004 A 
ATOM      5  C5  <0> d           1.156   3.165   0.008  0.00  0.00    -0.072 A 
ATOM      6  C6  <0> d          -0.050   3.840   0.022  0.00  0.00    -0.082 A 
ATOM      7  H1  <0> d          -2.180   3.660   0.041  0.00  0.00     0.083 H 
ATOM      8  H2  <0> d          -2.147   1.198   0.019  0.00  0.00     0.083 H 
ATOM      9  H3  <0> d           0.002  -0.004   0.002  0.00  0.00     0.084 H 
ATOM     10  H4  <0> d           2.084   3.718   0.003  0.00  0.00     0.084 H 
ATOM     11  H5  <0> d          -0.065   4.920   0.028  0.00  0.00     0.083 H 
ENDROOT
BRANCH   4  12
ATOM     12  C7  <0> d           2.490   1.048  -0.016  0.00  0.00     0.157 C 
ATOM     13  O2  <0> d           3.570   1.991  -0.021  0.00  0.00    -0.355 OA
ATOM     14  C9  <0> d           4.364   1.740   1.156  0.00  0.00     0.043 C 
ATOM     15  C8  <0> d           4.000   0.279   1.520  0.00  0.00     0.043 C 
ATOM     16  H9  <0> d           4.099   2.403   1.993  0.00  0.00     0.077 H 
ATOM     17  H10 <0> d           5.444   1.811   0.960  0.00  0.00     0.077 H 
ATOM     18  O1  <0> d           2.599   0.226   1.159  0.00  0.00    -0.355 OA
ATOM     19  H7  <0> d           4.111   0.058   2.591  0.00  0.00     0.077 H 
ATOM     20  H8  <0> d           4.558  -0.466   0.932  0.00  0.00     0.077 H 
ATOM     21  H6  <0> d           2.586   0.405  -0.903  0.00  0.00     0.137 H 
ENDBRANCH   4  12
TORSDOF 1
