REMARK  4 active torsions:
REMARK  status: ('A' for Active; 'I' for Inactive)
REMARK    1  A    between atoms: C1_1  and  C2_2 
REMARK    2  A    between atoms: C3_3  and  C4_4 
REMARK    3  A    between atoms: C3_3  and  O1_6 
REMARK    4  A    between atoms: O1_6  and  C6_7 
ROOT
ATOM      1  C4  <0> d           0.305  -2.072  -1.151  0.00  0.00    -0.053 C 
ATOM      2  C5  <0> d           0.152  -3.233  -1.235  0.00  0.00    -0.147 C 
ATOM      3  H5  <0> d           0.016  -4.271  -1.309  0.00  0.00     0.167 H 
ENDROOT
BRANCH   1   4
ATOM      4  C3  <0> d           0.491  -0.655  -1.050  0.00  0.00     0.116 C 
ATOM      5  C2  <0> d           0.105  -0.009   0.051  0.00  0.00    -0.066 C 
ATOM      6  H4  <0> d          -0.268  -0.563   0.900  0.00  0.00     0.081 H 
BRANCH   5   7
ATOM      7  C1  <0> d           0.190   1.494   0.112  0.00  0.00    -0.057 C 
ATOM      8  H1  <0> d           1.235   1.801   0.060  0.00  0.00     0.032 H 
ATOM      9  H2  <0> d          -0.356   1.923  -0.729  0.00  0.00     0.032 H 
ATOM     10  H3  <0> d          -0.246   1.846   1.046  0.00  0.00     0.032 H 
ENDBRANCH   5   7
BRANCH   4  11
ATOM     11  O1  <0> d           1.060   0.030  -2.076  0.00  0.00    -0.348 OA
BRANCH  11  12
ATOM     12  C6  <0> d           2.427  -0.261  -2.371  0.00  0.00     0.011 C 
ATOM     13  H6  <0> d           3.052   0.036  -1.529  0.00  0.00     0.067 H 
ATOM     14  H7  <0> d           2.541  -1.330  -2.550  0.00  0.00     0.067 H 
ATOM     15  H8  <0> d           2.732   0.290  -3.261  0.00  0.00     0.067 H 
ENDBRANCH  11  12
ENDBRANCH   4  11
ENDBRANCH   1   4
TORSDOF 4
