REMARK  5 active torsions:
REMARK  status: ('A' for Active; 'I' for Inactive)
REMARK    1  A    between atoms: C1_1  and  C2_2 
REMARK    2  A    between atoms: C6_6  and  C10_11 
REMARK    3  A    between atoms: C7_7  and  N1_8 
REMARK    4  A    between atoms: N1_8  and  C8_9 
REMARK    5  A    between atoms: N1_8  and  C9_10 
ROOT
ATOM      1  C2  <0> d           0.938   3.135  -0.045  0.00  0.00    -0.040 A 
ATOM      2  C3  <0> d           0.772   1.775  -0.217  0.00  0.00    -0.075 A 
ATOM      3  C4  <0> d          -0.489   1.254  -0.441  0.00  0.00    -0.082 A 
ATOM      4  C5  <0> d          -1.587   2.093  -0.499  0.00  0.00    -0.075 A 
ATOM      5  C6  <0> d          -1.429   3.453  -0.321  0.00  0.00    -0.040 A 
ATOM      6  C7  <0> d          -0.163   3.980  -0.096  0.00  0.00     0.021 A 
ATOM      7  H4  <0> d           1.628   1.117  -0.177  0.00  0.00     0.084 H 
ATOM      8  H5  <0> d          -0.616   0.190  -0.576  0.00  0.00     0.083 H 
ATOM      9  H6  <0> d          -2.570   1.683  -0.678  0.00  0.00     0.084 H 
ENDROOT
BRANCH   6  10
ATOM     10  N1  <0> d           0.002   5.356   0.078  0.00  0.00    -0.291 NA
BRANCH  10  11
ATOM     11  C8  <0> d          -0.557   6.101  -1.059  0.00  0.00    -0.029 C 
ATOM     12  H7  <0> d          -1.622   5.884  -1.147  0.00  0.00     0.048 H 
ATOM     13  H8  <0> d          -0.415   7.169  -0.898  0.00  0.00     0.048 H 
ATOM     14  H9  <0> d          -0.048   5.801  -1.975  0.00  0.00     0.048 H 
ENDBRANCH  10  11
BRANCH  10  15
ATOM     15  C9  <0> d          -0.595   5.802   1.344  0.00  0.00    -0.029 C 
ATOM     16  H10 <0> d           0.033   5.480   2.175  0.00  0.00     0.048 H 
ATOM     17  H11 <0> d          -0.672   6.889   1.346  0.00  0.00     0.048 H 
ATOM     18  H12 <0> d          -1.589   5.367   1.450  0.00  0.00     0.048 H 
ENDBRANCH  10  15
ENDBRANCH   6  10
BRANCH   1  19
ATOM     19  C1  <0> d           2.313   3.702   0.200  0.00  0.00    -0.050 C 
ATOM     20  H1  <0> d           2.778   3.951  -0.754  0.00  0.00     0.033 H 
ATOM     21  H2  <0> d           2.232   4.601   0.810  0.00  0.00     0.033 H 
ATOM     22  H3  <0> d           2.923   2.964   0.720  0.00  0.00     0.033 H 
ENDBRANCH   1  19
BRANCH   5  23
ATOM     23  C10 <0> d          -2.627   4.366  -0.378  0.00  0.00    -0.050 C 
ATOM     24  H13 <0> d          -2.845   4.614  -1.416  0.00  0.00     0.033 H 
ATOM     25  H14 <0> d          -3.487   3.864   0.065  0.00  0.00     0.033 H 
ATOM     26  H15 <0> d          -2.414   5.279   0.177  0.00  0.00     0.033 H 
ENDBRANCH   5  23
TORSDOF 5
