REMARK  1 active torsions:
REMARK  status: ('A' for Active; 'I' for Inactive)
REMARK    1  A    between atoms: C4_4  and  C7_8 
ROOT
ATOM      1  C1  <0> d           1.348   5.836   0.021  0.00  0.00    -0.043 A 
ATOM      2  C2  <0> d           2.520   5.103   0.005  0.00  0.00    -0.042 A 
ATOM      3  C3  <0> d           2.474   3.721  -0.002  0.00  0.00     0.133 A 
ATOM      4  C4  <0> d           1.238   3.065   0.007  0.00  0.00     0.082 A 
ATOM      5  C5  <0> d           0.059   3.813   0.016  0.00  0.00    -0.026 A 
ATOM      6  C6  <0> d           0.120   5.193   0.029  0.00  0.00     0.117 A 
ATOM      7  F1  <0> d          -1.020   5.918   0.044  0.00  0.00    -0.206 F 
ATOM      8  F2  <0> d           3.620   3.006  -0.016  0.00  0.00    -0.205 F 
ATOM      9  H1  <0> d           1.389   6.915   0.026  0.00  0.00     0.088 H 
ATOM     10  H2  <0> d           3.473   5.610  -0.001  0.00  0.00     0.088 H 
ATOM     11  H3  <0> d          -0.899   3.314   0.018  0.00  0.00     0.090 H 
ENDROOT
BRANCH   4  12
ATOM     12  C7  <0> d           1.181   1.591  -0.001  0.00  0.00     0.212 C 
ATOM     13  O1  <0> d           2.209   0.943  -0.014  0.00  0.00    -0.644 OA
ATOM     14  O2  <0> d          -0.011   0.963   0.007  0.00  0.00    -0.644 OA
ENDBRANCH   4  12
TORSDOF 1
