REMARK  2 active torsions:
REMARK  status: ('A' for Active; 'I' for Inactive)
REMARK    1  A    between atoms: C3_3  and  C5_6 
REMARK    2  A    between atoms: C5_6  and  N2_10 
ROOT
ATOM      1  C5  <0> d           1.402   3.539   0.007  0.00  0.00     0.243 C 
ATOM      2  H1  <0> d           0.515   4.078   0.372  0.00  0.00     0.120 H 
ATOM      3  C6  <0> d           1.706   3.991  -1.360  0.00  0.00     0.100 C 
ATOM      4  N1  <0> d           1.940   4.341  -2.415  0.00  0.00    -0.195 NA
ENDROOT
BRANCH   1   5
ATOM      5  C3  <0> d           1.160   2.051   0.002  0.00  0.00     0.029 A 
ATOM      6  C2  <0> d          -0.017   1.378   0.010  0.00  0.00    -0.067 A 
ATOM      7  C1  <0> d           0.002  -0.004   0.002  0.00  0.00    -0.076 A 
ATOM      8  H3  <0> d          -0.955   1.913   0.017  0.00  0.00     0.085 H 
ATOM      9  C4  <0> d           1.196  -0.645  -0.013  0.00  0.00    -0.044 A 
ATOM     10  H2  <0> d          -0.921  -0.565   0.008  0.00  0.00     0.084 H 
ATOM     11  S1  <0> d           2.348   0.719  -0.017  0.00  0.00    -0.103 SA
ATOM     12  H4  <0> d           1.399  -1.706  -0.020  0.00  0.00     0.095 H 
ENDBRANCH   1   5
BRANCH   1  13
ATOM     13  N2  <0> d           2.536   3.847   0.888  0.00  0.00     0.101 N 
ATOM     14  H5  <0> d           2.713   4.933   0.892  0.00  0.00     0.315 HD
ATOM     15  H6  <0> d           2.309   3.509   1.910  0.00  0.00     0.315 HD
ENDBRANCH   1  13
TORSDOF 2
