REMARK  4 active torsions:
REMARK  status: ('A' for Active; 'I' for Inactive)
REMARK    1  A    between atoms: C1_1  and  C2_2 
REMARK    2  A    between atoms: C2_2  and  O2_4 
REMARK    3  A    between atoms: O2_4  and  C3_5 
REMARK    4  A    between atoms: C8_11  and  O3_13 
ROOT
ATOM      1  C3  <0> d          -0.773   3.123  -1.223  0.00  0.00     0.072 C 
ATOM      2  H1  <0> d           0.249   3.500  -1.231  0.00  0.00     0.088 H 
ATOM      3  C4  <0> d          -0.753   1.593  -1.232  0.00  0.00    -0.038 C 
ATOM      4  C5  <0> d          -0.013   1.086   0.008  0.00  0.00    -0.063 C 
ATOM      5  C6  <0> d          -0.729   1.579   1.267  0.00  0.00    -0.063 C 
ATOM      6  C7  <0> d          -0.750   3.109   1.275  0.00  0.00    -0.039 C 
ATOM      7  C8  <0> d          -1.490   3.616   0.036  0.00  0.00     0.061 C 
ATOM      8  H2  <0> d          -2.512   3.239   0.043  0.00  0.00     0.086 H 
ATOM      9  H6  <0> d          -0.242   1.241  -2.128  0.00  0.00     0.036 H 
ATOM     10  H7  <0> d          -1.775   1.215  -1.224  0.00  0.00     0.036 H 
ATOM     11  H8  <0> d           0.002  -0.004   0.002  0.00  0.00     0.033 H 
ATOM     12  H9  <0> d           1.010   1.463   0.000  0.00  0.00     0.033 H 
ATOM     13  H10 <0> d          -1.751   1.202   1.275  0.00  0.00     0.033 H 
ATOM     14  H11 <0> d          -0.202   1.218   2.150  0.00  0.00     0.033 H 
ATOM     15  H12 <0> d           0.273   3.486   1.268  0.00  0.00     0.036 H 
ATOM     16  H13 <0> d          -1.260   3.461   2.172  0.00  0.00     0.036 H 
ENDROOT
BRANCH   1  17
ATOM     17  O2  <0> d          -1.476   3.603  -2.399  0.00  0.00    -0.314 OA
BRANCH  17  18
ATOM     18  C2  <0> d          -0.741   3.823  -3.501  0.00  0.00     0.255 C 
ATOM     19  O1  <0> d           0.450   3.619  -3.483  0.00  0.00    -0.266 OA
BRANCH  18  20
ATOM     20  C1  <0> d          -1.401   4.322  -4.760  0.00  0.00     0.004 C 
ATOM     21  H3  <0> d          -1.875   5.284  -4.565  0.00  0.00     0.041 H 
ATOM     22  H4  <0> d          -0.650   4.440  -5.542  0.00  0.00     0.041 H 
ATOM     23  H5  <0> d          -2.154   3.605  -5.085  0.00  0.00     0.041 H 
ENDBRANCH  18  20
ENDBRANCH  17  18
ENDBRANCH   1  17
BRANCH   7  24
ATOM     24  O3  <0> d          -1.509   5.045   0.044  0.00  0.00    -0.393 OA
ATOM     25  H14 <0> d          -1.949   5.428   0.815  0.00  0.00     0.210 HD
ENDBRANCH   7  24
TORSDOF 4
