REMARK  1 active torsions:
REMARK  status: ('A' for Active; 'I' for Inactive)
REMARK    1  A    between atoms: C4_5  and  O2_7 
ROOT
ATOM      1  C1  <0> d          -0.013   1.086   0.008  0.00  0.00    -0.019 C 
ATOM      2  C2  <0> d          -0.788   1.610   1.237  0.00  0.00     0.022 C 
ATOM      3  O1  <0> d          -1.501   2.772   0.753  0.00  0.00    -0.389 OA
ATOM      4  C3  <0> d          -1.978   2.408  -0.561  0.00  0.00     0.043 C 
ATOM      5  C4  <0> d          -0.811   1.623  -1.201  0.00  0.00     0.058 C 
ATOM      6  H1  <0> d          -0.191   2.285  -1.804  0.00  0.00     0.086 H 
ATOM      7  H2  <0> d           0.002  -0.004   0.002  0.00  0.00     0.040 H 
ATOM      8  H3  <0> d           1.003   1.481   0.000  0.00  0.00     0.040 H 
ATOM      9  H4  <0> d          -1.490   0.856   1.593  0.00  0.00     0.074 H 
ATOM     10  H5  <0> d          -0.096   1.890   2.031  0.00  0.00     0.074 H 
ATOM     11  H6  <0> d          -2.199   3.302  -1.145  0.00  0.00     0.078 H 
ATOM     12  H7  <0> d          -2.863   1.777  -0.484  0.00  0.00     0.078 H 
ENDROOT
BRANCH   5  13
ATOM     13  O2  <0> d          -1.307   0.542  -1.994  0.00  0.00    -0.393 OA
ATOM     14  H8  <0> d          -1.816   0.823  -2.766  0.00  0.00     0.210 HD
ENDBRANCH   5  13
TORSDOF 1
