REMARK  3 active torsions:
REMARK  status: ('A' for Active; 'I' for Inactive)
REMARK    1  A    between atoms: C1_1  and  N1_2 
REMARK    2  A    between atoms: N1_2  and  C2_3 
REMARK    3  A    between atoms: N1_2  and  C3_4 
ROOT
ATOM      1  C3  <0> d          -0.017   1.434   0.010  0.00  0.00     0.324 C 
ATOM      2  O1  <0> d           1.364   1.855  -0.001  0.00  0.00    -0.335 OA
ATOM      3  C4  <0> d           1.991   0.911  -0.904  0.00  0.00     0.044 C 
ATOM      4  C5  <0> d           1.248  -0.407  -0.595  0.00  0.00     0.044 C 
ATOM      5  O2  <0> d           0.002  -0.004   0.002  0.00  0.00    -0.335 OA
ATOM      6  H7  <0> d          -0.556   1.821  -0.868  0.00  0.00     0.182 H 
ATOM      7  H8  <0> d           1.847   1.246  -1.942  0.00  0.00     0.077 H 
ATOM      8  H9  <0> d           3.067   0.853  -0.683  0.00  0.00     0.077 H 
ATOM      9  H10 <0> d           1.087  -0.965  -1.530  0.00  0.00     0.077 H 
ATOM     10  H11 <0> d           1.850  -1.015   0.096  0.00  0.00     0.077 H 
ENDROOT
BRANCH   1  11
ATOM     11  N1  <0> d          -0.685   1.923   1.223  0.00  0.00     0.135 N 
BRANCH  11  12
ATOM     12  C1  <0> d           0.078   1.564   2.426  0.00  0.00     0.101 C 
ATOM     13  H1  <0> d           0.229   0.474   2.453  0.00  0.00     0.072 H 
ATOM     14  H2  <0> d          -0.478   1.879   3.321  0.00  0.00     0.072 H 
ATOM     15  H3  <0> d           1.055   2.068   2.404  0.00  0.00     0.072 H 
ENDBRANCH  11  12
BRANCH  11  16
ATOM     16  C2  <0> d          -0.906   3.374   1.154  0.00  0.00     0.101 C 
ATOM     17  H4  <0> d          -1.478   3.615   0.246  0.00  0.00     0.072 H 
ATOM     18  H5  <0> d           0.065   3.891   1.124  0.00  0.00     0.072 H 
ATOM     19  H6  <0> d          -1.469   3.702   2.041  0.00  0.00     0.072 H 
ENDBRANCH  11  16
ENDBRANCH   1  11
TORSDOF 3
