REMARK  2 active torsions:
REMARK  status: ('A' for Active; 'I' for Inactive)
REMARK    1  A    between atoms: C1_1  and  C2_2 
REMARK    2  A    between atoms: C3_3  and  C6_9 
ROOT
ATOM      1  C2  <0> d           1.319   2.069  -0.007  0.00  0.00     0.053 A 
ATOM      2  C3  <0> d           0.072   1.488   0.259  0.00  0.00     0.080 A 
ATOM      3  C4  <0> d          -0.024   0.090   0.248  0.00  0.00    -0.001 A 
ATOM      4  N1  <0> d           1.057  -0.623  -0.010  0.00  0.00    -0.328 N 
ATOM      5  C5  <0> d           2.218  -0.035  -0.256  0.00  0.00     0.277 A 
ATOM      6  N2  <0> d           2.350   1.283  -0.256  0.00  0.00    -0.211 NA
ATOM      7  O1  <0> d           3.300  -0.803  -0.517  0.00  0.00    -0.149 OA
ATOM      8  H4  <0> d          -0.967  -0.396   0.447  0.00  0.00     0.113 H 
ATOM      9  H5  <0> d           1.000  -1.722  -0.023  0.00  0.00     0.169 HD
ENDROOT
BRANCH   1  10
ATOM     10  C1  <0> d           1.481   3.567  -0.009  0.00  0.00    -0.034 C 
ATOM     11  H1  <0> d           0.514   4.040   0.218  0.00  0.00     0.035 H 
ATOM     12  H2  <0> d           1.827   3.897  -1.000  0.00  0.00     0.035 H 
ATOM     13  H3  <0> d           2.219   3.857   0.752  0.00  0.00     0.035 H 
ENDBRANCH   1  10
BRANCH   2  14
ATOM     14  C6  <0> d          -1.110   2.326   0.536  0.00  0.00     0.212 C 
ATOM     15  O2  <0> d          -0.988   3.529   0.650  0.00  0.00    -0.644 OA
ATOM     16  O3  <0> d          -2.325   1.757   0.662  0.00  0.00    -0.644 OA
ENDBRANCH   2  14
TORSDOF 2
