REMARK  4 active torsions:
REMARK  status: ('A' for Active; 'I' for Inactive)
REMARK    1  A    between atoms: C1_1  and  N1_2 
REMARK    2  A    between atoms: C2_3  and  C4_7 
REMARK    3  A    between atoms: C4_7  and  O2_9 
REMARK    4  A    between atoms: O2_9  and  C5_10 
ROOT
ATOM      1  N1  <0> d           0.002  -0.004   0.002  0.00  0.00    -0.251 N 
ATOM      2  C2  <0> d           0.008  -0.792  -1.097  0.00  0.00     0.223 A 
ATOM      3  N2  <0> d           0.028  -2.045  -0.677  0.00  0.00    -0.215 NA
ATOM      4  C3  <0> d           0.034  -2.017   0.652  0.00  0.00     0.108 A 
ATOM      5  N3  <0> d           0.023  -0.766   1.041  0.00  0.00    -0.164 NA
ATOM      6  H4  <0> d           0.049  -2.880   1.302  0.00  0.00     0.149 H 
ENDROOT
BRANCH   2   7
ATOM      7  C4  <0> d          -0.006  -0.338  -2.502  0.00  0.00     0.330 C 
ATOM      8  O1  <0> d          -0.024   0.849  -2.756  0.00  0.00    -0.256 OA
BRANCH   7   9
ATOM      9  O2  <0> d           0.002  -1.242  -3.502  0.00  0.00    -0.320 OA
BRANCH   9  10
ATOM     10  C5  <0> d          -0.012  -0.732  -4.837  0.00  0.00     0.013 C 
ATOM     11  H5  <0> d          -0.911  -0.135  -4.988  0.00  0.00     0.067 H 
ATOM     12  H6  <0> d           0.868  -0.109  -4.997  0.00  0.00     0.067 H 
ATOM     13  H7  <0> d          -0.004  -1.562  -5.543  0.00  0.00     0.067 H 
ENDBRANCH   9  10
ENDBRANCH   7   9
ENDBRANCH   2   7
BRANCH   1  14
ATOM     14  C1  <0> d          -0.018   1.461   0.010  0.00  0.00     0.004 C 
ATOM     15  H1  <0> d           1.005   1.838   0.002  0.00  0.00     0.059 H 
ATOM     16  H2  <0> d          -0.545   1.822  -0.873  0.00  0.00     0.059 H 
ATOM     17  H3  <0> d          -0.528   1.812   0.907  0.00  0.00     0.059 H 
ENDBRANCH   1  14
TORSDOF 4
