REMARK  3 active torsions:
REMARK  status: ('A' for Active; 'I' for Inactive)
REMARK    1  A    between atoms: C2_2  and  O4_11 
REMARK    2  A    between atoms: C3_4  and  O3_10 
REMARK    3  A    between atoms: C4_6  and  O2_9 
ROOT
ATOM      1  C1  <0> d          -2.144   1.432  -0.771  0.00  0.00     0.049 C 
ATOM      2  C2  <0> d          -2.218   1.839   0.717  0.00  0.00     0.085 C 
ATOM      3  H1  <0> d          -2.496   2.889   0.812  0.00  0.00     0.090 H 
ATOM      4  C3  <0> d          -0.781   1.606   1.243  0.00  0.00     0.109 C 
ATOM      5  H2  <0> d          -0.347   2.542   1.597  0.00  0.00     0.094 H 
ATOM      6  C4  <0> d          -0.013   1.086   0.008  0.00  0.00     0.155 C 
ATOM      7  H3  <0> d           0.002  -0.004   0.002  0.00  0.00     0.133 H 
ATOM      8  O1  <0> d          -0.753   1.585  -1.127  0.00  0.00    -0.356 OA
ATOM      9  H4  <0> d          -2.765   2.092  -1.377  0.00  0.00     0.078 H 
ATOM     10  H5  <0> d          -2.456   0.395  -0.897  0.00  0.00     0.078 H 
ENDROOT
BRANCH   2  11
ATOM     11  O4  <0> d          -3.148   1.011   1.417  0.00  0.00    -0.391 OA
ATOM     12  H8  <0> d          -4.055   1.073   1.088  0.00  0.00     0.210 HD
ENDBRANCH   2  11
BRANCH   4  13
ATOM     13  O3  <0> d          -0.779   0.627   2.283  0.00  0.00    -0.388 OA
ATOM     14  H7  <0> d           0.103   0.398   2.607  0.00  0.00     0.210 HD
ENDBRANCH   4  13
BRANCH   6  15
ATOM     15  O2  <0> d           1.320   1.601  -0.002  0.00  0.00    -0.369 OA
ATOM     16  H6  <0> d           1.842   1.325  -0.768  0.00  0.00     0.212 HD
ENDBRANCH   6  15
TORSDOF 3
