REMARK  0 active torsions:
REMARK  status: ('A' for Active; 'I' for Inactive)
ROOT
ATOM      1  C1  <0> d           4.006   2.913   0.050  0.00  0.00    -0.082 A 
ATOM      2  C2  <0> d           3.437   2.391   1.197  0.00  0.00    -0.082 A 
ATOM      3  C3  <0> d           2.136   1.929   1.171  0.00  0.00    -0.073 A 
ATOM      4  C4  <0> d           1.397   1.986  -0.001  0.00  0.00    -0.009 A 
ATOM      5  C5  <0> d           1.964   2.510  -1.143  0.00  0.00    -0.046 A 
ATOM      6  C6  <0> d           3.270   2.971  -1.117  0.00  0.00    -0.076 A 
ATOM      7  C7  <0> d           1.188   2.600  -2.433  0.00  0.00    -0.021 C 
ATOM      8  C8  <0> d          -0.035   1.684  -2.366  0.00  0.00     0.025 C 
ATOM      9  O1  <0> d          -0.725   1.937  -1.137  0.00  0.00    -0.366 OA
ATOM     10  C9  <0> d          -0.018   1.468   0.010  0.00  0.00     0.147 C 
ATOM     11  H1  <0> d          -0.523   1.817   0.910  0.00  0.00     0.114 H 
ATOM     12  C10 <0> d           0.002  -0.004   0.002  0.00  0.00     0.096 C 
ATOM     13  N1  <0> d           0.018  -1.140  -0.004  0.00  0.00    -0.194 NA
ATOM     14  H2  <0> d           5.024   3.273   0.067  0.00  0.00     0.083 H 
ATOM     15  H3  <0> d           4.009   2.345   2.112  0.00  0.00     0.083 H 
ATOM     16  H4  <0> d           1.692   1.521   2.067  0.00  0.00     0.084 H 
ATOM     17  H5  <0> d           3.715   3.379  -2.013  0.00  0.00     0.084 H 
ATOM     18  H6  <0> d           0.863   3.628  -2.589  0.00  0.00     0.043 H 
ATOM     19  H7  <0> d           1.826   2.292  -3.262  0.00  0.00     0.043 H 
ATOM     20  H8  <0> d          -0.696   1.894  -3.207  0.00  0.00     0.074 H 
ATOM     21  H9  <0> d           0.285   0.642  -2.402  0.00  0.00     0.074 H 
ENDROOT
TORSDOF 0
