REMARK  2 active torsions:
REMARK  status: ('A' for Active; 'I' for Inactive)
REMARK    1  A    between atoms: C1_1  and  C2_2 
REMARK    2  A    between atoms: C4_4  and  C7_10 
ROOT
ATOM      1  C2  <0> d           0.002  -0.004   0.002  0.00  0.00    -0.023 A 
ATOM      2  C3  <0> d          -0.017   1.395   0.010  0.00  0.00    -0.053 A 
ATOM      3  C4  <0> d           1.266   1.828  -0.000  0.00  0.00     0.006 A 
ATOM      4  N1  <0> d           2.092   0.751  -0.014  0.00  0.00    -0.351 N 
ATOM      5  H1  <0> d           3.061   0.781  -0.023  0.00  0.00     0.166 HD
ATOM      6  C5  <0> d           1.325  -0.392  -0.013  0.00  0.00     0.120 A 
ATOM      7  C6  <0> d           1.812  -1.738  -0.024  0.00  0.00     0.118 C 
ATOM      8  N2  <0> d           2.199  -2.806  -0.033  0.00  0.00    -0.190 NA
ATOM      9  H5  <0> d          -0.898   2.019   0.017  0.00  0.00     0.087 H 
ENDROOT
BRANCH   1  10
ATOM     10  C1  <0> d          -1.198  -0.916   0.009  0.00  0.00    -0.048 C 
ATOM     11  H2  <0> d          -1.498  -1.130  -1.016  0.00  0.00     0.033 H 
ATOM     12  H3  <0> d          -0.944  -1.847   0.516  0.00  0.00     0.033 H 
ATOM     13  H4  <0> d          -2.020  -0.430   0.534  0.00  0.00     0.033 H 
ENDBRANCH   1  10
BRANCH   3  14
ATOM     14  C7  <0> d           1.705   3.270   0.003  0.00  0.00    -0.037 C 
ATOM     15  H6  <0> d           1.820   3.612   1.031  0.00  0.00     0.035 H 
ATOM     16  H7  <0> d           2.657   3.360  -0.519  0.00  0.00     0.035 H 
ATOM     17  H8  <0> d           0.955   3.879  -0.501  0.00  0.00     0.035 H 
ENDBRANCH   3  14
TORSDOF 2
