REMARK  2 active torsions:
REMARK  status: ('A' for Active; 'I' for Inactive)
REMARK    1  A    between atoms: C1_1  and  O1_2 
REMARK    2  A    between atoms: O1_2  and  C2_3 
ROOT
ATOM      1  C2  <0> d          -0.033   3.864   0.023  0.00  0.00     0.097 A 
ATOM      2  C3  <0> d           1.157   3.163   0.008  0.00  0.00    -0.048 A 
ATOM      3  C4  <0> d           1.159   1.774   0.001  0.00  0.00    -0.079 A 
ATOM      4  C5  <0> d          -0.013   1.076   0.008  0.00  0.00    -0.069 A 
ATOM      5  C6  <0> d          -1.236   1.761   0.018  0.00  0.00     0.014 A 
ATOM      6  C7  <0> d          -1.244   3.167   0.031  0.00  0.00     0.095 A 
ATOM      7  N1  <0> d          -2.561   3.552   0.047  0.00  0.00    -0.275 N 
ATOM      8  H1  <0> d          -2.821   4.621   0.055  0.00  0.00     0.189 HD
ATOM      9  N2  <0> d          -3.351   2.396   0.049  0.00  0.00    -0.186 NA
ATOM     10  C8  <0> d          -2.588   1.342   0.036  0.00  0.00     0.034 A 
ATOM     11  H5  <0> d           2.094   3.700   0.002  0.00  0.00     0.087 H 
ATOM     12  H6  <0> d           2.098   1.242  -0.011  0.00  0.00     0.083 H 
ATOM     13  H7  <0> d           0.002  -0.004   0.002  0.00  0.00     0.085 H 
ATOM     14  H8  <0> d          -2.930   0.317   0.034  0.00  0.00     0.118 H 
ENDROOT
BRANCH   1  15
ATOM     15  O1  <0> d          -0.026   5.223   0.030  0.00  0.00    -0.354 OA
BRANCH  15  16
ATOM     16  C1  <0> d           1.250   5.865   0.021  0.00  0.00     0.010 C 
ATOM     17  H2  <0> d           1.111   6.957   0.029  0.00  0.00     0.066 H 
ATOM     18  H3  <0> d           1.802   5.572  -0.884  0.00  0.00     0.066 H 
ATOM     19  H4  <0> d           1.819   5.562   0.912  0.00  0.00     0.066 H 
ENDBRANCH  15  16
ENDBRANCH   1  15
TORSDOF 2
