REMARK  4 active torsions:
REMARK  status: ('A' for Active; 'I' for Inactive)
REMARK    1  A    between atoms: C1_1  and  C2_2 
REMARK    2  A    between atoms: C2_2  and  C3_3 
REMARK    3  A    between atoms: C2_2  and  N1_4 
REMARK    4  A    between atoms: C5_6  and  C7_9 
ROOT
ATOM      1  N1  <0> d          -2.103   1.072   1.277  0.00  0.00    -0.276 N 
ATOM      2  C4  <0> d          -2.492  -0.130   1.730  0.00  0.00     0.017 A 
ATOM      3  C5  <0> d          -3.861  -0.212   1.563  0.00  0.00     0.077 A 
ATOM      4  C6  <0> d          -4.282   1.003   0.977  0.00  0.00     0.040 A 
ATOM      5  N2  <0> d          -3.231   1.757   0.811  0.00  0.00    -0.184 NA
ATOM      6  H8  <0> d          -1.852  -0.893   2.149  0.00  0.00     0.115 H 
ATOM      7  H9  <0> d          -5.297   1.262   0.711  0.00  0.00     0.119 H 
ENDROOT
BRANCH   1   8
ATOM      8  C2  <0> d          -0.729   1.579   1.267  0.00  0.00     0.027 C 
ATOM      9  H4  <0> d          -0.744   2.669   1.273  0.00  0.00     0.074 H 
BRANCH   8  10
ATOM     10  C1  <0> d          -0.013   1.086   0.008  0.00  0.00    -0.056 C 
ATOM     11  H1  <0> d           0.002  -0.004   0.002  0.00  0.00     0.030 H 
ATOM     12  H2  <0> d           1.010   1.463   0.000  0.00  0.00     0.030 H 
ATOM     13  H3  <0> d          -0.540   1.447  -0.875  0.00  0.00     0.030 H 
ENDBRANCH   8  10
BRANCH   8  14
ATOM     14  C3  <0> d           0.011   1.072   2.506  0.00  0.00    -0.056 C 
ATOM     15  H5  <0> d           0.026  -0.018   2.500  0.00  0.00     0.030 H 
ATOM     16  H6  <0> d           1.034   1.450   2.499  0.00  0.00     0.030 H 
ATOM     17  H7  <0> d          -0.499   1.424   3.403  0.00  0.00     0.030 H 
ENDBRANCH   8  14
ENDBRANCH   1   8
BRANCH   3  18
ATOM     18  C7  <0> d          -4.719  -1.353   1.925  0.00  0.00     0.212 C 
ATOM     19  O1  <0> d          -4.231  -2.346   2.427  0.00  0.00    -0.644 OA
ATOM     20  O2  <0> d          -6.046  -1.295   1.698  0.00  0.00    -0.644 OA
ENDBRANCH   3  18
TORSDOF 4
