REMARK  4 active torsions:
REMARK  status: ('A' for Active; 'I' for Inactive)
REMARK    1  A    between atoms: C1_1  and  C2_2 
REMARK    2  A    between atoms: C2_2  and  C3_3 
REMARK    3  A    between atoms: C2_2  and  N1_4 
REMARK    4  A    between atoms: C4_5  and  N4_9 
ROOT
ATOM      1  C2  <0> d          -1.511   4.349   0.039  0.00  0.00     0.045 C 
ATOM      2  H4  <0> d          -0.885   5.242   0.038  0.00  0.00     0.075 H 
ENDROOT
BRANCH   1   3
ATOM      3  C1  <0> d          -2.406   4.353  -1.202  0.00  0.00    -0.055 C 
ATOM      4  H1  <0> d          -3.039   5.240  -1.191  0.00  0.00     0.030 H 
ATOM      5  H2  <0> d          -1.785   4.360  -2.098  0.00  0.00     0.030 H 
ATOM      6  H3  <0> d          -3.032   3.460  -1.201  0.00  0.00     0.030 H 
ENDBRANCH   1   3
BRANCH   1   7
ATOM      7  C3  <0> d          -2.383   4.338   1.297  0.00  0.00    -0.055 C 
ATOM      8  H5  <0> d          -1.745   4.336   2.181  0.00  0.00     0.030 H 
ATOM      9  H6  <0> d          -3.016   5.226   1.308  0.00  0.00     0.030 H 
ATOM     10  H7  <0> d          -3.008   3.446   1.297  0.00  0.00     0.030 H 
ENDBRANCH   1   7
BRANCH   1  11
ATOM     11  N1  <0> d          -0.660   3.156   0.025  0.00  0.00    -0.094 N 
ATOM     12  N3  <0> d          -1.087   1.819   0.017  0.00  0.00    -0.150 NA
ATOM     13  C5  <0> d          -0.013   1.076   0.008  0.00  0.00     0.125 A 
ATOM     14  N2  <0> d           1.063   1.864   0.002  0.00  0.00    -0.055 NA
ATOM     15  H8  <0> d           0.002  -0.004   0.002  0.00  0.00     0.150 H 
ATOM     16  C4  <0> d           0.689   3.125   0.012  0.00  0.00     0.718 A 
BRANCH  16  17
ATOM     17  N4  <0> d           1.529   4.224   0.010  0.00  0.00    -0.231 N 
ATOM     18  H9  <0> d           2.491   4.099   0.000  0.00  0.00     0.174 HD
ATOM     19  H10 <0> d           1.157   5.120   0.018  0.00  0.00     0.174 HD
ENDBRANCH  16  17
ENDBRANCH   1  11
TORSDOF 4
