REMARK  3 active torsions:
REMARK  status: ('A' for Active; 'I' for Inactive)
REMARK    1  A    between atoms: C1_1  and  C2_2 
REMARK    2  A    between atoms: C3_3  and  C6_9 
REMARK    3  A    between atoms: C6_9  and  C7_11 
ROOT
ATOM      1  C2  <0> d           1.339   2.069  -0.005  0.00  0.00     0.050 A 
ATOM      2  C3  <0> d           0.082   1.504   0.261  0.00  0.00     0.049 A 
ATOM      3  C4  <0> d          -0.031   0.105   0.248  0.00  0.00    -0.004 A 
ATOM      4  N1  <0> d           1.040  -0.620  -0.012  0.00  0.00    -0.328 N 
ATOM      5  C5  <0> d           2.208  -0.046  -0.259  0.00  0.00     0.277 A 
ATOM      6  N2  <0> d           2.359   1.270  -0.256  0.00  0.00    -0.211 NA
ATOM      7  O1  <0> d           3.280  -0.828  -0.521  0.00  0.00    -0.149 OA
ATOM      8  H4  <0> d          -0.980  -0.370   0.448  0.00  0.00     0.113 H 
ATOM      9  H8  <0> d           0.970  -1.718  -0.026  0.00  0.00     0.169 HD
ENDROOT
BRANCH   2  10
ATOM     10  C6  <0> d          -1.083   2.353   0.540  0.00  0.00     0.159 C 
ATOM     11  O2  <0> d          -0.947   3.553   0.654  0.00  0.00    -0.293 OA
BRANCH  10  12
ATOM     12  C7  <0> d          -2.450   1.734   0.685  0.00  0.00    -0.016 C 
ATOM     13  H5  <0> d          -3.189   2.521   0.890  0.00  0.00     0.038 H 
ATOM     14  H6  <0> d          -2.440   1.014   1.517  0.00  0.00     0.038 H 
ATOM     15  H7  <0> d          -2.717   1.213  -0.246  0.00  0.00     0.038 H 
ENDBRANCH  10  12
ENDBRANCH   2  10
BRANCH   1  16
ATOM     16  C1  <0> d           1.521   3.565  -0.006  0.00  0.00    -0.034 C 
ATOM     17  H1  <0> d           0.561   4.051   0.223  0.00  0.00     0.035 H 
ATOM     18  H2  <0> d           1.870   3.892  -0.996  0.00  0.00     0.035 H 
ATOM     19  H3  <0> d           2.264   3.845   0.756  0.00  0.00     0.035 H 
ENDBRANCH   1  16
TORSDOF 3
