REMARK  3 active torsions:
REMARK  status: ('A' for Active; 'I' for Inactive)
REMARK    1  A    between atoms: C1_1  and  O1_2 
REMARK    2  A    between atoms: O1_2  and  C2_3 
REMARK    3  A    between atoms: C2_3  and  C3_5 
ROOT
ATOM      1  C3  <0> d           0.659  -2.075  -1.122  0.00  0.00     0.140 A 
ATOM      2  C4  <0> d           1.273  -2.731  -2.187  0.00  0.00    -0.041 A 
ATOM      3  C5  <0> d           1.238  -4.082  -2.100  0.00  0.00    -0.025 A 
ATOM      4  S1  <0> d           0.420  -4.354  -0.662  0.00  0.00    -0.000 SA
ATOM      5  N1  <0> d           0.137  -2.838  -0.183  0.00  0.00    -0.206 NA
ATOM      6  H4  <0> d           1.737  -2.208  -3.010  0.00  0.00     0.088 H 
ATOM      7  H5  <0> d           1.639  -4.809  -2.790  0.00  0.00     0.097 H 
ENDROOT
BRANCH   1   8
ATOM      8  C2  <0> d           0.601  -0.602  -1.047  0.00  0.00     0.312 C 
ATOM      9  O2  <0> d           1.093   0.071  -1.930  0.00  0.00    -0.258 OA
BRANCH   8  10
ATOM     10  O1  <0> d           0.002  -0.004   0.002  0.00  0.00    -0.321 OA
BRANCH  10  11
ATOM     11  C1  <0> d          -0.017   1.425   0.010  0.00  0.00     0.013 C 
ATOM     12  H1  <0> d           1.005   1.802   0.002  0.00  0.00     0.067 H 
ATOM     13  H2  <0> d          -0.544   1.786  -0.873  0.00  0.00     0.067 H 
ATOM     14  H3  <0> d          -0.527   1.776   0.907  0.00  0.00     0.067 H 
ENDBRANCH  10  11
ENDBRANCH   8  10
ENDBRANCH   1   8
TORSDOF 3
