REMARK  3 active torsions:
REMARK  status: ('A' for Active; 'I' for Inactive)
REMARK    1  A    between atoms: C3_3  and  C4_4 
REMARK    2  A    between atoms: C4_4  and  C5_5 
REMARK    3  A    between atoms: C6_8  and  N3_10 
ROOT
ATOM      1  C4  <0> d          -0.408  -0.709  -1.292  0.00  0.00     0.002 C 
ATOM      2  H6  <0> d          -1.398  -0.366  -1.595  0.00  0.00     0.046 H 
ATOM      3  H7  <0> d           0.312  -0.477  -2.077  0.00  0.00     0.046 H 
ENDROOT
BRANCH   1   4
ATOM      4  C3  <0> d           0.002  -0.004   0.002  0.00  0.00    -0.047 A 
ATOM      5  C1  <0> d          -0.019   1.526   0.010  0.00  0.00    -0.061 A 
ATOM      6  C2  <0> d           1.317   0.779  -0.006  0.00  0.00    -0.061 A 
ATOM      7  H1  <0> d          -0.307   2.020   0.938  0.00  0.00     0.033 H 
ATOM      8  H2  <0> d          -0.325   2.030  -0.906  0.00  0.00     0.033 H 
ATOM      9  H3  <0> d           1.889   0.792  -0.934  0.00  0.00     0.033 H 
ATOM     10  H4  <0> d           1.906   0.782   0.910  0.00  0.00     0.033 H 
ATOM     11  H5  <0> d          -0.273  -0.516   0.924  0.00  0.00     0.040 H 
ENDBRANCH   1   4
BRANCH   1  12
ATOM     12  C5  <0> d          -0.442  -2.198  -1.064  0.00  0.00     0.171 A 
ATOM     13  O1  <0> d           0.585  -3.053  -1.238  0.00  0.00    -0.260 OA
ATOM     14  C6  <0> d           0.118  -4.275  -0.920  0.00  0.00     0.265 A 
ATOM     15  N2  <0> d          -1.141  -4.134  -0.582  0.00  0.00    -0.104 NA
ATOM     16  N1  <0> d          -1.468  -2.893  -0.670  0.00  0.00    -0.125 NA
BRANCH  14  17
ATOM     17  N3  <0> d           0.831  -5.459  -0.951  0.00  0.00    -0.362 N 
ATOM     18  H8  <0> d           0.398  -6.292  -0.706  0.00  0.00     0.159 HD
ATOM     19  H9  <0> d           1.764  -5.457  -1.217  0.00  0.00     0.159 HD
ENDBRANCH  14  17
ENDBRANCH   1  12
TORSDOF 3
