REMARK  1 active torsions:
REMARK  status: ('A' for Active; 'I' for Inactive)
REMARK    1  A    between atoms: C2_3  and  C3_6 
ROOT
ATOM      1  C1  <0> d           1.268  -0.339  -0.012  0.00  0.00     0.130 A 
ATOM      2  N1  <0> d           0.002  -0.004   0.002  0.00  0.00    -0.207 NA
ATOM      3  C2  <0> d          -0.016   1.348   0.009  0.00  0.00     0.255 A 
ATOM      4  N2  <0> d           1.227   1.751  -0.000  0.00  0.00    -0.100 NA
ATOM      5  O1  <0> d           1.975   0.796  -0.013  0.00  0.00    -0.204 OA
ATOM      6  H1  <0> d           1.666  -1.342  -0.021  0.00  0.00     0.159 H 
ENDROOT
BRANCH   3   7
ATOM      7  C3  <0> d          -1.222   2.213   0.020  0.00  0.00     0.251 C 
ATOM      8  O2  <0> d          -2.328   1.712   0.023  0.00  0.00    -0.642 OA
ATOM      9  O3  <0> d          -1.090   3.553   0.027  0.00  0.00    -0.642 OA
ENDBRANCH   3   7
TORSDOF 1
