REMARK  3 active torsions:
REMARK  status: ('A' for Active; 'I' for Inactive)
REMARK    1  A    between atoms: C1_1  and  N5_10 
REMARK    2  A    between atoms: C2_2  and  N4_9 
REMARK    3  A    between atoms: C4_6  and  N3_7 
ROOT
ATOM      1  C1  <0> d          -2.428   0.940   0.018  0.00  0.00     0.105 A 
ATOM      2  C2  <0> d          -3.619   1.667   0.028  0.00  0.00     0.135 A 
ATOM      3  N1  <0> d          -3.565   2.997   0.035  0.00  0.00    -0.192 NA
ATOM      4  C3  <0> d          -2.403   3.628   0.033  0.00  0.00     0.280 A 
ATOM      5  N2  <0> d          -1.253   2.975   0.029  0.00  0.00    -0.307 N 
ATOM      6  C4  <0> d          -1.224   1.644   0.016  0.00  0.00     0.111 A 
ATOM      7  O1  <0> d          -2.390   4.984   0.040  0.00  0.00    -0.149 OA
ATOM      8  H3  <0> d          -0.394   3.487   0.034  0.00  0.00     0.170 HD
ENDROOT
BRANCH   1   9
ATOM      9  N5  <0> d          -2.442  -0.467   0.011  0.00  0.00    -0.394 N 
ATOM     10  H6  <0> d          -1.607  -0.960   0.004  0.00  0.00     0.156 HD
ATOM     11  H7  <0> d          -3.287  -0.944   0.012  0.00  0.00     0.156 HD
ENDBRANCH   1   9
BRANCH   2  12
ATOM     12  N4  <0> d          -4.845   1.012   0.031  0.00  0.00    -0.285 NA
ATOM     13  H5  <0> d          -5.668   1.524   0.038  0.00  0.00     0.125 HD
ATOM     14  H4  <0> d          -4.921   0.444  -0.788  0.00  0.00     0.125 HD
ENDBRANCH   2  12
BRANCH   6  15
ATOM     15  N3  <0> d          -0.011   0.966   0.006  0.00  0.00    -0.287 NA
ATOM     16  H1  <0> d           0.056   0.391   0.822  0.00  0.00     0.125 HD
ATOM     17  H2  <0> d           0.822   1.462   0.001  0.00  0.00     0.125 HD
ENDBRANCH   6  15
TORSDOF 3
