REMARK  9 active torsions:
REMARK  status: ('A' for Active; 'I' for Inactive)
REMARK    1  A    between atoms: C1_1  and  C2_2 
REMARK    2  A    between atoms: C2_2  and  C3_3 
REMARK    3  A    between atoms: C3_3  and  C4_4 
REMARK    4  A    between atoms: C4_4  and  C5_5 
REMARK    5  A    between atoms: C5_5  and  C6_7 
REMARK    6  A    between atoms: C5_5  and  C8_9 
REMARK    7  A    between atoms: C6_7  and  C7_8 
REMARK    8  A    between atoms: C8_9  and  C9_11 
REMARK    9  A    between atoms: C8_9  and  O1_12 
ROOT
ATOM      1  C5  <0> d           2.483   1.065   1.042  0.00  0.00    -0.030 C 
ATOM      2  H1  <0> d           3.570   1.050   1.123  0.00  0.00     0.043 H 
ENDROOT
BRANCH   1   3
ATOM      3  C4  <0> d           1.897   1.874   2.201  0.00  0.00    -0.059 C 
ATOM      4  H10 <0> d           1.965   2.937   1.972  0.00  0.00     0.033 H 
ATOM      5  H11 <0> d           0.851   1.599   2.343  0.00  0.00     0.033 H 
BRANCH   3   6
ATOM      6  C3  <0> d           2.681   1.575   3.480  0.00  0.00    -0.065 C 
ATOM      7  H8  <0> d           2.613   0.512   3.708  0.00  0.00     0.033 H 
ATOM      8  H9  <0> d           3.727   1.849   3.337  0.00  0.00     0.033 H 
BRANCH   6   9
ATOM      9  C2  <0> d           2.095   2.385   4.638  0.00  0.00    -0.069 C 
ATOM     10  H6  <0> d           2.164   3.449   4.410  0.00  0.00     0.032 H 
ATOM     11  H7  <0> d           1.050   2.111   4.781  0.00  0.00     0.032 H 
BRANCH   9  12
ATOM     12  C1  <0> d           2.880   2.087   5.917  0.00  0.00    -0.077 C 
ATOM     13  H3  <0> d           3.925   2.361   5.774  0.00  0.00     0.027 H 
ATOM     14  H4  <0> d           2.462   2.663   6.742  0.00  0.00     0.027 H 
ATOM     15  H5  <0> d           2.811   1.023   6.146  0.00  0.00     0.027 H 
ENDBRANCH   9  12
ENDBRANCH   6   9
ENDBRANCH   3   6
ENDBRANCH   1   3
BRANCH   1  16
ATOM     16  C6  <0> d           1.948  -0.368   1.098  0.00  0.00    -0.063 C 
ATOM     17  H12 <0> d           0.859  -0.348   1.141  0.00  0.00     0.033 H 
ATOM     18  H13 <0> d           2.267  -0.910   0.208  0.00  0.00     0.033 H 
BRANCH  16  19
ATOM     19  C7  <0> d           2.494  -1.067   2.345  0.00  0.00    -0.076 C 
ATOM     20  H14 <0> d           1.917  -0.758   3.217  0.00  0.00     0.027 H 
ATOM     21  H15 <0> d           2.413  -2.147   2.220  0.00  0.00     0.027 H 
ATOM     22  H16 <0> d           3.540  -0.795   2.486  0.00  0.00     0.027 H 
ENDBRANCH  16  19
ENDBRANCH   1  16
BRANCH   1  23
ATOM     23  C8  <0> d           2.078   1.708  -0.286  0.00  0.00     0.035 C 
ATOM     24  H2  <0> d           2.378   2.756  -0.288  0.00  0.00     0.082 H 
BRANCH  23  25
ATOM     25  C9  <0> d           2.771   0.978  -1.438  0.00  0.00    -0.052 C 
ATOM     26  H17 <0> d           2.556   1.492  -2.375  0.00  0.00     0.030 H 
ATOM     27  H18 <0> d           3.847   0.968  -1.268  0.00  0.00     0.030 H 
ATOM     28  H19 <0> d           2.402  -0.047  -1.493  0.00  0.00     0.030 H 
ENDBRANCH  23  25
BRANCH  23  29
ATOM     29  O1  <0> d           0.661   1.617  -0.447  0.00  0.00    -0.396 OA
ATOM     30  H20 <0> d           0.324   0.711  -0.454  0.00  0.00     0.210 HD
ENDBRANCH  23  29
ENDBRANCH   1  23
TORSDOF 9
