REMARK  10 active torsions:
REMARK  status: ('A' for Active; 'I' for Inactive)
REMARK    1  A    between atoms: C1_1  and  C2_2 
REMARK    2  A    between atoms: C2_2  and  C3_3 
REMARK    3  A    between atoms: C3_3  and  C4_5 
REMARK    4  A    between atoms: C3_3  and  O1_12 
REMARK    5  A    between atoms: C4_5  and  C5_6 
REMARK    6  A    between atoms: C5_6  and  C6_7 
REMARK    7  A    between atoms: C6_7  and  C7_8 
REMARK    8  A    between atoms: C6_7  and  C9_10 
REMARK    9  A    between atoms: C7_8  and  C8_9 
REMARK   10  A    between atoms: C9_10  and  C10_11 
ROOT
ATOM      1  C5  <0> d           1.099  -2.486  -2.245  0.00  0.00    -0.059 C 
ATOM      2  H9  <0> d           0.579  -1.924  -3.021  0.00  0.00     0.033 H 
ATOM      3  H10 <0> d           2.129  -2.136  -2.171  0.00  0.00     0.033 H 
ENDROOT
BRANCH   1   4
ATOM      4  C4  <0> d           0.392  -2.277  -0.904  0.00  0.00    -0.041 C 
ATOM      5  H7  <0> d           0.912  -2.839  -0.128  0.00  0.00     0.036 H 
ATOM      6  H8  <0> d          -0.638  -2.627  -0.978  0.00  0.00     0.036 H 
BRANCH   4   7
ATOM      7  C3  <0> d           0.401  -0.789  -0.549  0.00  0.00     0.035 C 
ATOM      8  H1  <0> d          -0.040  -0.218  -1.366  0.00  0.00     0.082 H 
BRANCH   7   9
ATOM      9  C2  <0> d          -0.413  -0.564   0.727  0.00  0.00    -0.044 C 
ATOM     10  H5  <0> d           0.077  -1.063   1.563  0.00  0.00     0.036 H 
ATOM     11  H6  <0> d          -1.414  -0.974   0.596  0.00  0.00     0.036 H 
BRANCH   9  12
ATOM     12  C1  <0> d          -0.508   0.935   1.013  0.00  0.00    -0.074 C 
ATOM     13  H2  <0> d           0.493   1.345   1.144  0.00  0.00     0.027 H 
ATOM     14  H3  <0> d          -0.999   1.434   0.177  0.00  0.00     0.027 H 
ATOM     15  H4  <0> d          -1.088   1.096   1.922  0.00  0.00     0.027 H 
ENDBRANCH   9  12
ENDBRANCH   7   9
BRANCH   7  16
ATOM     16  O1  <0> d           1.747  -0.358  -0.338  0.00  0.00    -0.396 OA
ATOM     17  H22 <0> d           2.202  -0.825   0.377  0.00  0.00     0.210 HD
ENDBRANCH   7  16
ENDBRANCH   4   7
ENDBRANCH   1   4
BRANCH   1  18
ATOM     18  C6  <0> d           1.090  -3.974  -2.600  0.00  0.00    -0.055 C 
ATOM     19  H11 <0> d           1.531  -4.545  -1.783  0.00  0.00     0.040 H 
BRANCH  18  20
ATOM     20  C7  <0> d          -0.351  -4.436  -2.826  0.00  0.00    -0.065 C 
ATOM     21  H12 <0> d          -0.955  -4.183  -1.954  0.00  0.00     0.033 H 
ATOM     22  H13 <0> d          -0.758  -3.939  -3.707  0.00  0.00     0.033 H 
BRANCH  20  23
ATOM     23  C8  <0> d          -0.374  -5.951  -3.039  0.00  0.00    -0.076 C 
ATOM     24  H14 <0> d           0.249  -6.207  -3.897  0.00  0.00     0.027 H 
ATOM     25  H15 <0> d           0.012  -6.449  -2.149  0.00  0.00     0.027 H 
ATOM     26  H16 <0> d          -1.397  -6.277  -3.223  0.00  0.00     0.027 H 
ENDBRANCH  20  23
ENDBRANCH  18  20
BRANCH  18  27
ATOM     27  C9  <0> d           1.904  -4.199  -3.876  0.00  0.00    -0.065 C 
ATOM     28  H17 <0> d           1.825  -5.243  -4.178  0.00  0.00     0.033 H 
ATOM     29  H18 <0> d           1.517  -3.561  -4.671  0.00  0.00     0.033 H 
BRANCH  27  30
ATOM     30  C10 <0> d           3.371  -3.853  -3.613  0.00  0.00    -0.076 C 
ATOM     31  H19 <0> d           3.465  -2.782  -3.431  0.00  0.00     0.027 H 
ATOM     32  H20 <0> d           3.722  -4.402  -2.739  0.00  0.00     0.027 H 
ATOM     33  H21 <0> d           3.970  -4.129  -4.481  0.00  0.00     0.027 H 
ENDBRANCH  27  30
ENDBRANCH  18  27
ENDBRANCH   1  18
TORSDOF 10
