REMARK  3 active torsions:
REMARK  status: ('A' for Active; 'I' for Inactive)
REMARK    1  A    between atoms: C1_1  and  C2_2 
REMARK    2  A    between atoms: C4_4  and  N2_7 
REMARK       I    between atoms: N2_7  and  C5_8 
REMARK    3  A    between atoms: C5_8  and  C6_10 
ROOT
ATOM      1  C2  <0> d           1.086   1.959   0.002  0.00  0.00     0.062 A 
ATOM      2  C3  <0> d          -0.013   1.076   0.008  0.00  0.00    -0.006 A 
ATOM      3  C4  <0> d          -1.099   1.902   0.017  0.00  0.00     0.177 A 
ATOM      4  O1  <0> d          -0.618   3.155   0.024  0.00  0.00    -0.195 OA
ATOM      5  N1  <0> d           0.591   3.165   0.013  0.00  0.00    -0.131 NA
ATOM      6  H4  <0> d           0.002  -0.004   0.002  0.00  0.00     0.093 H 
ENDROOT
BRANCH   3   7
ATOM      7  N2  <0> d          -2.434   1.523   0.020  0.00  0.00    -0.306 N 
ATOM      8  C5  <0> d          -3.401   2.462   0.029  0.00  0.00     0.219 C 
ATOM      9  O2  <0> d          -3.104   3.638   0.034  0.00  0.00    -0.274 OA
ATOM     10  H5  <0> d          -2.671   0.583   0.016  0.00  0.00     0.171 HD
BRANCH   8  11
ATOM     11  C6  <0> d          -4.850   2.050   0.033  0.00  0.00    -0.002 C 
ATOM     12  H6  <0> d          -5.196   1.945   1.062  0.00  0.00     0.040 H 
ATOM     13  H7  <0> d          -5.445   2.809  -0.474  0.00  0.00     0.040 H 
ATOM     14  H8  <0> d          -4.959   1.097  -0.485  0.00  0.00     0.040 H 
ENDBRANCH   8  11
ENDBRANCH   3   7
BRANCH   1  15
ATOM     15  C1  <0> d           2.545   1.583  -0.013  0.00  0.00    -0.033 C 
ATOM     16  H1  <0> d           2.888   1.498  -1.044  0.00  0.00     0.035 H 
ATOM     17  H2  <0> d           3.123   2.352   0.500  0.00  0.00     0.035 H 
ATOM     18  H3  <0> d           2.679   0.629   0.496  0.00  0.00     0.035 H 
ENDBRANCH   1  15
TORSDOF 3
