REMARK  2 active torsions:
REMARK  status: ('A' for Active; 'I' for Inactive)
REMARK    1  A    between atoms: C4_4  and  C7_7 
REMARK    2  A    between atoms: C7_7  and  C8_8 
ROOT
ATOM      1  C8  <0> d          -0.018   1.468   0.010  0.00  0.00     0.015 C 
ATOM      2  C9  <0> d           0.002  -0.004   0.002  0.00  0.00     0.059 C 
ATOM      3  N1  <0> d           0.018  -1.140  -0.004  0.00  0.00    -0.197 NA
ATOM      4  H14 <0> d          -0.533   1.823   0.915  0.00  0.00     0.054 H 
ATOM      5  H15 <0> d          -0.550   1.832  -0.881  0.00  0.00     0.054 H 
ENDROOT
BRANCH   1   6
ATOM      6  C7  <0> d           1.417   1.997  -0.001  0.00  0.00    -0.050 C 
ATOM      7  H12 <0> d           1.932   1.643  -0.906  0.00  0.00     0.034 H 
ATOM      8  H13 <0> d           1.950   1.633   0.890  0.00  0.00     0.034 H 
BRANCH   6   9
ATOM      9  C4  <0> d           1.397   3.527   0.008  0.00  0.00    -0.053 C 
ATOM     10  C3  <0> d           2.828   4.056   0.123  0.00  0.00    -0.062 C 
ATOM     11  C2  <0> d           2.807   5.586   0.131  0.00  0.00    -0.065 C 
ATOM     12  H5  <0> d           3.419   3.702  -0.735  0.00  0.00     0.033 H 
ATOM     13  H6  <0> d           3.280   3.690   1.056  0.00  0.00     0.033 H 
ATOM     14  C1  <0> d           2.178   6.095  -1.168  0.00  0.00    -0.065 C 
ATOM     15  H3  <0> d           3.836   5.966   0.214  0.00  0.00     0.033 H 
ATOM     16  H4  <0> d           2.216   5.940   0.988  0.00  0.00     0.033 H 
ATOM     17  C6  <0> d           0.747   5.566  -1.283  0.00  0.00    -0.065 C 
ATOM     18  H1  <0> d           2.770   5.740  -2.025  0.00  0.00     0.033 H 
ATOM     19  H2  <0> d           2.163   7.194  -1.162  0.00  0.00     0.033 H 
ATOM     20  C5  <0> d           0.768   4.036  -1.291  0.00  0.00    -0.062 C 
ATOM     21  H10 <0> d           0.155   5.920  -0.425  0.00  0.00     0.033 H 
ATOM     22  H11 <0> d           0.295   5.931  -2.216  0.00  0.00     0.033 H 
ATOM     23  H8  <0> d           1.359   3.682  -2.148  0.00  0.00     0.033 H 
ATOM     24  H9  <0> d          -0.261   3.656  -1.374  0.00  0.00     0.033 H 
ATOM     25  H7  <0> d           0.805   3.881   0.865  0.00  0.00     0.040 H 
ENDBRANCH   6   9
ENDBRANCH   1   6
TORSDOF 2
