REMARK  4 active torsions:
REMARK  status: ('A' for Active; 'I' for Inactive)
REMARK    1  A    between atoms: C1_1  and  C2_2 
REMARK    2  A    between atoms: C2_2  and  C3_3 
REMARK    3  A    between atoms: C2_2  and  C4_4 
REMARK    4  A    between atoms: C4_4  and  C5_6 
ROOT
ATOM      1  C5  <0> d           2.505   0.804   0.635  0.00  0.00     0.070 C 
ATOM      2  C6  <0> d           3.781   1.525   0.492  0.00  0.00     0.066 C 
ATOM      3  N1  <0> d           4.766   2.080   0.382  0.00  0.00    -0.197 NA
ATOM      4  H8  <0> d           2.304   0.673   1.606  0.00  0.00     0.066 H 
ATOM      5  H9  <0> d           2.579  -0.166   0.144  0.00  0.00     0.066 H 
ENDROOT
BRANCH   1   6
ATOM      6  C4  <0> d           1.401   1.607  -0.003  0.00  0.00     0.143 C 
ATOM      7  O1  <0> d           1.649   2.669  -0.522  0.00  0.00    -0.297 OA
BRANCH   6   8
ATOM      8  C2  <0> d          -0.013   1.086   0.008  0.00  0.00    -0.002 C 
ATOM      9  H4  <0> d           0.001   0.086   0.002  0.00  0.00     0.050 H 
BRANCH   8  10
ATOM     10  C1  <0> d          -0.753   1.593  -1.232  0.00  0.00    -0.067 C 
ATOM     11  H1  <0> d          -0.242   1.241  -2.128  0.00  0.00     0.028 H 
ATOM     12  H2  <0> d          -1.775   1.215  -1.224  0.00  0.00     0.028 H 
ATOM     13  H3  <0> d          -0.767   2.683  -1.226  0.00  0.00     0.028 H 
ENDBRANCH   8  10
BRANCH   8  14
ATOM     14  C3  <0> d          -0.729   1.579   1.267  0.00  0.00    -0.067 C 
ATOM     15  H5  <0> d          -1.751   1.202   1.275  0.00  0.00     0.028 H 
ATOM     16  H6  <0> d          -0.202   1.218   2.150  0.00  0.00     0.028 H 
ATOM     17  H7  <0> d          -0.744   2.669   1.273  0.00  0.00     0.028 H 
ENDBRANCH   8  14
ENDBRANCH   6   8
ENDBRANCH   1   6
TORSDOF 4
