REMARK  3 active torsions:
REMARK  status: ('A' for Active; 'I' for Inactive)
REMARK    1  A    between atoms: C1_1  and  C2_2 
REMARK    2  A    between atoms: C2_2  and  C3_3 
REMARK    3  A    between atoms: C7_7  and  C10_11 
ROOT
ATOM      1  C3  <0> d           1.167   2.088   0.002  0.00  0.00    -0.037 A 
ATOM      2  C4  <0> d          -0.017   1.379   0.010  0.00  0.00    -0.075 A 
ATOM      3  C5  <0> d           0.002  -0.004   0.002  0.00  0.00    -0.082 A 
ATOM      4  C6  <0> d           1.206  -0.686  -0.013  0.00  0.00    -0.076 A 
ATOM      5  C7  <0> d           2.397   0.010  -0.020  0.00  0.00    -0.041 A 
ATOM      6  C8  <0> d           2.385   1.407  -0.013  0.00  0.00     0.056 A 
ATOM      7  C9  <0> d           3.617   2.136  -0.021  0.00  0.00     0.100 C 
ATOM      8  N1  <0> d           4.595   2.715  -0.028  0.00  0.00    -0.191 NA
ATOM      9  H6  <0> d          -0.960   1.905   0.017  0.00  0.00     0.084 H 
ATOM     10  H7  <0> d          -0.927  -0.554   0.008  0.00  0.00     0.083 H 
ATOM     11  H8  <0> d           1.214  -1.766  -0.018  0.00  0.00     0.084 H 
ENDROOT
BRANCH   1  12
ATOM     12  C2  <0> d           1.144   3.595   0.011  0.00  0.00    -0.043 C 
ATOM     13  H4  <0> d           0.212   3.942   0.456  0.00  0.00     0.039 H 
ATOM     14  H5  <0> d           1.986   3.968   0.594  0.00  0.00     0.039 H 
BRANCH  12  15
ATOM     15  C1  <0> d           1.248   4.115  -1.424  0.00  0.00    -0.073 C 
ATOM     16  H1  <0> d           0.406   3.743  -2.008  0.00  0.00     0.028 H 
ATOM     17  H2  <0> d           1.232   5.205  -1.418  0.00  0.00     0.028 H 
ATOM     18  H3  <0> d           2.181   3.768  -1.870  0.00  0.00     0.028 H 
ENDBRANCH  12  15
ENDBRANCH   1  12
BRANCH   5  19
ATOM     19  C10 <0> d           3.707  -0.734  -0.036  0.00  0.00    -0.050 C 
ATOM     20  H9  <0> d           4.013  -0.909  -1.067  0.00  0.00     0.033 H 
ATOM     21  H10 <0> d           4.467  -0.142   0.474  0.00  0.00     0.033 H 
ATOM     22  H11 <0> d           3.588  -1.690   0.475  0.00  0.00     0.033 H 
ENDBRANCH   5  19
TORSDOF 3
