REMARK  3 active torsions:
REMARK  status: ('A' for Active; 'I' for Inactive)
REMARK    1  A    between atoms: C1_1  and  C2_2 
REMARK    2  A    between atoms: C2_2  and  O1_3 
REMARK    3  A    between atoms: O1_3  and  C3_4 
ROOT
ATOM      1  C3  <0> d           1.137  -0.683  -0.012  0.00  0.00     0.165 A 
ATOM      2  C4  <0> d           2.358  -0.022  -0.021  0.00  0.00    -0.011 A 
ATOM      3  C5  <0> d           2.373   1.363  -0.014  0.00  0.00     0.039 A 
ATOM      4  C6  <0> d           1.159   2.039   0.002  0.00  0.00    -0.045 A 
ATOM      5  C7  <0> d          -0.016   1.316   0.009  0.00  0.00     0.006 A 
ATOM      6  N1  <0> d           0.002  -0.004   0.002  0.00  0.00    -0.237 NA
ATOM      7 Cl1  <0> d           3.875   2.235  -0.023  0.00  0.00    -0.084 Cl
ATOM      8  H6  <0> d           3.283  -0.580  -0.033  0.00  0.00     0.092 H 
ATOM      9  H7  <0> d           1.135   3.119   0.008  0.00  0.00     0.088 H 
ATOM     10  H8  <0> d          -0.962   1.836   0.017  0.00  0.00     0.114 H 
ENDROOT
BRANCH   1  11
ATOM     11  O1  <0> d           1.108  -2.040  -0.019  0.00  0.00    -0.335 OA
BRANCH  11  12
ATOM     12  C2  <0> d          -0.179  -2.661  -0.011  0.00  0.00     0.024 C 
ATOM     13  H4  <0> d          -0.721  -2.361   0.886  0.00  0.00     0.074 H 
ATOM     14  H5  <0> d          -0.738  -2.352  -0.894  0.00  0.00     0.074 H 
BRANCH  12  15
ATOM     15  C1  <0> d          -0.011  -4.182  -0.020  0.00  0.00    -0.056 C 
ATOM     16  H1  <0> d           0.531  -4.482  -0.917  0.00  0.00     0.030 H 
ATOM     17  H2  <0> d           0.548  -4.491   0.863  0.00  0.00     0.030 H 
ATOM     18  H3  <0> d          -0.992  -4.656  -0.013  0.00  0.00     0.030 H 
ENDBRANCH  12  15
ENDBRANCH  11  12
ENDBRANCH   1  11
TORSDOF 3
