REMARK  3 active torsions:
REMARK  status: ('A' for Active; 'I' for Inactive)
REMARK    1  A    between atoms: C1_1  and  C2_2 
REMARK    2  A    between atoms: C2_2  and  O1_3 
REMARK    3  A    between atoms: O1_3  and  C3_4 
ROOT
ATOM      1  C3  <0> d          -1.018   3.070  -1.100  0.00  0.00     0.042 C 
ATOM      2  C4  <0> d          -0.947   3.728   0.021  0.00  0.00    -0.075 C 
ATOM      3  C5  <0> d          -0.591   3.105   1.339  0.00  0.00    -0.048 C 
ATOM      4  C6  <0> d          -0.739   1.585   1.264  0.00  0.00    -0.062 C 
ATOM      5  C7  <0> d          -0.013   1.086   0.008  0.00  0.00    -0.059 C 
ATOM      6  C8  <0> d          -0.761   1.597  -1.225  0.00  0.00    -0.021 C 
ATOM      7  H6  <0> d          -1.158   4.787   0.001  0.00  0.00     0.080 H 
ATOM      8  H7  <0> d           0.442   3.352   1.587  0.00  0.00     0.038 H 
ATOM      9  H8  <0> d          -1.252   3.494   2.113  0.00  0.00     0.038 H 
ATOM     10  H9  <0> d          -1.796   1.326   1.202  0.00  0.00     0.033 H 
ATOM     11  H10 <0> d          -0.297   1.127   2.148  0.00  0.00     0.033 H 
ATOM     12  H11 <0> d           0.002  -0.004   0.002  0.00  0.00     0.033 H 
ATOM     13  H12 <0> d           1.009   1.466   0.000  0.00  0.00     0.033 H 
ATOM     14  H13 <0> d          -0.161   1.409  -2.115  0.00  0.00     0.043 H 
ATOM     15  H14 <0> d          -1.712   1.073  -1.313  0.00  0.00     0.043 H 
ENDROOT
BRANCH   1  16
ATOM     16  O1  <0> d          -1.343   3.758  -2.224  0.00  0.00    -0.356 OA
BRANCH  16  17
ATOM     17  C2  <0> d          -1.582   5.159  -2.080  0.00  0.00     0.022 C 
ATOM     18  H4  <0> d          -2.411   5.317  -1.390  0.00  0.00     0.074 H 
ATOM     19  H5  <0> d          -0.687   5.643  -1.689  0.00  0.00     0.074 H 
BRANCH  17  20
ATOM     20  C1  <0> d          -1.932   5.759  -3.443  0.00  0.00    -0.056 C 
ATOM     21  H1  <0> d          -1.103   5.601  -4.133  0.00  0.00     0.030 H 
ATOM     22  H2  <0> d          -2.828   5.276  -3.834  0.00  0.00     0.030 H 
ATOM     23  H3  <0> d          -2.115   6.828  -3.333  0.00  0.00     0.030 H 
ENDBRANCH  17  20
ENDBRANCH  16  17
ENDBRANCH   1  16
TORSDOF 3
