REMARK  2 active torsions:
REMARK  status: ('A' for Active; 'I' for Inactive)
REMARK    1  A    between atoms: C3_3  and  C5_5 
REMARK    2  A    between atoms: C5_5  and  C6_6 
ROOT
ATOM      1  C1  <0> d          -1.722   5.376   0.948  0.00  0.00    -0.064 C 
ATOM      2  C2  <0> d          -2.352   4.427  -0.086  0.00  0.00    -0.061 C 
ATOM      3  C3  <0> d          -1.072   3.582   0.027  0.00  0.00    -0.045 C 
ATOM      4  C4  <0> d          -0.901   4.171   1.437  0.00  0.00    -0.061 C 
ATOM      5  H1  <0> d          -1.116   6.165   0.503  0.00  0.00     0.033 H 
ATOM      6  H2  <0> d          -2.430   5.750   1.687  0.00  0.00     0.033 H 
ATOM      7  H3  <0> d          -2.491   4.881  -1.067  0.00  0.00     0.033 H 
ATOM      8  H4  <0> d          -3.245   3.917   0.276  0.00  0.00     0.033 H 
ATOM      9  H5  <0> d          -0.289   3.880  -0.671  0.00  0.00     0.040 H 
ATOM     10  H6  <0> d          -1.397   3.591   2.215  0.00  0.00     0.033 H 
ATOM     11  H7  <0> d           0.132   4.417   1.684  0.00  0.00     0.033 H 
ENDROOT
BRANCH   3  12
ATOM     12  C5  <0> d          -1.331   2.074   0.020  0.00  0.00     0.019 C 
ATOM     13  H8  <0> d          -1.903   1.808  -0.869  0.00  0.00     0.049 H 
ATOM     14  H9  <0> d          -1.895   1.798   0.911  0.00  0.00     0.049 H 
BRANCH  12  15
ATOM     15  C6  <0> d          -0.016   1.338   0.009  0.00  0.00     0.172 C 
ATOM     16  O1  <0> d           1.022   1.956   0.003  0.00  0.00    -0.648 OA
ATOM     17  O2  <0> d           0.002  -0.004   0.002  0.00  0.00    -0.648 OA
ENDBRANCH  12  15
ENDBRANCH   3  12
TORSDOF 2
