REMARK  4 active torsions:
REMARK  status: ('A' for Active; 'I' for Inactive)
REMARK    1  A    between atoms: C1_1  and  C2_2 
REMARK    2  A    between atoms: C2_2  and  C3_3 
REMARK    3  A    between atoms: C2_2  and  N1_4 
REMARK    4  A    between atoms: C4_5  and  N3_9 
ROOT
ATOM      1  N1  <0> d          -0.698   1.558   1.213  0.00  0.00    -0.251 N 
ATOM      2  C4  <0> d          -1.241   0.780   2.177  0.00  0.00     0.119 A 
ATOM      3  C5  <0> d          -1.775   1.605   3.119  0.00  0.00    -0.021 A 
ATOM      4  C6  <0> d          -1.557   2.922   2.707  0.00  0.00     0.025 A 
ATOM      5  N2  <0> d          -0.913   2.896   1.568  0.00  0.00    -0.183 NA
ATOM      6  H8  <0> d          -2.282   1.296   4.022  0.00  0.00     0.091 H 
ATOM      7  H9  <0> d          -1.866   3.811   3.238  0.00  0.00     0.117 H 
ENDROOT
BRANCH   1   8
ATOM      8  C2  <0> d          -0.013   1.086   0.008  0.00  0.00     0.029 C 
ATOM      9  H4  <0> d           0.002  -0.004   0.002  0.00  0.00     0.074 H 
BRANCH   8  10
ATOM     10  C1  <0> d           1.423   1.615  -0.003  0.00  0.00    -0.056 C 
ATOM     11  H1  <0> d           1.408   2.705   0.003  0.00  0.00     0.030 H 
ATOM     12  H2  <0> d           1.950   1.254   0.880  0.00  0.00     0.030 H 
ATOM     13  H3  <0> d           1.933   1.264  -0.900  0.00  0.00     0.030 H 
ENDBRANCH   8  10
BRANCH   8  14
ATOM     14  C3  <0> d          -0.753   1.593  -1.232  0.00  0.00    -0.056 C 
ATOM     15  H5  <0> d          -0.767   2.683  -1.226  0.00  0.00     0.030 H 
ATOM     16  H6  <0> d          -0.242   1.241  -2.128  0.00  0.00     0.030 H 
ATOM     17  H7  <0> d          -1.775   1.215  -1.224  0.00  0.00     0.030 H 
ENDBRANCH   8  14
ENDBRANCH   1   8
BRANCH   2  18
ATOM     18  N3  <0> d          -1.248  -0.612   2.203  0.00  0.00    -0.384 N 
ATOM     19  H10 <0> d          -0.837  -1.113   1.481  0.00  0.00     0.157 HD
ATOM     20  H11 <0> d          -1.665  -1.081   2.943  0.00  0.00     0.157 HD
ENDBRANCH   2  18
TORSDOF 4
