REMARK  3 active torsions:
REMARK  status: ('A' for Active; 'I' for Inactive)
REMARK    1  A    between atoms: C1_1  and  C2_2 
REMARK    2  A    between atoms: C6_6  and  O1_9 
REMARK    3  A    between atoms: C7_7  and  N1_8 
ROOT
ATOM      1  C2  <0> d          -0.017   1.378   0.010  0.00  0.00    -0.033 A 
ATOM      2  C3  <0> d           0.002  -0.004   0.002  0.00  0.00    -0.075 A 
ATOM      3  C4  <0> d           1.206  -0.682  -0.013  0.00  0.00    -0.080 A 
ATOM      4  C5  <0> d           2.399   0.019  -0.020  0.00  0.00    -0.049 A 
ATOM      5  C6  <0> d           2.389   1.403  -0.013  0.00  0.00     0.092 A 
ATOM      6  C7  <0> d           1.175   2.088   0.002  0.00  0.00     0.065 A 
ATOM      7  H4  <0> d          -0.927  -0.555   0.008  0.00  0.00     0.084 H 
ATOM      8  H5  <0> d           1.216  -1.762  -0.019  0.00  0.00     0.083 H 
ATOM      9  H6  <0> d           3.338  -0.514  -0.031  0.00  0.00     0.087 H 
ENDROOT
BRANCH   1  10
ATOM     10  C1  <0> d          -1.332   2.114   0.020  0.00  0.00    -0.049 C 
ATOM     11  H1  <0> d          -1.644   2.286   1.050  0.00  0.00     0.033 H 
ATOM     12  H2  <0> d          -1.217   3.071  -0.489  0.00  0.00     0.033 H 
ATOM     13  H3  <0> d          -2.086   1.518  -0.494  0.00  0.00     0.033 H 
ENDBRANCH   1  10
BRANCH   6  14
ATOM     14  N1  <0> d           1.159   3.487   0.009  0.00  0.00    -0.396 N 
ATOM     15  H7  <0> d           0.313   3.962   0.020  0.00  0.00     0.156 HD
ATOM     16  H8  <0> d           1.993   3.982   0.004  0.00  0.00     0.156 HD
ENDBRANCH   6  14
BRANCH   5  17
ATOM     17  O1  <0> d           3.561   2.094  -0.019  0.00  0.00    -0.358 OA
ATOM     18  H9  <0> d           3.892   2.298  -0.905  0.00  0.00     0.217 HD
ENDBRANCH   5  17
TORSDOF 3
