REMARK  2 active torsions:
REMARK  status: ('A' for Active; 'I' for Inactive)
REMARK    1  A    between atoms: C1_1  and  N1_2 
REMARK    2  A    between atoms: N1_2  and  C2_3 
ROOT
ATOM      1  C2  <0> d          -0.050   3.844   0.023  0.00  0.00     0.030 A 
ATOM      2  C3  <0> d           1.161   3.163   0.008  0.00  0.00    -0.057 A 
ATOM      3  C4  <0> d           1.176   1.782   0.000  0.00  0.00    -0.078 A 
ATOM      4  C5  <0> d          -0.013   1.076   0.008  0.00  0.00    -0.046 A 
ATOM      5  C6  <0> d          -1.222   1.751   0.017  0.00  0.00     0.118 A 
ATOM      6  C7  <0> d          -1.243   3.134   0.031  0.00  0.00    -0.020 A 
ATOM      7  F1  <0> d          -2.382   1.058   0.019  0.00  0.00    -0.206 F 
ATOM      8  H5  <0> d           2.091   3.713   0.002  0.00  0.00     0.086 H 
ATOM      9  H6  <0> d           2.118   1.253  -0.012  0.00  0.00     0.083 H 
ATOM     10  H7  <0> d           0.002  -0.004   0.002  0.00  0.00     0.088 H 
ATOM     11  H8  <0> d          -2.186   3.660   0.043  0.00  0.00     0.091 H 
ENDROOT
BRANCH   1  12
ATOM     12  N1  <0> d          -0.067   5.241   0.031  0.00  0.00    -0.394 N 
ATOM     13  H4  <0> d           0.767   5.736   0.026  0.00  0.00     0.159 HD
BRANCH  12  14
ATOM     14  C1  <0> d          -1.344   5.957   0.047  0.00  0.00    -0.021 C 
ATOM     15  H1  <0> d          -1.921   5.692  -0.839  0.00  0.00     0.056 H 
ATOM     16  H2  <0> d          -1.904   5.682   0.941  0.00  0.00     0.056 H 
ATOM     17  H3  <0> d          -1.158   7.032   0.052  0.00  0.00     0.056 H 
ENDBRANCH  12  14
ENDBRANCH   1  12
TORSDOF 2
