REMARK  8 active torsions:
REMARK  status: ('A' for Active; 'I' for Inactive)
REMARK    1  A    between atoms: C1_1  and  C2_2 
REMARK    2  A    between atoms: C2_2  and  C3_4 
REMARK    3  A    between atoms: C2_2  and  O3_11 
REMARK    4  A    between atoms: C3_4  and  O1_5 
REMARK    5  A    between atoms: O1_5  and  C4_6 
REMARK    6  A    between atoms: C4_6  and  C5_7 
REMARK    7  A    between atoms: C6_8  and  C7_9 
REMARK    8  A    between atoms: C7_9  and  O2_10 
ROOT
ATOM      1  C3  <0> d          -0.013   1.086   0.008  0.00  0.00     0.044 C 
ATOM      2  H5  <0> d           0.002  -0.004   0.002  0.00  0.00     0.078 H 
ATOM      3  H6  <0> d           1.010   1.463   0.000  0.00  0.00     0.078 H 
ENDROOT
BRANCH   1   4
ATOM      4  C2  <0> d          -0.729   1.579   1.267  0.00  0.00     0.052 C 
ATOM      5  H1  <0> d          -0.154   1.294   2.148  0.00  0.00     0.085 H 
BRANCH   4   6
ATOM      6  C1  <0> d          -0.860   3.103   1.215  0.00  0.00    -0.051 C 
ATOM      7  H2  <0> d          -1.370   3.454   2.112  0.00  0.00     0.031 H 
ATOM      8  H3  <0> d           0.132   3.551   1.162  0.00  0.00     0.031 H 
ATOM      9  H4  <0> d          -1.435   3.388   0.334  0.00  0.00     0.031 H 
ENDBRANCH   4   6
BRANCH   4  10
ATOM     10  O3  <0> d          -2.030   0.991   1.336  0.00  0.00    -0.394 OA
ATOM     11  H12 <0> d          -2.542   1.260   2.111  0.00  0.00     0.210 HD
ENDBRANCH   4  10
ENDBRANCH   1   4
BRANCH   1  12
ATOM     12  O1  <0> d          -0.704   1.559  -1.150  0.00  0.00    -0.377 OA
BRANCH  12  13
ATOM     13  C4  <0> d          -0.114   1.152  -2.386  0.00  0.00     0.074 C 
ATOM     14  H7  <0> d           0.907   1.531  -2.443  0.00  0.00     0.093 H 
ATOM     15  H8  <0> d          -0.101   0.064  -2.442  0.00  0.00     0.093 H 
BRANCH  13  16
ATOM     16  C5  <0> d          -0.901   1.692  -3.506  0.00  0.00    -0.078 C 
ATOM     17  C6  <0> d          -1.529   2.122  -4.400  0.00  0.00    -0.079 C 
BRANCH  17  18
ATOM     18  C7  <0> d          -2.316   2.662  -5.521  0.00  0.00     0.071 C 
ATOM     19  H9  <0> d          -1.866   2.351  -6.464  0.00  0.00     0.093 H 
ATOM     20  H10 <0> d          -3.337   2.283  -5.464  0.00  0.00     0.093 H 
BRANCH  18  21
ATOM     21  O2  <0> d          -2.333   4.088  -5.448  0.00  0.00    -0.389 OA
ATOM     22  H11 <0> d          -2.835   4.513  -6.157  0.00  0.00     0.210 HD
ENDBRANCH  18  21
ENDBRANCH  17  18
ENDBRANCH  13  16
ENDBRANCH  12  13
ENDBRANCH   1  12
TORSDOF 8
