REMARK  4 active torsions:
REMARK  status: ('A' for Active; 'I' for Inactive)
REMARK    1  A    between atoms: C1_1  and  C2_2 
REMARK    2  A    between atoms: C5_5  and  N2_10 
REMARK    3  A    between atoms: C6_6  and  N1_9 
REMARK    4  A    between atoms: C7_7  and  C8_8 
ROOT
ATOM      1  C2  <0> d          -3.631   1.619   0.028  0.00  0.00    -0.054 A 
ATOM      2  C3  <0> d          -3.652   3.001   0.036  0.00  0.00    -0.074 A 
ATOM      3  C4  <0> d          -2.468   3.715   0.034  0.00  0.00    -0.055 A 
ATOM      4  C5  <0> d          -1.254   3.044   0.030  0.00  0.00     0.052 A 
ATOM      5  C6  <0> d          -1.233   1.649   0.017  0.00  0.00     0.058 A 
ATOM      6  C7  <0> d          -2.425   0.942   0.019  0.00  0.00    -0.028 A 
ATOM      7  H4  <0> d          -4.596   3.525   0.043  0.00  0.00     0.084 H 
ATOM      8  H5  <0> d          -2.488   4.795   0.041  0.00  0.00     0.087 H 
ENDROOT
BRANCH   1   9
ATOM      9  C1  <0> d          -4.926   0.848   0.029  0.00  0.00    -0.051 C 
ATOM     10  H1  <0> d          -5.233   0.656   1.058  0.00  0.00     0.033 H 
ATOM     11  H2  <0> d          -5.696   1.429  -0.477  0.00  0.00     0.033 H 
ATOM     12  H3  <0> d          -4.785  -0.100  -0.490  0.00  0.00     0.033 H 
ENDBRANCH   1   9
BRANCH   6  13
ATOM     13  C8  <0> d          -2.408  -0.565   0.011  0.00  0.00    -0.049 C 
ATOM     14  H6  <0> d          -2.399  -0.934   1.037  0.00  0.00     0.033 H 
ATOM     15  H7  <0> d          -3.296  -0.936  -0.501  0.00  0.00     0.033 H 
ATOM     16  H8  <0> d          -1.516  -0.915  -0.509  0.00  0.00     0.033 H 
ENDBRANCH   6  13
BRANCH   5  17
ATOM     17  N1  <0> d          -0.011   0.966   0.007  0.00  0.00    -0.397 N 
ATOM     18  H9  <0> d           0.002  -0.004   0.002  0.00  0.00     0.156 HD
ATOM     19  H10 <0> d           0.822   1.462   0.002  0.00  0.00     0.156 HD
ENDBRANCH   5  17
BRANCH   4  20
ATOM     20  N2  <0> d          -0.054   3.764   0.034  0.00  0.00    -0.397 N 
ATOM     21  H11 <0> d           0.794   3.294   0.028  0.00  0.00     0.156 HD
ATOM     22  H12 <0> d          -0.070   4.734   0.044  0.00  0.00     0.156 HD
ENDBRANCH   4  20
TORSDOF 4
