REMARK  0 active torsions:
REMARK  status: ('A' for Active; 'I' for Inactive)
ROOT
ATOM      1  C1  <0> d          -0.017   1.382   0.010  0.00  0.00    -0.064 A 
ATOM      2  C2  <0> d           1.176   2.083   0.002  0.00  0.00    -0.053 A 
ATOM      3  C3  <0> d           2.365   1.361  -0.013  0.00  0.00     0.062 A 
ATOM      4  C4  <0> d           2.308  -0.045  -0.020  0.00  0.00     0.106 A 
ATOM      5  C5  <0> d           3.700  -0.502  -0.036  0.00  0.00     0.080 A 
ATOM      6  C6  <0> d           4.476   0.596  -0.037  0.00  0.00     0.001 A 
ATOM      7  N1  <0> d           3.694   1.718  -0.024  0.00  0.00    -0.362 N 
ATOM      8  H1  <0> d           4.027   2.630  -0.023  0.00  0.00     0.165 HD
ATOM      9 Cl1  <0> d           4.245  -2.150  -0.050  0.00  0.00    -0.080 Cl
ATOM     10  N2  <0> d           1.135  -0.672  -0.013  0.00  0.00    -0.257 NA
ATOM     11  C7  <0> d           0.002  -0.004   0.002  0.00  0.00     0.003 A 
ATOM     12  H2  <0> d          -0.958   1.912   0.026  0.00  0.00     0.085 H 
ATOM     13  H3  <0> d           1.183   3.163   0.007  0.00  0.00     0.087 H 
ATOM     14  H4  <0> d           5.556   0.592  -0.048  0.00  0.00     0.114 H 
ATOM     15  H5  <0> d          -0.932  -0.546   0.008  0.00  0.00     0.114 H 
ENDROOT
TORSDOF 0
