REMARK  8 active torsions:
REMARK  status: ('A' for Active; 'I' for Inactive)
REMARK    1  A    between atoms: C1_1  and  C2_2 
REMARK    2  A    between atoms: C2_2  and  C3_3 
REMARK    3  A    between atoms: C3_3  and  O2_5 
REMARK    4  A    between atoms: O2_5  and  C4_6 
REMARK    5  A    between atoms: C4_6  and  C5_7 
REMARK    6  A    between atoms: C5_7  and  C6_8 
REMARK    7  A    between atoms: C6_8  and  C7_9 
REMARK    8  A    between atoms: C6_8  and  C8_10 
ROOT
ATOM      1  C4  <0> d          -2.121   0.950   1.341  0.00  0.00     0.029 C 
ATOM      2  H6  <0> d          -2.697   1.235   0.460  0.00  0.00     0.075 H 
ATOM      3  H7  <0> d          -2.028  -0.136   1.378  0.00  0.00     0.075 H 
ENDROOT
BRANCH   1   4
ATOM      4  O2  <0> d          -2.801   1.418   2.536  0.00  0.00    -0.321 OA
BRANCH   4   5
ATOM      5  C3  <0> d          -4.043   0.956   2.751  0.00  0.00     0.258 C 
ATOM      6  O1  <0> d          -4.545   0.186   1.967  0.00  0.00    -0.265 OA
BRANCH   5   7
ATOM      7  C2  <0> d          -4.810   1.398   3.970  0.00  0.00     0.013 C 
ATOM      8  H4  <0> d          -4.263   1.111   4.868  0.00  0.00     0.047 H 
ATOM      9  H5  <0> d          -4.932   2.481   3.950  0.00  0.00     0.047 H 
BRANCH   7  10
ATOM     10  C1  <0> d          -6.187   0.731   3.976  0.00  0.00    -0.068 C 
ATOM     11  H1  <0> d          -6.734   1.018   3.078  0.00  0.00     0.028 H 
ATOM     12  H2  <0> d          -6.066  -0.352   3.996  0.00  0.00     0.028 H 
ATOM     13  H3  <0> d          -6.742   1.050   4.858  0.00  0.00     0.028 H 
ENDBRANCH   7  10
ENDBRANCH   5   7
ENDBRANCH   4   5
ENDBRANCH   1   4
BRANCH   1  14
ATOM     14  C5  <0> d          -0.729   1.579   1.267  0.00  0.00    -0.042 C 
ATOM     15  H8  <0> d          -0.154   1.294   2.148  0.00  0.00     0.036 H 
ATOM     16  H9  <0> d          -0.822   2.665   1.230  0.00  0.00     0.036 H 
BRANCH  14  17
ATOM     17  C6  <0> d          -0.013   1.086   0.008  0.00  0.00    -0.059 C 
ATOM     18  H10 <0> d           0.002  -0.004   0.002  0.00  0.00     0.038 H 
BRANCH  17  19
ATOM     19  C7  <0> d           1.423   1.615  -0.003  0.00  0.00    -0.073 C 
ATOM     20  H11 <0> d           1.408   2.705   0.003  0.00  0.00     0.028 H 
ATOM     21  H12 <0> d           1.950   1.254   0.880  0.00  0.00     0.028 H 
ATOM     22  H13 <0> d           1.933   1.264  -0.900  0.00  0.00     0.028 H 
ENDBRANCH  17  19
BRANCH  17  23
ATOM     23  C8  <0> d          -0.753   1.593  -1.232  0.00  0.00    -0.073 C 
ATOM     24  H14 <0> d          -0.767   2.683  -1.226  0.00  0.00     0.028 H 
ATOM     25  H15 <0> d          -0.242   1.241  -2.128  0.00  0.00     0.028 H 
ATOM     26  H16 <0> d          -1.775   1.215  -1.224  0.00  0.00     0.028 H 
ENDBRANCH  17  23
ENDBRANCH  14  17
ENDBRANCH   1  14
TORSDOF 8
