REMARK  2 active torsions:
REMARK  status: ('A' for Active; 'I' for Inactive)
REMARK    1  A    between atoms: C3_3  and  O2_10 
REMARK    2  A    between atoms: C6_7  and  O1_9 
ROOT
ATOM      1  C1  <0> d          -0.013   1.086   0.008  0.00  0.00    -0.035 C 
ATOM      2  C2  <0> d          -0.739   1.585   1.264  0.00  0.00    -0.035 C 
ATOM      3  C3  <0> d          -2.106   0.892   1.335  0.00  0.00     0.052 C 
ATOM      4  H1  <0> d          -1.963  -0.160   1.583  0.00  0.00     0.089 H 
ATOM      5  C4  <0> d          -2.813   0.999   0.015  0.00  0.00    -0.077 C 
ATOM      6  C5  <0> d          -2.227   1.302  -1.099  0.00  0.00    -0.077 C 
ATOM      7  C6  <0> d          -0.761   1.597  -1.225  0.00  0.00     0.052 C 
ATOM      8  H2  <0> d          -0.616   2.673  -1.315  0.00  0.00     0.089 H 
ATOM      9  H3  <0> d           0.002  -0.004   0.002  0.00  0.00     0.037 H 
ATOM     10  H4  <0> d           1.009   1.466   0.000  0.00  0.00     0.037 H 
ATOM     11  H5  <0> d          -0.152   1.340   2.148  0.00  0.00     0.037 H 
ATOM     12  H6  <0> d          -0.880   2.664   1.201  0.00  0.00     0.037 H 
ATOM     13  H7  <0> d          -3.876   0.812  -0.006  0.00  0.00     0.080 H 
ATOM     14  H8  <0> d          -2.831   1.345  -1.993  0.00  0.00     0.080 H 
ENDROOT
BRANCH   3  15
ATOM     15  O2  <0> d          -2.899   1.512   2.348  0.00  0.00    -0.392 OA
ATOM     16  H10 <0> d          -3.775   1.118   2.460  0.00  0.00     0.210 HD
ENDBRANCH   3  15
BRANCH   7  17
ATOM     17  O1  <0> d          -0.247   0.953  -2.392  0.00  0.00    -0.392 OA
ATOM     18  H9  <0> d          -0.675   1.228  -3.214  0.00  0.00     0.210 HD
ENDBRANCH   7  17
TORSDOF 2
