REMARK  2 active torsions:
REMARK  status: ('A' for Active; 'I' for Inactive)
REMARK    1  A    between atoms: N1_5  and  C5_7 
REMARK    2  A    between atoms: C5_7  and  O2_8 
ROOT
ATOM      1  C1  <0> d          -2.512   2.395   2.709  0.00  0.00    -0.042 C 
ATOM      2  C2  <0> d          -1.156   2.432   3.452  0.00  0.00     0.011 C 
ATOM      3  C3  <0> d          -0.168   1.880   2.448  0.00  0.00     0.221 C 
ATOM      4  O1  <0> d           0.946   1.481   2.717  0.00  0.00    -0.273 OA
ATOM      5  N1  <0> d          -0.703   1.897   1.215  0.00  0.00    -0.331 N 
ATOM      6  C4  <0> d          -2.060   2.456   1.231  0.00  0.00     0.000 C 
ATOM      7  H1  <0> d          -3.048   1.470   2.919  0.00  0.00     0.036 H 
ATOM      8  H2  <0> d          -3.120   3.263   2.964  0.00  0.00     0.036 H 
ATOM      9  H3  <0> d          -1.191   1.800   4.340  0.00  0.00     0.047 H 
ATOM     10  H4  <0> d          -0.895   3.454   3.723  0.00  0.00     0.047 H 
ATOM     11  H5  <0> d          -2.047   3.487   0.879  0.00  0.00     0.064 H 
ATOM     12  H6  <0> d          -2.723   1.853   0.610  0.00  0.00     0.064 H 
ENDROOT
BRANCH   5  13
ATOM     13  C5  <0> d          -0.017   1.425   0.010  0.00  0.00     0.079 C 
ATOM     14  H7  <0> d           1.005   1.802   0.002  0.00  0.00     0.107 H 
ATOM     15  H8  <0> d          -0.544   1.786  -0.873  0.00  0.00     0.107 H 
BRANCH  13  16
ATOM     16  O2  <0> d           0.002  -0.004   0.002  0.00  0.00    -0.382 OA
ATOM     17  H9  <0> d           0.442  -0.387  -0.769  0.00  0.00     0.211 HD
ENDBRANCH  13  16
ENDBRANCH   5  13
TORSDOF 2
