REMARK  1 active torsions:
REMARK  status: ('A' for Active; 'I' for Inactive)
REMARK    1  A    between atoms: C1_1  and  N1_2 
ROOT
ATOM      1  N1  <0> d           0.002  -0.004   0.002  0.00  0.00    -0.329 N 
ATOM      2  C2  <0> d           0.008  -0.803  -1.101  0.00  0.00     0.068 A 
ATOM      3  N2  <0> d           0.027  -2.054  -0.746  0.00  0.00    -0.240 NA
ATOM      4  C3  <0> d           0.034  -2.140   0.609  0.00  0.00     0.105 A 
ATOM      5  C4  <0> d           0.024  -0.824   1.108  0.00  0.00     0.159 A 
ATOM      6  N3  <0> d           0.033  -0.597   2.413  0.00  0.00    -0.239 NA
ATOM      7  C5  <0> d           0.054  -1.578   3.287  0.00  0.00     0.025 A 
ATOM      8  C6  <0> d           0.069  -2.915   2.873  0.00  0.00     0.064 A 
ATOM      9  C7  <0> d           0.052  -3.207   1.507  0.00  0.00    -0.030 A 
ATOM     10  C8  <0> d           0.092  -3.972   3.840  0.00  0.00     0.101 C 
ATOM     11  N4  <0> d           0.111  -4.810   4.606  0.00  0.00    -0.191 NA
ATOM     12  H4  <0> d          -0.001  -0.449  -2.121  0.00  0.00     0.143 H 
ATOM     13  H5  <0> d           0.062  -1.349   4.342  0.00  0.00     0.117 H 
ATOM     14  H6  <0> d           0.064  -4.229   1.157  0.00  0.00     0.089 H 
ENDROOT
BRANCH   1  15
ATOM     15  C1  <0> d          -0.018   1.461   0.010  0.00  0.00    -0.012 C 
ATOM     16  H1  <0> d           1.005   1.838   0.002  0.00  0.00     0.057 H 
ATOM     17  H2  <0> d          -0.545   1.822  -0.873  0.00  0.00     0.057 H 
ATOM     18  H3  <0> d          -0.528   1.812   0.907  0.00  0.00     0.057 H 
ENDBRANCH   1  15
TORSDOF 1
