REMARK  4 active torsions:
REMARK  status: ('A' for Active; 'I' for Inactive)
REMARK    1  A    between atoms: C1_1  and  C2_2 
REMARK    2  A    between atoms: C2_2  and  C3_3 
REMARK    3  A    between atoms: C3_3  and  C4_4 
REMARK    4  A    between atoms: C4_4  and  C5_5 
ROOT
ATOM      1  C4  <0> d           2.367   4.004   0.001  0.00  0.00    -0.040 C 
ATOM      2  H8  <0> d           2.188   4.945   0.521  0.00  0.00     0.040 H 
ATOM      3  H9  <0> d           3.163   3.456   0.505  0.00  0.00     0.040 H 
ENDROOT
BRANCH   1   4
ATOM      4  C3  <0> d           2.781   4.291  -1.444  0.00  0.00    -0.062 C 
ATOM      5  H6  <0> d           2.959   3.350  -1.964  0.00  0.00     0.033 H 
ATOM      6  H7  <0> d           1.985   4.839  -1.948  0.00  0.00     0.033 H 
BRANCH   4   7
ATOM      7  C2  <0> d           4.061   5.128  -1.451  0.00  0.00    -0.068 C 
ATOM      8  H4  <0> d           3.883   6.069  -0.931  0.00  0.00     0.032 H 
ATOM      9  H5  <0> d           4.857   4.580  -0.947  0.00  0.00     0.032 H 
BRANCH   7  10
ATOM     10  C1  <0> d           4.475   5.415  -2.896  0.00  0.00    -0.077 C 
ATOM     11  H1  <0> d           4.654   4.474  -3.416  0.00  0.00     0.027 H 
ATOM     12  H2  <0> d           3.679   5.963  -3.400  0.00  0.00     0.027 H 
ATOM     13  H3  <0> d           5.387   6.012  -2.901  0.00  0.00     0.027 H 
ENDBRANCH   7  10
ENDBRANCH   4   7
ENDBRANCH   1   4
BRANCH   1  14
ATOM     14  C5  <0> d           1.106   3.179   0.008  0.00  0.00    -0.041 A 
ATOM     15  C9  <0> d          -0.132   3.793   0.023  0.00  0.00     0.008 A 
ATOM     16  N1  <0> d          -1.240   3.078   0.030  0.00  0.00    -0.273 NA
ATOM     17  H13 <0> d          -0.193   4.871   0.029  0.00  0.00     0.115 H 
ATOM     18  C8  <0> d          -1.214   1.759   0.017  0.00  0.00     0.002 A 
ATOM     19  C7  <0> d          -0.013   1.076   0.008  0.00  0.00    -0.066 A 
ATOM     20  H12 <0> d          -2.142   1.207   0.019  0.00  0.00     0.114 H 
ATOM     21  C6  <0> d           1.173   1.794   0.001  0.00  0.00    -0.074 A 
ATOM     22  H11 <0> d           0.002  -0.004   0.002  0.00  0.00     0.085 H 
ATOM     23  H10 <0> d           2.127   1.287  -0.011  0.00  0.00     0.084 H 
ENDBRANCH   1  14
TORSDOF 4
