REMARK  2 active torsions:
REMARK  status: ('A' for Active; 'I' for Inactive)
REMARK    1  A    between atoms: C1_1  and  C2_2 
REMARK    2  A    between atoms: C2_2  and  C4_6 
REMARK       I    between atoms: C4_6  and  N2_8 
ROOT
ATOM      1  C2  <0> d          -0.013   1.086   0.008  0.00  0.00     0.103 C 
ATOM      2  H1  <0> d           0.002  -0.004   0.002  0.00  0.00     0.077 H 
ATOM      3  C3  <0> d          -0.702   1.560   1.219  0.00  0.00     0.073 C 
ATOM      4  N1  <0> d          -1.233   1.927   2.154  0.00  0.00    -0.196 NA
ENDROOT
BRANCH   1   5
ATOM      5  C1  <0> d          -0.753   1.593  -1.232  0.00  0.00    -0.053 C 
ATOM      6  H2  <0> d          -0.242   1.241  -2.128  0.00  0.00     0.029 H 
ATOM      7  H3  <0> d          -1.775   1.215  -1.224  0.00  0.00     0.029 H 
ATOM      8  H4  <0> d          -0.767   2.683  -1.226  0.00  0.00     0.029 H 
ENDBRANCH   1   5
BRANCH   1   9
ATOM      9  C4  <0> d           1.401   1.607  -0.003  0.00  0.00     0.232 C 
ATOM     10  O1  <0> d           1.797   2.305   0.907  0.00  0.00    -0.272 OA
ATOM     11  N2  <0> d           2.226   1.299  -1.023  0.00  0.00    -0.369 N 
ATOM     12  H5  <0> d           1.909   0.741  -1.751  0.00  0.00     0.159 HD
ATOM     13  H6  <0> d           3.136   1.634  -1.030  0.00  0.00     0.159 HD
ENDBRANCH   1   9
TORSDOF 2
