REMARK  7 active torsions:
REMARK  status: ('A' for Active; 'I' for Inactive)
REMARK    1  A    between atoms: C1_1  and  C2_2 
REMARK    2  A    between atoms: C2_2  and  O1_3 
REMARK    3  A    between atoms: O1_3  and  C3_4 
REMARK    4  A    between atoms: C3_4  and  C4_6 
REMARK    5  A    between atoms: C4_6  and  C5_7 
REMARK    6  A    between atoms: C5_7  and  C6_9 
REMARK    7  A    between atoms: C5_7  and  O3_10 
ROOT
ATOM      1  C4  <0> d          -0.013   1.086   0.008  0.00  0.00     0.039 C 
ATOM      2  H7  <0> d           0.002  -0.004   0.002  0.00  0.00     0.051 H 
ATOM      3  H8  <0> d           1.010   1.463   0.000  0.00  0.00     0.051 H 
ENDROOT
BRANCH   1   4
ATOM      4  C3  <0> d          -0.742   1.585  -1.213  0.00  0.00     0.261 C 
ATOM      5  O2  <0> d          -1.732   2.266  -1.089  0.00  0.00    -0.265 OA
BRANCH   4   6
ATOM      6  O1  <0> d          -0.290   1.274  -2.438  0.00  0.00    -0.322 OA
BRANCH   6   7
ATOM      7  C2  <0> d          -1.042   1.789  -3.568  0.00  0.00     0.025 C 
ATOM      8  H5  <0> d          -2.064   1.411  -3.528  0.00  0.00     0.074 H 
ATOM      9  H6  <0> d          -1.056   2.878  -3.529  0.00  0.00     0.074 H 
BRANCH   7  10
ATOM     10  C1  <0> d          -0.382   1.333  -4.871  0.00  0.00    -0.056 C 
ATOM     11  H2  <0> d          -0.368   0.244  -4.910  0.00  0.00     0.030 H 
ATOM     12  H3  <0> d          -0.946   1.720  -5.719  0.00  0.00     0.030 H 
ATOM     13  H4  <0> d           0.640   1.711  -4.912  0.00  0.00     0.030 H 
ENDBRANCH   7  10
ENDBRANCH   6   7
ENDBRANCH   4   6
ENDBRANCH   1   4
BRANCH   1  14
ATOM     14  C5  <0> d          -0.729   1.579   1.267  0.00  0.00     0.040 C 
ATOM     15  H1  <0> d          -0.822   2.665   1.230  0.00  0.00     0.083 H 
BRANCH  14  16
ATOM     16  C6  <0> d           0.079   1.179   2.503  0.00  0.00    -0.052 C 
ATOM     17  H9  <0> d           1.071   1.627   2.450  0.00  0.00     0.030 H 
ATOM     18  H10 <0> d          -0.432   1.530   3.400  0.00  0.00     0.030 H 
ATOM     19  H11 <0> d           0.172   0.093   2.540  0.00  0.00     0.030 H 
ENDBRANCH  14  16
BRANCH  14  20
ATOM     20  O3  <0> d          -2.030   0.991   1.336  0.00  0.00    -0.395 OA
ATOM     21  H12 <0> d          -2.542   1.260   2.111  0.00  0.00     0.210 HD
ENDBRANCH  14  20
ENDBRANCH   1  14
TORSDOF 7
