REMARK  3 active torsions:
REMARK  status: ('A' for Active; 'I' for Inactive)
REMARK    1  A    between atoms: C3_3  and  C7_9 
REMARK    2  A    between atoms: C4_4  and  O1_8 
REMARK    3  A    between atoms: C6_6  and  N1_7 
ROOT
ATOM      1  C1  <0> d          -0.017   1.390   0.010  0.00  0.00    -0.057 A 
ATOM      2  C2  <0> d           1.151   2.096   0.002  0.00  0.00    -0.062 A 
ATOM      3  C3  <0> d           2.378   1.422  -0.013  0.00  0.00     0.073 A 
ATOM      4  C4  <0> d           2.402   0.016  -0.021  0.00  0.00     0.084 A 
ATOM      5  C5  <0> d           1.212  -0.688  -0.013  0.00  0.00    -0.025 A 
ATOM      6  C6  <0> d           0.002  -0.004   0.002  0.00  0.00     0.028 A 
ATOM      7  H1  <0> d          -0.961   1.914   0.026  0.00  0.00     0.086 H 
ATOM      8  H2  <0> d           1.128   3.175   0.008  0.00  0.00     0.085 H 
ATOM      9  H3  <0> d           1.222  -1.768  -0.019  0.00  0.00     0.091 H 
ENDROOT
BRANCH   3  10
ATOM     10  C7  <0> d           3.635   2.180  -0.021  0.00  0.00     0.212 C 
ATOM     11  O2  <0> d           3.611   3.404  -0.015  0.00  0.00    -0.644 OA
ATOM     12  O3  <0> d           4.707   1.589  -0.035  0.00  0.00    -0.644 OA
ENDBRANCH   3  10
BRANCH   4  13
ATOM     13  O1  <0> d           3.586  -0.646  -0.036  0.00  0.00    -0.360 OA
ATOM     14  H6  <0> d           3.938  -0.842   0.843  0.00  0.00     0.217 HD
ENDBRANCH   4  13
BRANCH   6  15
ATOM     15  N1  <0> d          -1.193  -0.712   0.010  0.00  0.00    -0.399 N 
ATOM     16  H4  <0> d          -2.039  -0.237   0.021  0.00  0.00     0.156 HD
ATOM     17  H5  <0> d          -1.182  -1.682   0.005  0.00  0.00     0.156 HD
ENDBRANCH   6  15
TORSDOF 3
