REMARK  4 active torsions:
REMARK  status: ('A' for Active; 'I' for Inactive)
REMARK    1  A    between atoms: C4_5  and  C6_7 
REMARK    2  A    between atoms: C6_7  and  C7_9 
REMARK    3  A    between atoms: C6_7  and  O2_11 
REMARK    4  A    between atoms: C7_9  and  O1_10 
ROOT
ATOM      1  C1  <0> d          -0.017   1.383   0.010  0.00  0.00    -0.080 A 
ATOM      2  C2  <0> d           0.002  -0.004   0.002  0.00  0.00    -0.066 A 
ATOM      3  C3  <0> d           1.218  -0.661  -0.013  0.00  0.00     0.003 A 
ATOM      4  N1  <0> d           2.350   0.015  -0.021  0.00  0.00    -0.263 NA
ATOM      5  C4  <0> d           2.370   1.334  -0.014  0.00  0.00     0.065 A 
ATOM      6  C5  <0> d           1.193   2.059   0.002  0.00  0.00    -0.057 A 
ATOM      7  H2  <0> d          -0.952   1.923   0.017  0.00  0.00     0.083 H 
ATOM      8  H3  <0> d          -0.922  -0.564   0.008  0.00  0.00     0.085 H 
ATOM      9  H4  <0> d           1.241  -1.741  -0.019  0.00  0.00     0.114 H 
ATOM     10  H5  <0> d           1.216   3.139   0.007  0.00  0.00     0.086 H 
ENDROOT
BRANCH   5  11
ATOM     11  C6  <0> d           3.691   2.058  -0.023  0.00  0.00     0.097 C 
ATOM     12  H1  <0> d           3.519   3.130   0.074  0.00  0.00     0.096 H 
BRANCH  11  13
ATOM     13  C7  <0> d           4.548   1.572   1.147  0.00  0.00     0.046 C 
ATOM     14  H6  <0> d           3.993   1.692   2.078  0.00  0.00     0.078 H 
ATOM     15  H7  <0> d           4.795   0.520   1.004  0.00  0.00     0.078 H 
BRANCH  13  16
ATOM     16  O1  <0> d           5.752   2.340   1.208  0.00  0.00    -0.398 OA
ATOM     17  H8  <0> d           6.345   2.086   1.929  0.00  0.00     0.209 HD
ENDBRANCH  13  16
ENDBRANCH  11  13
BRANCH  11  18
ATOM     18  O2  <0> d           4.371   1.795  -1.252  0.00  0.00    -0.387 OA
ATOM     19  H9  <0> d           4.558   0.859  -1.405  0.00  0.00     0.210 HD
ENDBRANCH  11  18
ENDBRANCH   5  11
TORSDOF 4
