REMARK  2 active torsions:
REMARK  status: ('A' for Active; 'I' for Inactive)
REMARK    1  A    between atoms: C3_3  and  N1_9 
REMARK    2  A    between atoms: C6_6  and  O1_7 
ROOT
ATOM      1  C1  <0> d           1.862   1.822   1.195  0.00  0.00    -0.049 A 
ATOM      2  C2  <0> d           3.118   2.397   1.188  0.00  0.00    -0.053 A 
ATOM      3  C3  <0> d           3.738   2.695  -0.018  0.00  0.00     0.047 A 
ATOM      4  C4  <0> d           3.096   2.409  -1.217  0.00  0.00     0.062 A 
ATOM      5  C5  <0> d           1.842   1.830  -1.207  0.00  0.00    -0.028 A 
ATOM      6  C6  <0> d           1.224   1.533  -0.001  0.00  0.00     0.067 A 
ATOM      7 Cl1  <0> d           3.869   2.781  -2.726  0.00  0.00    -0.082 Cl
ATOM      8  H1  <0> d           1.378   1.594   2.134  0.00  0.00     0.087 H 
ATOM      9  H2  <0> d           3.616   2.618   2.120  0.00  0.00     0.087 H 
ATOM     10  H3  <0> d           1.342   1.608  -2.139  0.00  0.00     0.090 H 
ENDROOT
BRANCH   3  11
ATOM     11  N1  <0> d           5.009   3.282  -0.026  0.00  0.00    -0.398 N 
ATOM     12  H5  <0> d           5.441   3.490  -0.869  0.00  0.00     0.156 HD
ATOM     13  H6  <0> d           5.457   3.481   0.811  0.00  0.00     0.156 HD
ENDBRANCH   3  11
BRANCH   6  14
ATOM     14  O1  <0> d          -0.011   0.963   0.007  0.00  0.00    -0.361 OA
ATOM     15  H4  <0> d           0.002  -0.004   0.002  0.00  0.00     0.217 HD
ENDBRANCH   6  14
TORSDOF 2
