REMARK  1 active torsions:
REMARK  status: ('A' for Active; 'I' for Inactive)
REMARK    1  A    between atoms: C2_2  and  C3_3 
ROOT
ATOM      1  C3  <0> d          -2.439   0.967   0.019  0.00  0.00    -0.030 A 
ATOM      2  C4  <0> d          -3.665   1.630   0.034  0.00  0.00    -0.066 A 
ATOM      3  C5  <0> d          -4.804   0.903   0.030  0.00  0.00    -0.044 A 
ATOM      4  S1  <0> d          -4.186  -0.771   0.019  0.00  0.00    -0.113 SA
ATOM      5  C6  <0> d          -2.440  -0.402   0.012  0.00  0.00    -0.035 A 
ATOM      6  H4  <0> d          -3.704   2.709   0.044  0.00  0.00     0.085 H 
ATOM      7  H5  <0> d          -5.828   1.248   0.037  0.00  0.00     0.095 H 
ATOM      8  H6  <0> d          -1.601  -1.082   0.005  0.00  0.00     0.096 H 
ENDROOT
BRANCH   1   9
ATOM      9  C2  <0> d          -1.170   1.723   0.017  0.00  0.00    -0.082 C 
ATOM     10  C1  <0> d          -0.013   1.076   0.008  0.00  0.00    -0.120 C 
ATOM     11  H1  <0> d           0.002  -0.004   0.002  0.00  0.00     0.066 H 
ATOM     12  H2  <0> d           0.915   1.629   0.002  0.00  0.00     0.066 H 
ATOM     13  H3  <0> d          -1.185   2.803   0.023  0.00  0.00     0.083 H 
ENDBRANCH   1   9
TORSDOF 1
