REMARK  4 active torsions:
REMARK  status: ('A' for Active; 'I' for Inactive)
REMARK    1  A    between atoms: C1_1  and  N1_2 
REMARK    2  A    between atoms: N1_2  and  C2_3 
REMARK       I    between atoms: N1_2  and  C3_4 
REMARK       I    between atoms: C3_4  and  N2_6 
REMARK    3  A    between atoms: N2_6  and  C4_7 
REMARK    4  A    between atoms: N2_6  and  C5_8 
ROOT
ATOM      1  N1  <0> d           1.154   1.757  -0.891  0.00  0.00    -0.343 N 
ATOM      2  C3  <0> d           0.012   1.222  -0.416  0.00  0.00     0.319 C 
ATOM      3  O1  <0> d          -0.090   0.017  -0.294  0.00  0.00    -0.247 OA
ATOM      4  N2  <0> d          -1.018   2.023  -0.080  0.00  0.00    -0.343 N 
ENDROOT
BRANCH   1   5
ATOM      5  C1  <0> d           2.268   0.885  -1.273  0.00  0.00    -0.015 C 
ATOM      6  H1  <0> d           2.172   0.612  -2.324  0.00  0.00     0.056 H 
ATOM      7  H2  <0> d           3.210   1.411  -1.118  0.00  0.00     0.056 H 
ATOM      8  H3  <0> d           2.250  -0.016  -0.660  0.00  0.00     0.056 H 
ENDBRANCH   1   5
BRANCH   1   9
ATOM      9  C2  <0> d           1.281   3.210  -1.028  0.00  0.00    -0.015 C 
ATOM     10  H4  <0> d           1.269   3.670  -0.039  0.00  0.00     0.056 H 
ATOM     11  H5  <0> d           2.221   3.447  -1.527  0.00  0.00     0.056 H 
ATOM     12  H6  <0> d           0.449   3.594  -1.617  0.00  0.00     0.056 H 
ENDBRANCH   1   9
BRANCH   4  13
ATOM     13  C4  <0> d          -2.240   1.447   0.486  0.00  0.00    -0.015 C 
ATOM     14  H7  <0> d          -2.155   1.408   1.572  0.00  0.00     0.056 H 
ATOM     15  H8  <0> d          -3.095   2.064   0.211  0.00  0.00     0.056 H 
ATOM     16  H9  <0> d          -2.381   0.438   0.096  0.00  0.00     0.056 H 
ENDBRANCH   4  13
BRANCH   4  17
ATOM     17  C5  <0> d          -0.917   3.471  -0.281  0.00  0.00    -0.015 C 
ATOM     18  H10 <0> d          -0.775   3.681  -1.341  0.00  0.00     0.056 H 
ATOM     19  H11 <0> d          -1.832   3.951   0.065  0.00  0.00     0.056 H 
ATOM     20  H12 <0> d          -0.068   3.857   0.282  0.00  0.00     0.056 H 
ENDBRANCH   4  17
TORSDOF 4
