REMARK  3 active torsions:
REMARK  status: ('A' for Active; 'I' for Inactive)
REMARK    1  A    between atoms: C1_1  and  C2_2 
REMARK    2  A    between atoms: C2_2  and  C3_3 
REMARK       I    between atoms: C3_3  and  N1_5 
REMARK    3  A    between atoms: N1_5  and  C4_6 
ROOT
ATOM      1  C3  <0> d           1.178  -0.662  -0.012  0.00  0.00     0.223 C 
ATOM      2  O1  <0> d           2.220  -0.041  -0.018  0.00  0.00    -0.273 OA
ATOM      3  N1  <0> d           0.002  -0.004   0.002  0.00  0.00    -0.304 N 
ATOM      4  H6  <0> d          -0.831  -0.500   0.007  0.00  0.00     0.171 HD
ENDROOT
BRANCH   1   5
ATOM      5  C2  <0> d           1.199  -2.169  -0.021  0.00  0.00     0.006 C 
ATOM      6  H4  <0> d           0.698  -2.544   0.872  0.00  0.00     0.046 H 
ATOM      7  H5  <0> d           0.682  -2.534  -0.908  0.00  0.00     0.046 H 
BRANCH   5   8
ATOM      8  C1  <0> d           2.648  -2.659  -0.036  0.00  0.00    -0.068 C 
ATOM      9  H1  <0> d           3.165  -2.294   0.851  0.00  0.00     0.028 H 
ATOM     10  H2  <0> d           2.663  -3.749  -0.042  0.00  0.00     0.028 H 
ATOM     11  H3  <0> d           3.149  -2.284  -0.929  0.00  0.00     0.028 H 
ENDBRANCH   5   8
ENDBRANCH   1   5
BRANCH   3  12
ATOM     12  C4  <0> d          -0.017   1.387   0.010  0.00  0.00     0.195 A 
ATOM     13  S1  <0> d          -1.372   2.477   0.021  0.00  0.00    -0.041 SA
ATOM     14  C5  <0> d          -0.416   3.989   0.028  0.00  0.00     0.065 A 
ATOM     15  N3  <0> d           0.804   3.491   0.013  0.00  0.00    -0.153 NA
ATOM     16  H7  <0> d          -0.746   5.017   0.036  0.00  0.00     0.129 H 
ATOM     17  N2  <0> d           0.991   2.243   0.005  0.00  0.00    -0.124 NA
ENDBRANCH   3  12
TORSDOF 3
