REMARK  1 active torsions:
REMARK  status: ('A' for Active; 'I' for Inactive)
REMARK    1  A    between atoms: C1_1  and  C3_8 
ROOT
ATOM      1  C1  <0> d           0.660   2.976   0.012  0.00  0.00     0.196 A 
ATOM      2  C2  <0> d          -0.751   2.948   0.025  0.00  0.00     0.185 A 
ATOM      3  N1  <0> d          -1.081   1.678   0.016  0.00  0.00    -0.142 NA
ATOM      4  N2  <0> d          -0.011   0.966   0.007  0.00  0.00    -0.195 N 
ATOM      5  H1  <0> d           0.003  -0.034   0.006  0.00  0.00     0.213 HD
ATOM      6  N3  <0> d           1.040   1.707   0.001  0.00  0.00    -0.147 NA
ATOM      7 Cl1  <0> d          -1.827   4.310   0.043  0.00  0.00    -0.058 Cl
ENDROOT
BRANCH   1   8
ATOM      8  C3  <0> d           1.529   4.169   0.009  0.00  0.00     0.234 C 
ATOM      9  O1  <0> d           1.037   5.280   0.020  0.00  0.00    -0.643 OA
ATOM     10  O2  <0> d           2.869   4.027  -0.004  0.00  0.00    -0.643 OA
ENDBRANCH   1   8
TORSDOF 1
