REMARK  3 active torsions:
REMARK  status: ('A' for Active; 'I' for Inactive)
REMARK    1  A    between atoms: C1_1  and  C2_2 
REMARK    2  A    between atoms: C2_2  and  C3_3 
REMARK    3  A    between atoms: C3_3  and  N1_4 
REMARK       I    between atoms: N1_4  and  C4_5 
REMARK       I    between atoms: C4_5  and  N2_7 
ROOT
ATOM      1  N1  <0> d          -0.011   0.966   0.007  0.00  0.00    -0.342 N 
ATOM      2  C4  <0> d          -1.187   1.624   0.017  0.00  0.00     0.327 C 
ATOM      3  O1  <0> d          -1.204   2.839   0.023  0.00  0.00    -0.246 OA
ATOM      4  N2  <0> d          -2.345   0.934   0.018  0.00  0.00    -0.268 N 
ATOM      5  C5  <0> d          -3.614   1.464   0.033  0.00  0.00     0.007 A 
ATOM      6  C6  <0> d          -4.469   0.426   0.026  0.00  0.00     0.019 A 
ATOM      7  N3  <0> d          -3.753  -0.710   0.017  0.00  0.00    -0.254 NA
ATOM      8  C7  <0> d          -2.482  -0.422   0.012  0.00  0.00     0.074 A 
ATOM      9  H8  <0> d           0.004  -0.134   0.006  0.00  0.00     0.164 HD
ATOM     10  H9  <0> d          -3.873   2.513   0.045  0.00  0.00     0.114 H 
ATOM     11  H10 <0> d          -5.547   0.495   0.032  0.00  0.00     0.117 H 
ATOM     12  H11 <0> d          -1.673  -1.138   0.004  0.00  0.00     0.144 H 
ENDROOT
BRANCH   1  13
ATOM     13  C3  <0> d           1.248   1.716  -0.001  0.00  0.00    -0.004 C 
ATOM     14  H6  <0> d           1.306   2.344   0.900  0.00  0.00     0.064 H 
ATOM     15  H7  <0> d           1.289   2.353  -0.896  0.00  0.00     0.064 H 
BRANCH  13  16
ATOM     16  C2  <0> d           2.424   0.737  -0.017  0.00  0.00    -0.053 C 
ATOM     17  H4  <0> d           2.366   0.109  -0.918  0.00  0.00     0.034 H 
ATOM     18  H5  <0> d           2.383   0.099   0.878  0.00  0.00     0.034 H 
BRANCH  16  19
ATOM     19  C1  <0> d           3.738   1.520  -0.025  0.00  0.00    -0.075 C 
ATOM     20  H1  <0> d           4.584   0.817  -0.037  0.00  0.00     0.027 H 
ATOM     21  H2  <0> d           3.796   2.148   0.875  0.00  0.00     0.027 H 
ATOM     22  H3  <0> d           3.779   2.158  -0.921  0.00  0.00     0.027 H 
ENDBRANCH  16  19
ENDBRANCH  13  16
ENDBRANCH   1  13
TORSDOF 3
