REMARK  4 active torsions:
REMARK  status: ('A' for Active; 'I' for Inactive)
REMARK    1  A    between atoms: C1_1  and  C2_2 
REMARK    2  A    between atoms: C2_2  and  C6_9 
REMARK    3  A    between atoms: C3_3  and  C4_4 
REMARK    4  A    between atoms: C4_4  and  N1_5 
REMARK       I    between atoms: N1_5  and  C5_6 
REMARK       I    between atoms: C5_6  and  N2_8 
ROOT
ATOM      1  C2  <0> d          -1.492   4.291  -0.950  0.00  0.00    -0.090 C 
ATOM      2  C3  <0> d          -1.202   3.602   0.126  0.00  0.00    -0.085 C 
ATOM      3  H4  <0> d          -0.653   4.065   0.932  0.00  0.00     0.079 H 
ENDROOT
BRANCH   2   4
ATOM      4  C4  <0> d          -1.635   2.163   0.239  0.00  0.00     0.012 C 
ATOM      5  H5  <0> d          -2.087   1.845  -0.701  0.00  0.00     0.070 H 
ATOM      6  H6  <0> d          -2.364   2.065   1.044  0.00  0.00     0.070 H 
BRANCH   4   7
ATOM      7  N1  <0> d          -0.470   1.324   0.529  0.00  0.00    -0.340 N 
ATOM      8  C5  <0> d          -0.618  -0.008   0.674  0.00  0.00     0.314 C 
ATOM      9  O1  <0> d          -1.720  -0.512   0.568  0.00  0.00    -0.248 OA
ATOM     10  N2  <0> d           0.454  -0.781   0.935  0.00  0.00    -0.352 N 
ATOM     11  H8  <0> d           1.333  -0.379   1.020  0.00  0.00     0.160 HD
ATOM     12  H9  <0> d           0.348  -1.739   1.040  0.00  0.00     0.160 HD
ATOM     13  H7  <0> d           0.408   1.726   0.614  0.00  0.00     0.164 HD
ENDBRANCH   4   7
ENDBRANCH   2   4
BRANCH   1  14
ATOM     14  C1  <0> d          -2.363   3.685  -2.021  0.00  0.00    -0.055 C 
ATOM     15  H1  <0> d          -3.302   3.352  -1.579  0.00  0.00     0.033 H 
ATOM     16  H2  <0> d          -2.567   4.432  -2.788  0.00  0.00     0.033 H 
ATOM     17  H3  <0> d          -1.850   2.834  -2.468  0.00  0.00     0.033 H 
ENDBRANCH   1  14
BRANCH   1  18
ATOM     18  C6  <0> d          -0.955   5.689  -1.117  0.00  0.00    -0.055 C 
ATOM     19  H10 <0> d           0.009   5.649  -1.624  0.00  0.00     0.033 H 
ATOM     20  H11 <0> d          -1.654   6.278  -1.712  0.00  0.00     0.033 H 
ATOM     21  H12 <0> d          -0.832   6.151  -0.138  0.00  0.00     0.033 H 
ENDBRANCH   1  18
TORSDOF 4
