REMARK  3 active torsions:
REMARK  status: ('A' for Active; 'I' for Inactive)
REMARK    1  A    between atoms: C1_1  and  C2_2 
REMARK    2  A    between atoms: C2_2  and  C3_3 
REMARK    3  A    between atoms: C7_8  and  N2_9 
ROOT
ATOM      1  C3  <0> d           0.707  -0.490  -1.238  0.00  0.00    -0.029 A 
ATOM      2  C4  <0> d          -0.007  -0.822  -2.377  0.00  0.00    -0.058 A 
ATOM      3  C5  <0> d           0.673  -1.264  -3.496  0.00  0.00     0.002 A 
ATOM      4  N1  <0> d           1.987  -1.372  -3.492  0.00  0.00    -0.271 NA
ATOM      5  C6  <0> d           2.706  -1.067  -2.430  0.00  0.00     0.027 A 
ATOM      6  C7  <0> d           2.095  -0.611  -1.269  0.00  0.00     0.049 A 
ATOM      7  H6  <0> d          -1.084  -0.738  -2.390  0.00  0.00     0.086 H 
ATOM      8  H7  <0> d           0.120  -1.525  -4.387  0.00  0.00     0.114 H 
ATOM      9  H8  <0> d           3.780  -1.168  -2.464  0.00  0.00     0.118 H 
ENDROOT
BRANCH   1  10
ATOM     10  C2  <0> d           0.002  -0.004   0.002  0.00  0.00    -0.042 C 
ATOM     11  H4  <0> d           0.529  -0.365   0.885  0.00  0.00     0.039 H 
ATOM     12  H5  <0> d          -1.020  -0.381   0.010  0.00  0.00     0.039 H 
BRANCH  10  13
ATOM     13  C1  <0> d          -0.019   1.526   0.010  0.00  0.00    -0.073 C 
ATOM     14  H1  <0> d           1.004   1.903   0.003  0.00  0.00     0.028 H 
ATOM     15  H2  <0> d          -0.546   1.887  -0.873  0.00  0.00     0.028 H 
ATOM     16  H3  <0> d          -0.529   1.877   0.907  0.00  0.00     0.028 H 
ENDBRANCH  10  13
ENDBRANCH   1  10
BRANCH   6  17
ATOM     17  N2  <0> d           2.860  -0.282  -0.147  0.00  0.00    -0.398 N 
ATOM     18  H9  <0> d           2.426   0.033   0.661  0.00  0.00     0.156 HD
ATOM     19  H10 <0> d           3.826  -0.369  -0.176  0.00  0.00     0.156 HD
ENDBRANCH   6  17
TORSDOF 3
