REMARK  3 active torsions:
REMARK  status: ('A' for Active; 'I' for Inactive)
REMARK    1  A    between atoms: C1_1  and  C2_2 
REMARK    2  A    between atoms: C3_3  and  C4_4 
REMARK    3  A    between atoms: C5_5  and  C6_6 
ROOT
ATOM      1  C6  <0> d           0.002  -0.004   0.002  0.00  0.00     0.059 A 
ATOM      2  C7  <0> d           1.362  -0.270  -0.012  0.00  0.00    -0.058 A 
ATOM      3  C8  <0> d           2.235   0.793  -0.015  0.00  0.00    -0.075 A 
ATOM      4  C9  <0> d           1.741   2.059  -0.004  0.00  0.00    -0.044 A 
ATOM      5  S1  <0> d          -0.022   1.781   0.012  0.00  0.00    -0.093 SA
ATOM      6  H4  <0> d           1.728  -1.286  -0.022  0.00  0.00     0.086 H 
ATOM      7  H5  <0> d           3.301   0.624  -0.026  0.00  0.00     0.084 H 
ATOM      8  H6  <0> d           2.279   2.996  -0.003  0.00  0.00     0.095 H 
ENDROOT
BRANCH   1   9
ATOM      9  C5  <0> d          -1.097  -0.922   0.007  0.00  0.00    -0.045 C 
ATOM     10  C4  <0> d          -1.998  -1.675   0.011  0.00  0.00    -0.009 C 
BRANCH  10  11
ATOM     11  C3  <0> d          -3.055  -2.557   0.016  0.00  0.00    -0.015 C 
ATOM     12  C2  <0> d          -3.956  -3.310   0.020  0.00  0.00    -0.097 C 
BRANCH  12  13
ATOM     13  C1  <0> d          -5.086  -4.253   0.025  0.00  0.00    -0.020 C 
ATOM     14  H1  <0> d          -4.706  -5.275   0.016  0.00  0.00     0.044 H 
ATOM     15  H2  <0> d          -5.686  -4.097   0.921  0.00  0.00     0.044 H 
ATOM     16  H3  <0> d          -5.702  -4.087  -0.859  0.00  0.00     0.044 H 
ENDBRANCH  12  13
ENDBRANCH  10  11
ENDBRANCH   1   9
TORSDOF 3
