REMARK  2 active torsions:
REMARK  status: ('A' for Active; 'I' for Inactive)
REMARK    1  A    between atoms: C1_1  and  C2_2 
REMARK    2  A    between atoms: C7_7  and  C8_8 
ROOT
ATOM      1  C2  <0> d           1.195   1.820   0.010  0.00  0.00    -0.045 A 
ATOM      2  C3  <0> d           0.047   1.103   0.275  0.00  0.00    -0.073 A 
ATOM      3  C4  <0> d          -1.183   1.735   0.275  0.00  0.00    -0.045 A 
ATOM      4  C5  <0> d          -1.270   3.095   0.022  0.00  0.00     0.117 A 
ATOM      5  C6  <0> d          -0.127   3.824  -0.245  0.00  0.00    -0.029 A 
ATOM      6  C7  <0> d           1.116   3.189  -0.252  0.00  0.00     0.049 A 
ATOM      7  F1  <0> d          -2.474   3.708   0.029  0.00  0.00    -0.206 F 
ATOM      8  H4  <0> d           0.107   0.044   0.477  0.00  0.00     0.084 H 
ATOM      9  H5  <0> d          -2.080   1.168   0.478  0.00  0.00     0.088 H 
ATOM     10  H6  <0> d          -0.195   4.883  -0.447  0.00  0.00     0.089 H 
ENDROOT
BRANCH   1  11
ATOM     11  C1  <0> d           2.533   1.126   0.004  0.00  0.00    -0.050 C 
ATOM     12  H1  <0> d           2.802   0.865  -1.020  0.00  0.00     0.033 H 
ATOM     13  H2  <0> d           3.290   1.792   0.419  0.00  0.00     0.033 H 
ATOM     14  H3  <0> d           2.476   0.220   0.607  0.00  0.00     0.033 H 
ENDBRANCH   1  11
BRANCH   6  15
ATOM     15  C8  <0> d           2.343   3.962  -0.535  0.00  0.00     0.210 C 
ATOM     16  O1  <0> d           3.408   3.389  -0.653  0.00  0.00    -0.644 OA
ATOM     17  O2  <0> d           2.281   5.301  -0.663  0.00  0.00    -0.644 OA
ENDBRANCH   6  15
TORSDOF 2
