REMARK  0 active torsions:
REMARK  status: ('A' for Active; 'I' for Inactive)
ROOT
ATOM      1  C1  <0> d           2.471   3.688  -0.001  0.00  0.00    -0.038 A 
ATOM      2  C2  <0> d           3.266   2.602  -0.014  0.00  0.00    -0.020 A 
ATOM      3  N1  <0> d           2.507   1.468  -0.013  0.00  0.00    -0.363 N 
ATOM      4  H1  <0> d           2.993   0.481  -0.023  0.00  0.00     0.165 HD
ATOM      5  C3  <0> d           1.173   1.800   0.001  0.00  0.00     0.079 A 
ATOM      6  C4  <0> d           1.092   3.209   0.009  0.00  0.00     0.087 A 
ATOM      7  N2  <0> d          -0.106   3.789   0.023  0.00  0.00    -0.240 NA
ATOM      8  C5  <0> d          -1.198   3.055   0.029  0.00  0.00     0.087 A 
ATOM      9  N3  <0> d          -1.160   1.735   0.017  0.00  0.00    -0.252 NA
ATOM     10  C6  <0> d          -0.013   1.076   0.008  0.00  0.00     0.031 A 
ATOM     11  H2  <0> d           2.792   4.719   0.002  0.00  0.00     0.089 H 
ATOM     12  H3  <0> d           4.346   2.625  -0.024  0.00  0.00     0.111 H 
ATOM     13  H4  <0> d          -2.158   3.549   0.040  0.00  0.00     0.146 H 
ATOM     14  H5  <0> d           0.002  -0.004   0.002  0.00  0.00     0.118 H 
ENDROOT
TORSDOF 0
