REMARK  2 active torsions:
REMARK  status: ('A' for Active; 'I' for Inactive)
REMARK    1  A    between atoms: C1_1  and  N4_6 
REMARK    2  A    between atoms: C2_3  and  N3_5 
ROOT
ATOM      1  C1  <0> d          -0.016   1.350   0.009  0.00  0.00     0.751 A 
ATOM      2  N1  <0> d           1.338   1.369  -0.003  0.00  0.00     0.130 NA
ATOM      3  C2  <0> d           1.356   0.014  -0.011  0.00  0.00     0.751 A 
ATOM      4  N2  <0> d           0.002  -0.004   0.002  0.00  0.00     0.130 NA
ENDROOT
BRANCH   1   5
ATOM      5  N4  <0> d          -0.982   2.291   0.019  0.00  0.00    -0.230 N 
ATOM      6  H3  <0> d          -1.916   2.027   0.023  0.00  0.00     0.174 HD
ATOM      7  H4  <0> d          -0.744   3.231   0.023  0.00  0.00     0.174 HD
ENDBRANCH   1   5
BRANCH   3   8
ATOM      8  N3  <0> d           2.322  -0.926  -0.025  0.00  0.00    -0.230 N 
ATOM      9  H1  <0> d           2.084  -1.866  -0.027  0.00  0.00     0.174 HD
ATOM     10  H2  <0> d           3.256  -0.662  -0.032  0.00  0.00     0.174 HD
ENDBRANCH   3   8
TORSDOF 2
