REMARK  2 active torsions:
REMARK  status: ('A' for Active; 'I' for Inactive)
REMARK    1  A    between atoms: C1_1  and  N1_2 
REMARK    2  A    between atoms: N1_2  and  C2_3 
ROOT
ATOM      1  C2  <0> d           1.181   1.676  -0.000  0.00  0.00     0.059 A 
ATOM      2  C3  <0> d           1.195   3.063   0.001  0.00  0.00     0.050 A 
ATOM      3  N2  <0> d           2.343   3.721   0.001  0.00  0.00    -0.160 NA
ATOM      4  N3  <0> d           3.489   3.143  -0.014  0.00  0.00    -0.150 NA
ATOM      5  C4  <0> d           3.605   1.810  -0.023  0.00  0.00     0.091 A 
ATOM      6  C5  <0> d           2.432   1.015  -0.016  0.00  0.00     0.022 A 
ATOM      7  C6  <0> d           2.537  -0.381  -0.024  0.00  0.00    -0.069 A 
ATOM      8  C7  <0> d           3.771  -0.961  -0.039  0.00  0.00    -0.082 A 
ATOM      9  C8  <0> d           4.926  -0.182  -0.046  0.00  0.00    -0.081 A 
ATOM     10  C9  <0> d           4.859   1.178  -0.038  0.00  0.00    -0.052 A 
ATOM     11  H5  <0> d           0.264   3.609   0.009  0.00  0.00     0.121 H 
ATOM     12  H6  <0> d           1.648  -0.994  -0.018  0.00  0.00     0.085 H 
ATOM     13  H7  <0> d           3.854  -2.037  -0.046  0.00  0.00     0.083 H 
ATOM     14  H8  <0> d           5.892  -0.666  -0.057  0.00  0.00     0.083 H 
ATOM     15  H9  <0> d           5.764   1.766  -0.043  0.00  0.00     0.087 H 
ENDROOT
BRANCH   1  16
ATOM     16  N1  <0> d          -0.011   0.966   0.007  0.00  0.00    -0.392 N 
ATOM     17  H4  <0> d           0.002  -0.004   0.002  0.00  0.00     0.159 HD
BRANCH  16  18
ATOM     18  C1  <0> d          -1.290   1.681   0.017  0.00  0.00    -0.021 C 
ATOM     19  H1  <0> d          -2.108   0.962   0.017  0.00  0.00     0.056 H 
ATOM     20  H2  <0> d          -1.352   2.302   0.911  0.00  0.00     0.056 H 
ATOM     21  H3  <0> d          -1.360   2.312  -0.869  0.00  0.00     0.056 H 
ENDBRANCH  16  18
ENDBRANCH   1  16
TORSDOF 2
