REMARK  7 active torsions:
REMARK  status: ('A' for Active; 'I' for Inactive)
REMARK    1  A    between atoms: C1_1  and  C2_2 
REMARK    2  A    between atoms: C2_2  and  C3_3 
REMARK    3  A    between atoms: C3_3  and  C4_4 
REMARK    4  A    between atoms: C4_4  and  C5_5 
REMARK    5  A    between atoms: C5_5  and  C6_7 
REMARK    6  A    between atoms: C5_5  and  C8_9 
REMARK    7  A    between atoms: C6_7  and  C7_8 
ROOT
ATOM      1  C4  <0> d           0.908  -1.975   1.172  0.00  0.00    -0.052 C 
ATOM      2  H9  <0> d          -0.098  -2.389   1.115  0.00  0.00     0.034 H 
ATOM      3  H10 <0> d           1.461  -2.240   0.271  0.00  0.00     0.034 H 
ENDROOT
BRANCH   1   4
ATOM      4  C3  <0> d           0.828  -0.452   1.293  0.00  0.00    -0.065 C 
ATOM      5  H7  <0> d           1.828  -0.046   1.443  0.00  0.00     0.033 H 
ATOM      6  H8  <0> d           0.197  -0.188   2.141  0.00  0.00     0.033 H 
BRANCH   4   7
ATOM      7  C2  <0> d           0.229   0.130   0.011  0.00  0.00    -0.069 C 
ATOM      8  H5  <0> d          -0.772  -0.276  -0.140  0.00  0.00     0.032 H 
ATOM      9  H6  <0> d           0.860  -0.134  -0.838  0.00  0.00     0.032 H 
BRANCH   7  10
ATOM     10  C1  <0> d           0.148   1.653   0.132  0.00  0.00    -0.077 C 
ATOM     11  H2  <0> d           1.148   2.059   0.282  0.00  0.00     0.027 H 
ATOM     12  H3  <0> d          -0.279   2.068  -0.782  0.00  0.00     0.027 H 
ATOM     13  H4  <0> d          -0.483   1.917   0.980  0.00  0.00     0.027 H 
ENDBRANCH   7  10
ENDBRANCH   4   7
ENDBRANCH   1   4
BRANCH   1  14
ATOM     14  C5  <0> d           1.626  -2.546   2.397  0.00  0.00     0.030 C 
ATOM     15  H1  <0> d           2.599  -2.067   2.504  0.00  0.00     0.056 H 
BRANCH  14  16
ATOM     16  C6  <0> d           1.817  -4.054   2.219  0.00  0.00    -0.056 C 
ATOM     17  H11 <0> d           0.844  -4.545   2.213  0.00  0.00     0.033 H 
ATOM     18  H12 <0> d           2.326  -4.247   1.275  0.00  0.00     0.033 H 
BRANCH  16  19
ATOM     19  C7  <0> d           2.658  -4.601   3.374  0.00  0.00    -0.076 C 
ATOM     20  H13 <0> d           3.590  -4.040   3.442  0.00  0.00     0.027 H 
ATOM     21  H14 <0> d           2.104  -4.500   4.307  0.00  0.00     0.027 H 
ATOM     22  H15 <0> d           2.880  -5.654   3.195  0.00  0.00     0.027 H 
ENDBRANCH  16  19
ENDBRANCH  14  16
BRANCH  14  23
ATOM     23  C8  <0> d           0.800  -2.287   3.630  0.00  0.00     0.176 C 
ATOM     24  O1  <0> d          -0.352  -2.682   3.686  0.00  0.00    -0.648 OA
ATOM     25  O2  <0> d           1.283  -1.681   4.571  0.00  0.00    -0.648 OA
ENDBRANCH  14  23
ENDBRANCH   1  14
TORSDOF 7
