REMARK  4 active torsions:
REMARK  status: ('A' for Active; 'I' for Inactive)
REMARK    1  A    between atoms: C1_1  and  C2_2 
REMARK    2  A    between atoms: C2_2  and  C3_4 
REMARK    3  A    between atoms: C2_2  and  O1_12 
REMARK    4  A    between atoms: C4_5  and  C5_6 
ROOT
ATOM      1  C5  <0> d          -0.134   3.797   0.023  0.00  0.00     0.109 A 
ATOM      2  C6  <0> d           1.115   3.175   0.008  0.00  0.00    -0.047 A 
ATOM      3  C7  <0> d           1.176   1.792   0.001  0.00  0.00    -0.079 A 
ATOM      4  C8  <0> d          -0.013   1.076   0.008  0.00  0.00    -0.066 A 
ATOM      5  C9  <0> d          -1.216   1.757   0.017  0.00  0.00     0.004 A 
ATOM      6  N1  <0> d          -1.248   3.074   0.030  0.00  0.00    -0.252 NA
ATOM      7  H5  <0> d           2.020   3.763   0.002  0.00  0.00     0.088 H 
ATOM      8  H6  <0> d           2.128   1.282  -0.011  0.00  0.00     0.083 H 
ATOM      9  H7  <0> d           0.002  -0.004   0.002  0.00  0.00     0.085 H 
ATOM     10  H8  <0> d          -2.142   1.202   0.019  0.00  0.00     0.114 H 
ENDROOT
BRANCH   1  11
ATOM     11  C4  <0> d          -0.215   5.227   0.031  0.00  0.00    -0.044 C 
ATOM     12  C3  <0> d          -0.281   6.399   0.037  0.00  0.00    -0.068 C 
BRANCH  12  13
ATOM     13  C2  <0> d          -0.364   7.869   0.045  0.00  0.00     0.090 C 
ATOM     14  H1  <0> d           0.120   8.265  -0.847  0.00  0.00     0.102 H 
BRANCH  13  15
ATOM     15  C1  <0> d           0.338   8.412   1.291  0.00  0.00    -0.043 C 
ATOM     16  H2  <0> d           1.385   8.108   1.280  0.00  0.00     0.032 H 
ATOM     17  H3  <0> d           0.277   9.501   1.297  0.00  0.00     0.032 H 
ATOM     18  H4  <0> d          -0.146   8.016   2.183  0.00  0.00     0.032 H 
ENDBRANCH  13  15
BRANCH  13  19
ATOM     19  O1  <0> d          -1.736   8.268   0.060  0.00  0.00    -0.384 OA
ATOM     20  H9  <0> d          -1.867   9.226   0.066  0.00  0.00     0.211 HD
ENDBRANCH  13  19
ENDBRANCH  12  13
ENDBRANCH   1  11
TORSDOF 4
