REMARK  0 active torsions:
REMARK  status: ('A' for Active; 'I' for Inactive)
ROOT
ATOM      1  C1  <0> d          -0.018   1.516   0.010  0.00  0.00    -0.046 C 
ATOM      2  C2  <0> d           1.419   1.984  -0.001  0.00  0.00    -0.106 C 
ATOM      3  C3  <0> d           2.429   1.250  -0.357  0.00  0.00    -0.105 C 
ATOM      4  C4  <0> d           2.312  -0.180  -0.836  0.00  0.00    -0.043 C 
ATOM      5  C5  <0> d           0.868  -0.405  -1.235  0.00  0.00    -0.031 C 
ATOM      6  H1  <0> d           0.616   0.231  -2.083  0.00  0.00     0.046 H 
ATOM      7  C6  <0> d           0.002  -0.004   0.002  0.00  0.00    -0.041 C 
ATOM      8  H2  <0> d           0.395  -0.410   0.934  0.00  0.00     0.041 H 
ATOM      9  C7  <0> d          -1.310  -0.680  -0.429  0.00  0.00    -0.046 C 
ATOM     10  C8  <0> d          -0.805  -1.972  -1.066  0.00  0.00    -0.105 C 
ATOM     11  C9  <0> d           0.434  -1.809  -1.507  0.00  0.00    -0.102 C 
ATOM     12  H3  <0> d          -0.519   1.875   0.910  0.00  0.00     0.039 H 
ATOM     13  H4  <0> d          -0.536   1.884  -0.875  0.00  0.00     0.039 H 
ATOM     14  H5  <0> d           1.619   3.000   0.308  0.00  0.00     0.076 H 
ATOM     15  H6  <0> d           3.414   1.689  -0.309  0.00  0.00     0.076 H 
ATOM     16  H7  <0> d           2.963  -0.338  -1.696  0.00  0.00     0.039 H 
ATOM     17  H8  <0> d           2.586  -0.864  -0.033  0.00  0.00     0.039 H 
ATOM     18  H9  <0> d          -1.941  -0.892   0.434  0.00  0.00     0.039 H 
ATOM     19  H10 <0> d          -1.842  -0.069  -1.158  0.00  0.00     0.039 H 
ATOM     20  H11 <0> d          -1.375  -2.886  -1.147  0.00  0.00     0.076 H 
ATOM     21  H12 <0> d           1.035  -2.568  -1.986  0.00  0.00     0.076 H 
ENDROOT
TORSDOF 0
