REMARK  1 active torsions:
REMARK  status: ('A' for Active; 'I' for Inactive)
REMARK    1  A    between atoms: C1_1  and  C2_2 
ROOT
ATOM      1  C2  <0> d           0.002  -0.004   0.002  0.00  0.00     0.011 C 
ATOM      2  H1  <0> d          -1.018  -0.388  -0.003  0.00  0.00     0.072 H 
ATOM      3  C3  <0> d           0.760  -0.512  -1.244  0.00  0.00    -0.044 C 
ATOM      4  C4  <0> d           1.640  -1.663  -0.678  0.00  0.00    -0.044 C 
ATOM      5  C5  <0> d           1.994  -1.089   0.710  0.00  0.00     0.015 C 
ATOM      6  H2  <0> d           2.791  -0.348   0.652  0.00  0.00     0.072 H 
ATOM      7  N1  <0> d           0.719  -0.501   1.188  0.00  0.00    -0.343 N 
ATOM      8  C6  <0> d           0.624  -0.654   2.523  0.00  0.00     0.220 C 
ATOM      9  O1  <0> d          -0.195  -0.103   3.228  0.00  0.00    -0.273 OA
ATOM     10  C7  <0> d           1.685  -1.614   3.016  0.00  0.00     0.011 C 
ATOM     11  C8  <0> d           2.324  -2.210   1.710  0.00  0.00    -0.038 C 
ATOM     12  H6  <0> d           0.063  -0.892  -1.991  0.00  0.00     0.036 H 
ATOM     13  H7  <0> d           1.383   0.278  -1.664  0.00  0.00     0.036 H 
ATOM     14  H8  <0> d           1.070  -2.588  -0.589  0.00  0.00     0.036 H 
ATOM     15  H9  <0> d           2.534  -1.810  -1.284  0.00  0.00     0.036 H 
ATOM     16  H10 <0> d           2.446  -1.081   3.585  0.00  0.00     0.047 H 
ATOM     17  H11 <0> d           1.236  -2.400   3.623  0.00  0.00     0.047 H 
ATOM     18  H12 <0> d           1.835  -3.143   1.431  0.00  0.00     0.036 H 
ATOM     19  H13 <0> d           3.401  -2.346   1.806  0.00  0.00     0.036 H 
ENDROOT
BRANCH   1  20
ATOM     20  C1  <0> d          -0.019   1.526   0.010  0.00  0.00    -0.057 C 
ATOM     21  H3  <0> d           1.004   1.903   0.003  0.00  0.00     0.030 H 
ATOM     22  H4  <0> d          -0.546   1.887  -0.873  0.00  0.00     0.030 H 
ATOM     23  H5  <0> d          -0.529   1.877   0.907  0.00  0.00     0.030 H 
ENDBRANCH   1  20
TORSDOF 1
