REMARK  5 active torsions:
REMARK  status: ('A' for Active; 'I' for Inactive)
REMARK    1  A    between atoms: C1_1  and  C2_2 
REMARK    2  A    between atoms: C2_2  and  C3_3 
REMARK    3  A    between atoms: C3_3  and  C4_5 
REMARK    4  A    between atoms: C3_3  and  O1_11 
REMARK    5  A    between atoms: C5_6  and  C6_7 
ROOT
ATOM      1  C3  <0> d          -2.164   1.050   1.278  0.00  0.00     0.093 C 
ATOM      2  H1  <0> d          -2.152  -0.036   1.182  0.00  0.00     0.103 H 
ENDROOT
BRANCH   1   3
ATOM      3  C2  <0> d          -0.729   1.579   1.267  0.00  0.00    -0.034 C 
ATOM      4  H5  <0> d          -0.202   1.218   2.150  0.00  0.00     0.037 H 
ATOM      5  H6  <0> d          -0.744   2.669   1.273  0.00  0.00     0.037 H 
BRANCH   3   6
ATOM      6  C1  <0> d          -0.013   1.086   0.008  0.00  0.00    -0.073 C 
ATOM      7  H2  <0> d           0.002  -0.004   0.002  0.00  0.00     0.027 H 
ATOM      8  H3  <0> d           1.010   1.463   0.000  0.00  0.00     0.027 H 
ATOM      9  H4  <0> d          -0.540   1.447  -0.875  0.00  0.00     0.027 H 
ENDBRANCH   3   6
ENDBRANCH   1   3
BRANCH   1  10
ATOM     10  C4  <0> d          -2.816   1.423   2.544  0.00  0.00    -0.066 C 
ATOM     11  C5  <0> d          -3.335   1.721   3.554  0.00  0.00     0.011 C 
BRANCH  11  12
ATOM     12  C6  <0> d          -3.986   2.095   4.820  0.00  0.00     0.459 C 
ATOM     13  F1  <0> d          -5.299   1.611   4.830  0.00  0.00    -0.159 F 
ATOM     14  F2  <0> d          -3.277   1.541   5.890  0.00  0.00    -0.159 F 
ATOM     15  F3  <0> d          -4.002   3.489   4.942  0.00  0.00    -0.159 F 
ENDBRANCH  11  12
ENDBRANCH   1  10
BRANCH   1  16
ATOM     16  O1  <0> d          -2.889   1.616   0.184  0.00  0.00    -0.383 OA
ATOM     17  H7  <0> d          -2.941   2.581   0.204  0.00  0.00     0.211 HD
ENDBRANCH   1  16
TORSDOF 5
