REMARK  2 active torsions:
REMARK  status: ('A' for Active; 'I' for Inactive)
REMARK    1  A    between atoms: C1_1  and  C2_2 
REMARK    2  A    between atoms: C3_4  and  N3_7 
ROOT
ATOM      1  C2  <0> d           1.973   0.781  -0.013  0.00  0.00     0.154 A 
ATOM      2  N1  <0> d           1.273  -0.366  -0.012  0.00  0.00    -0.190 NA
ATOM      3  C3  <0> d           0.002  -0.004   0.002  0.00  0.00     0.267 A 
ATOM      4  O1  <0> d          -0.016   1.336   0.009  0.00  0.00    -0.173 OA
ATOM      5  N2  <0> d           1.120   1.762   0.001  0.00  0.00    -0.110 NA
ENDROOT
BRANCH   1   6
ATOM      6  C1  <0> d           3.474   0.907  -0.025  0.00  0.00    -0.017 C 
ATOM      7  H1  <0> d           3.927  -0.096  -0.035  0.00  0.00     0.038 H 
ATOM      8  H2  <0> d           3.804   1.450   0.873  0.00  0.00     0.038 H 
ATOM      9  H3  <0> d           3.788   1.460  -0.923  0.00  0.00     0.038 H 
ENDBRANCH   1   6
BRANCH   3  10
ATOM     10  N3  <0> d          -1.089  -0.839   0.008  0.00  0.00    -0.362 N 
ATOM     11  H4  <0> d          -2.104  -0.417   0.020  0.00  0.00     0.159 HD
ATOM     12  H5  <0> d          -0.946  -1.930   0.001  0.00  0.00     0.159 HD
ENDBRANCH   3  10
TORSDOF 2
