REMARK  0 active torsions:
REMARK  status: ('A' for Active; 'I' for Inactive)
ROOT
ATOM      1  C1  <0> d          -0.017   1.383   0.010  0.00  0.00    -0.021 A 
ATOM      2  C2  <0> d           0.002  -0.004   0.002  0.00  0.00    -0.021 A 
ATOM      3  C3  <0> d           1.238  -0.639  -0.013  0.00  0.00     0.230 A 
ATOM      4  N1  <0> d           2.346   0.080  -0.020  0.00  0.00    -0.117 NA
ATOM      5  N2  <0> d           2.329   1.363  -0.013  0.00  0.00    -0.117 NA
ATOM      6  C4  <0> d           1.201   2.051   0.002  0.00  0.00     0.230 A 
ATOM      7  F1  <0> d           1.233   3.402   0.008  0.00  0.00    -0.182 F 
ATOM      8  F2  <0> d           1.306  -1.988  -0.021  0.00  0.00    -0.182 F 
ATOM      9  H1  <0> d          -0.950   1.927   0.017  0.00  0.00     0.090 H 
ATOM     10  H2  <0> d          -0.916  -0.573   0.007  0.00  0.00     0.090 H 
ENDROOT
TORSDOF 0
