REMARK  1 active torsions:
REMARK  status: ('A' for Active; 'I' for Inactive)
REMARK    1  A    between atoms: C2_2  and  C4_8 
ROOT
ATOM      1  C1  <0> d          -0.018   1.466   0.010  0.00  0.00     0.025 A 
ATOM      2  C2  <0> d           1.473   1.856  -0.002  0.00  0.00     0.113 A 
ATOM      3  H1  <0> d           1.711   2.430  -0.897  0.00  0.00     0.092 H 
ATOM      4  N1  <0> d           2.175   0.564  -0.016  0.00  0.00    -0.327 N 
ATOM      5  C3  <0> d           1.273  -0.427  -0.012  0.00  0.00     0.316 A 
ATOM      6  O1  <0> d           1.580  -1.603  -0.021  0.00  0.00    -0.247 OA
ATOM      7  N2  <0> d           0.002  -0.004   0.002  0.00  0.00    -0.341 N 
ATOM      8  H2  <0> d          -0.520   1.847  -0.879  0.00  0.00     0.068 H 
ATOM      9  H3  <0> d          -0.503   1.837   0.913  0.00  0.00     0.068 H 
ATOM     10  H4  <0> d           3.138   0.447  -0.025  0.00  0.00     0.165 HD
ATOM     11  H5  <0> d          -0.781  -0.577   0.006  0.00  0.00     0.164 HD
ENDROOT
BRANCH   2  12
ATOM     12  C4  <0> d           1.826   2.636   1.238  0.00  0.00     0.198 C 
ATOM     13  O2  <0> d           2.373   2.085   2.164  0.00  0.00    -0.646 OA
ATOM     14  O3  <0> d           1.533   3.944   1.314  0.00  0.00    -0.646 OA
ENDBRANCH   2  12
TORSDOF 1
