REMARK  1 active torsions:
REMARK  status: ('A' for Active; 'I' for Inactive)
REMARK    1  A    between atoms: C7_7  and  C9_11 
ROOT
ATOM      1  C9  <0> d          -1.241   2.341   0.021  0.00  0.00     0.041 C 
ATOM      2  C10 <0> d          -1.703   2.521   1.407  0.00  0.00     0.063 C 
ATOM      3  N2  <0> d          -2.060   2.661   2.476  0.00  0.00    -0.197 NA
ATOM      4  H7  <0> d          -0.995   3.311  -0.409  0.00  0.00     0.062 H 
ATOM      5  H8  <0> d          -2.031   1.872  -0.567  0.00  0.00     0.062 H 
ENDROOT
BRANCH   1   6
ATOM      6  C7  <0> d          -0.018   1.461   0.010  0.00  0.00    -0.017 A 
ATOM      7  C5  <0> d           0.002  -0.004   0.002  0.00  0.00    -0.001 A 
ATOM      8  C4  <0> d           1.359  -0.374  -0.013  0.00  0.00     0.042 A 
ATOM      9  C6  <0> d          -0.989  -0.988   0.007  0.00  0.00    -0.070 A 
ATOM     10  C3  <0> d           1.697  -1.724  -0.023  0.00  0.00    -0.056 A 
ATOM     11  N1  <0> d           2.097   0.788  -0.014  0.00  0.00    -0.365 N 
ATOM     12  C2  <0> d           0.704  -2.678  -0.019  0.00  0.00    -0.081 A 
ATOM     13  H4  <0> d           2.735  -2.022  -0.035  0.00  0.00     0.086 H 
ATOM     14  C1  <0> d          -0.634  -2.308  -0.004  0.00  0.00    -0.082 A 
ATOM     15  H3  <0> d           0.968  -3.725  -0.027  0.00  0.00     0.083 H 
ATOM     16  H2  <0> d          -1.401  -3.068  -0.001  0.00  0.00     0.083 H 
ATOM     17  C8  <0> d           1.260   1.871   0.000  0.00  0.00    -0.015 A 
ATOM     18  H1  <0> d           3.066   0.833  -0.023  0.00  0.00     0.165 HD
ATOM     19  H6  <0> d           1.581   2.902   0.002  0.00  0.00     0.112 H 
ATOM     20  H5  <0> d          -2.031  -0.707   0.018  0.00  0.00     0.084 H 
ENDBRANCH   1   6
TORSDOF 1
