REMARK  2 active torsions:
REMARK  status: ('A' for Active; 'I' for Inactive)
REMARK    1  A    between atoms: C1_1  and  O1_2 
REMARK    2  A    between atoms: O1_2  and  C2_3 
ROOT
ATOM      1  C2  <0> d          -0.150   1.183   2.376  0.00  0.00     0.269 A 
ATOM      2  N1  <0> d           0.937   0.430   2.395  0.00  0.00    -0.219 NA
ATOM      3  C3  <0> d           1.485   0.060   3.541  0.00  0.00     0.009 A 
ATOM      4  C4  <0> d           0.900   0.463   4.731  0.00  0.00    -0.027 A 
ATOM      5  C5  <0> d          -0.242   1.248   4.674  0.00  0.00     0.131 A 
ATOM      6  N2  <0> d          -0.735   1.586   3.492  0.00  0.00    -0.195 NA
ATOM      7 Cl1  <0> d          -1.016   1.782   6.134  0.00  0.00    -0.062 Cl
ATOM      8  H4  <0> d           2.375  -0.551   3.549  0.00  0.00     0.115 H 
ATOM      9  H5  <0> d           1.324   0.172   5.680  0.00  0.00     0.090 H 
ENDROOT
BRANCH   1  10
ATOM     10  O1  <0> d          -0.682   1.547   1.184  0.00  0.00    -0.324 OA
BRANCH  10  11
ATOM     11  C1  <0> d          -0.013   1.086   0.008  0.00  0.00     0.013 C 
ATOM     12  H1  <0> d           0.002  -0.004   0.002  0.00  0.00     0.067 H 
ATOM     13  H2  <0> d           1.010   1.463   0.000  0.00  0.00     0.067 H 
ATOM     14  H3  <0> d          -0.540   1.447  -0.875  0.00  0.00     0.067 H 
ENDBRANCH  10  11
ENDBRANCH   1  10
TORSDOF 2
