REMARK  3 active torsions:
REMARK  status: ('A' for Active; 'I' for Inactive)
REMARK    1  A    between atoms: C1_1  and  C2_2 
REMARK    2  A    between atoms: C2_2  and  C3_3 
REMARK    3  A    between atoms: C4_4  and  C8_9 
ROOT
ATOM      1  C3  <0> d           0.731  -0.503   1.223  0.00  0.00     0.039 A 
ATOM      2  C4  <0> d           2.097  -0.707   1.167  0.00  0.00    -0.037 A 
ATOM      3  C5  <0> d           2.758  -1.166   2.296  0.00  0.00    -0.074 A 
ATOM      4  C6  <0> d           2.017  -1.405   3.443  0.00  0.00    -0.066 A 
ATOM      5  C7  <0> d           0.654  -1.178   3.424  0.00  0.00     0.003 A 
ATOM      6  N1  <0> d           0.059  -0.736   2.333  0.00  0.00    -0.265 NA
ATOM      7  H6  <0> d           3.825  -1.335   2.282  0.00  0.00     0.084 H 
ATOM      8  H7  <0> d           2.499  -1.764   4.341  0.00  0.00     0.085 H 
ATOM      9  H8  <0> d           0.070  -1.362   4.314  0.00  0.00     0.114 H 
ENDROOT
BRANCH   1  10
ATOM     10  C2  <0> d           0.002  -0.004   0.002  0.00  0.00    -0.028 C 
ATOM     11  H4  <0> d          -1.020  -0.381   0.010  0.00  0.00     0.041 H 
ATOM     12  H5  <0> d           0.512  -0.356  -0.895  0.00  0.00     0.041 H 
BRANCH  10  13
ATOM     13  C1  <0> d          -0.019   1.526   0.010  0.00  0.00    -0.071 C 
ATOM     14  H1  <0> d           1.004   1.903   0.003  0.00  0.00     0.028 H 
ATOM     15  H2  <0> d          -0.546   1.887  -0.873  0.00  0.00     0.028 H 
ATOM     16  H3  <0> d          -0.529   1.877   0.907  0.00  0.00     0.028 H 
ENDBRANCH  10  13
ENDBRANCH   1  10
BRANCH   2  17
ATOM     17  C8  <0> d           2.858  -0.433  -0.104  0.00  0.00    -0.049 C 
ATOM     18  H9  <0> d           3.198   0.602  -0.108  0.00  0.00     0.033 H 
ATOM     19  H10 <0> d           3.719  -1.099  -0.163  0.00  0.00     0.033 H 
ATOM     20  H11 <0> d           2.207  -0.605  -0.961  0.00  0.00     0.033 H 
ENDBRANCH   2  17
TORSDOF 3
