REMARK  2 active torsions:
REMARK  status: ('A' for Active; 'I' for Inactive)
REMARK    1  A    between atoms: C1_1  and  S1_2 
REMARK    2  A    between atoms: S1_2  and  C2_3 
ROOT
ATOM      1  C2  <0> d           1.696   2.032  -0.003  0.00  0.00     0.133 A 
ATOM      2  N1  <0> d           2.157   0.795  -0.014  0.00  0.00    -0.246 NA
ATOM      3  C3  <0> d           1.336  -0.238  -0.012  0.00  0.00     0.010 A 
ATOM      4  C4  <0> d           0.002  -0.004   0.002  0.00  0.00    -0.025 A 
ATOM      5  S2  <0> d          -0.022   1.782   0.012  0.00  0.00    -0.074 SA
ATOM      6  H4  <0> d           1.719  -1.248  -0.021  0.00  0.00     0.115 H 
ATOM      7  H5  <0> d          -0.820  -0.704   0.006  0.00  0.00     0.097 H 
ENDROOT
BRANCH   1   8
ATOM      8  S1  <0> d           2.595   3.548  -0.004  0.00  0.00    -0.107 SA
BRANCH   8   9
ATOM      9  C1  <0> d           4.288   2.910  -0.024  0.00  0.00    -0.028 C 
ATOM     10  H1  <0> d           4.455   2.296   0.862  0.00  0.00     0.042 H 
ATOM     11  H2  <0> d           4.438   2.305  -0.918  0.00  0.00     0.042 H 
ATOM     12  H3  <0> d           4.991   3.743  -0.026  0.00  0.00     0.042 H 
ENDBRANCH   8   9
ENDBRANCH   1   8
TORSDOF 2
