REMARK  2 active torsions:
REMARK  status: ('A' for Active; 'I' for Inactive)
REMARK    1  A    between atoms: C3_3  and  C4_4 
REMARK    2  A    between atoms: C5_8  and  N4_10 
ROOT
ATOM      1  C4  <0> d           1.210   1.792   0.000  0.00  0.00     0.169 A 
ATOM      2  N1  <0> d           2.050   0.744  -0.012  0.00  0.00    -0.143 NA
ATOM      3  H1  <0> d           1.719  -1.405  -0.021  0.00  0.00     0.208 HD
ATOM      4  N2  <0> d           1.250  -0.409  -0.011  0.00  0.00    -0.106 N 
ATOM      5  C5  <0> d           0.002  -0.004   0.002  0.00  0.00     0.716 A 
ATOM      6  N3  <0> d          -0.016   1.332   0.009  0.00  0.00    -0.046 NA
ENDROOT
BRANCH   1   7
ATOM      7  C3  <0> d           1.608   3.245   0.003  0.00  0.00     0.008 A 
ATOM      8  C1  <0> d           3.055   3.580   0.370  0.00  0.00    -0.054 A 
ATOM      9  C2  <0> d           1.925   3.888   1.355  0.00  0.00    -0.054 A 
ATOM     10  H2  <0> d           3.657   2.659   0.366  0.00  0.00     0.034 H 
ATOM     11  H3  <0> d           3.465   4.289  -0.365  0.00  0.00     0.034 H 
ATOM     12  H4  <0> d           2.095   3.339   2.292  0.00  0.00     0.034 H 
ATOM     13  H5  <0> d           1.903   4.968   1.561  0.00  0.00     0.034 H 
ATOM     14  H6  <0> d           0.939   3.478  -0.838  0.00  0.00     0.052 H 
ENDBRANCH   1   7
BRANCH   5  15
ATOM     15  N4  <0> d          -1.122  -0.832   0.008  0.00  0.00    -0.231 N 
ATOM     16  H7  <0> d          -1.000  -1.925   0.001  0.00  0.00     0.174 HD
ATOM     17  H8  <0> d          -2.130  -0.392   0.019  0.00  0.00     0.174 HD
ENDBRANCH   5  15
TORSDOF 2
