REMARK  1 active torsions:
REMARK  status: ('A' for Active; 'I' for Inactive)
REMARK    1  A    between atoms: C3_3  and  C5_7 
ROOT
ATOM      1  C5  <0> d           3.581   0.665  -0.029  0.00  0.00     0.055 C 
ATOM      2  N2  <0> d           4.322   1.723  -0.025  0.00  0.00    -0.292 NA
ATOM      3  C6  <0> d           5.753   1.399  -0.045  0.00  0.00     0.015 C 
ATOM      4  C7  <0> d           5.835  -0.092   0.358  0.00  0.00    -0.043 C 
ATOM      5  C8  <0> d           4.427  -0.588  -0.044  0.00  0.00    -0.021 C 
ATOM      6  H5  <0> d           6.160   1.543  -1.045  0.00  0.00     0.067 H 
ATOM      7  H6  <0> d           6.290   2.015   0.676  0.00  0.00     0.067 H 
ATOM      8  H7  <0> d           6.612  -0.608  -0.206  0.00  0.00     0.036 H 
ATOM      9  H8  <0> d           5.994  -0.201   1.431  0.00  0.00     0.036 H 
ATOM     10  H9  <0> d           4.054  -1.311   0.682  0.00  0.00     0.042 H 
ATOM     11  H10 <0> d           4.449  -1.024  -1.043  0.00  0.00     0.042 H 
ENDROOT
BRANCH   1  12
ATOM     12  C3  <0> d           2.115   0.678  -0.015  0.00  0.00     0.056 A 
ATOM     13  C2  <0> d           1.310   1.797  -0.001  0.00  0.00    -0.054 A 
ATOM     14  C1  <0> d          -0.016   1.349   0.009  0.00  0.00    -0.066 A 
ATOM     15  H3  <0> d           1.640   2.825   0.001  0.00  0.00     0.087 H 
ATOM     16  C4  <0> d           0.002  -0.004   0.002  0.00  0.00    -0.022 A 
ATOM     17  H2  <0> d          -0.898   1.973   0.025  0.00  0.00     0.085 H 
ATOM     18  N1  <0> d           1.293  -0.425  -0.013  0.00  0.00    -0.364 N 
ATOM     19  H4  <0> d          -0.868  -0.644   0.007  0.00  0.00     0.111 H 
ATOM     20  H1  <0> d           1.586  -1.350  -0.021  0.00  0.00     0.165 HD
ENDBRANCH   1  12
TORSDOF 1
