REMARK  0 active torsions:
REMARK  status: ('A' for Active; 'I' for Inactive)
ROOT
ATOM      1  C1  <0> d           1.159   2.040   0.002  0.00  0.00    -0.046 A 
ATOM      2  C2  <0> d          -0.016   1.315   0.009  0.00  0.00     0.005 A 
ATOM      3  N1  <0> d           0.002  -0.004   0.002  0.00  0.00    -0.249 NA
ATOM      4  C3  <0> d           1.130  -0.689  -0.013  0.00  0.00     0.127 A 
ATOM      5  C4  <0> d           2.352  -0.043  -0.021  0.00  0.00    -0.024 A 
ATOM      6  C5  <0> d           2.379   1.355  -0.013  0.00  0.00     0.049 A 
ATOM      7  C6  <0> d           3.622   2.067  -0.022  0.00  0.00     0.099 C 
ATOM      8  N2  <0> d           4.608   2.632  -0.029  0.00  0.00    -0.191 NA
ATOM      9 Cl1  <0> d           1.078  -2.424  -0.021  0.00  0.00    -0.062 Cl
ATOM     10  H1  <0> d           1.136   3.120   0.008  0.00  0.00     0.088 H 
ATOM     11  H2  <0> d          -0.963   1.834   0.017  0.00  0.00     0.114 H 
ATOM     12  H3  <0> d           3.271  -0.610  -0.033  0.00  0.00     0.090 H 
ENDROOT
TORSDOF 0
