REMARK  5 active torsions:
REMARK  status: ('A' for Active; 'I' for Inactive)
REMARK    1  A    between atoms: C1_1  and  O1_2 
REMARK    2  A    between atoms: O1_2  and  C2_3 
REMARK    3  A    between atoms: C2_3  and  C3_4 
REMARK    4  A    between atoms: C8_10  and  C9_12 
REMARK    5  A    between atoms: C9_12  and  O2_13 
ROOT
ATOM      1  C3  <0> d          -1.154  -2.126   0.002  0.00  0.00    -0.028 C 
ATOM      2  H1  <0> d          -0.525  -2.438   0.836  0.00  0.00     0.043 H 
ATOM      3  C4  <0> d          -0.512  -2.571  -1.314  0.00  0.00    -0.059 C 
ATOM      4  C5  <0> d          -0.371  -4.094  -1.324  0.00  0.00    -0.065 C 
ATOM      5  C6  <0> d          -1.753  -4.736  -1.188  0.00  0.00    -0.065 C 
ATOM      6  C7  <0> d          -2.395  -4.291   0.128  0.00  0.00    -0.059 C 
ATOM      7  C8  <0> d          -2.536  -2.768   0.137  0.00  0.00    -0.028 C 
ATOM      8  H2  <0> d          -3.165  -2.456  -0.697  0.00  0.00     0.043 H 
ATOM      9  H8  <0> d          -1.141  -2.259  -2.148  0.00  0.00     0.033 H 
ATOM     10  H9  <0> d           0.473  -2.114  -1.411  0.00  0.00     0.033 H 
ATOM     11  H10 <0> d           0.086  -4.411  -2.261  0.00  0.00     0.033 H 
ATOM     12  H11 <0> d           0.258  -4.406  -0.490  0.00  0.00     0.033 H 
ATOM     13  H12 <0> d          -2.382  -4.424  -2.022  0.00  0.00     0.033 H 
ATOM     14  H13 <0> d          -1.652  -5.821  -1.195  0.00  0.00     0.033 H 
ATOM     15  H14 <0> d          -3.380  -4.748   0.224  0.00  0.00     0.033 H 
ATOM     16  H15 <0> d          -1.766  -4.603   0.962  0.00  0.00     0.033 H 
ENDROOT
BRANCH   1  17
ATOM     17  C2  <0> d          -1.295  -0.603   0.011  0.00  0.00     0.023 C 
ATOM     18  H6  <0> d          -1.832  -0.294   0.908  0.00  0.00     0.074 H 
ATOM     19  H7  <0> d          -1.849  -0.284  -0.872  0.00  0.00     0.074 H 
BRANCH  17  20
ATOM     20  O1  <0> d           0.002  -0.004   0.002  0.00  0.00    -0.396 OA
BRANCH  20  21
ATOM     21  C1  <0> d          -0.017   1.425   0.010  0.00  0.00     0.004 C 
ATOM     22  H3  <0> d           1.005   1.802   0.002  0.00  0.00     0.066 H 
ATOM     23  H4  <0> d          -0.544   1.786  -0.873  0.00  0.00     0.066 H 
ATOM     24  H5  <0> d          -0.527   1.776   0.907  0.00  0.00     0.066 H 
ENDBRANCH  20  21
ENDBRANCH  17  20
ENDBRANCH   1  17
BRANCH   7  25
ATOM     25  C9  <0> d          -3.178  -2.324   1.453  0.00  0.00     0.021 C 
ATOM     26  H16 <0> d          -2.597  -2.711   2.290  0.00  0.00     0.074 H 
ATOM     27  H17 <0> d          -3.198  -1.235   1.498  0.00  0.00     0.074 H 
BRANCH  25  28
ATOM     28  O2  <0> d          -4.513  -2.828   1.526  0.00  0.00    -0.400 OA
ATOM     29  H18 <0> d          -4.982  -2.584   2.336  0.00  0.00     0.209 HD
ENDBRANCH  25  28
ENDBRANCH   7  25
TORSDOF 5
