REMARK  1 active torsions:
REMARK  status: ('A' for Active; 'I' for Inactive)
REMARK    1  A    between atoms: C1_1  and  N1_2 
ROOT
ATOM      1  N1  <0> d          -1.193   1.854   0.018  0.00  0.00    -0.223 N 
ATOM      2  C2  <0> d          -0.014   1.211   0.009  0.00  0.00     0.345 A 
ATOM      3  O1  <0> d           0.002  -0.004   0.002  0.00  0.00    -0.245 OA
ATOM      4  N2  <0> d           1.151   1.889   0.001  0.00  0.00    -0.272 N 
ATOM      5  H1  <0> d           2.025   1.402  -0.009  0.00  0.00     0.174 HD
ATOM      6  C3  <0> d           1.115   3.242   0.008  0.00  0.00     0.290 A 
ATOM      7  O2  <0> d           2.139   3.899   0.002  0.00  0.00    -0.265 OA
ATOM      8  C4  <0> d          -0.210   3.893   0.024  0.00  0.00     0.224 A 
ATOM      9  N3  <0> d          -1.284   3.135   0.030  0.00  0.00    -0.152 NA
ATOM     10  C5  <0> d          -0.323   5.320   0.032  0.00  0.00     0.127 C 
ATOM     11  N4  <0> d          -0.412   6.453   0.038  0.00  0.00    -0.189 NA
ENDROOT
BRANCH   1  12
ATOM     12  C1  <0> d          -2.425   1.062   0.019  0.00  0.00     0.007 C 
ATOM     13  H2  <0> d          -2.726   0.860   1.048  0.00  0.00     0.059 H 
ATOM     14  H3  <0> d          -3.214   1.617  -0.488  0.00  0.00     0.059 H 
ATOM     15  H4  <0> d          -2.252   0.119  -0.500  0.00  0.00     0.059 H 
ENDBRANCH   1  12
TORSDOF 1
