REMARK  2 active torsions:
REMARK  status: ('A' for Active; 'I' for Inactive)
REMARK    1  A    between atoms: N2_4  and  C4_6 
REMARK    2  A    between atoms: C8_11  and  O1_13 
ROOT
ATOM      1  C4  <0> d           1.771  -1.782  -0.025  0.00  0.00     0.059 C 
ATOM      2  H1  <0> d           2.761  -1.831  -0.479  0.00  0.00     0.079 H 
ATOM      3  C5  <0> d           0.786  -2.675  -0.808  0.00  0.00    -0.042 C 
ATOM      4  C6  <0> d           0.781  -4.012  -0.026  0.00  0.00    -0.061 C 
ATOM      5  C7  <0> d           0.864  -3.546   1.449  0.00  0.00    -0.039 C 
ATOM      6  C8  <0> d           1.822  -2.336   1.410  0.00  0.00     0.057 C 
ATOM      7  H2  <0> d           2.836  -2.654   1.652  0.00  0.00     0.086 H 
ATOM      8  H6  <0> d          -0.209  -2.232  -0.813  0.00  0.00     0.036 H 
ATOM      9  H7  <0> d           1.141  -2.830  -1.827  0.00  0.00     0.036 H 
ATOM     10  H8  <0> d          -0.143  -4.561  -0.206  0.00  0.00     0.033 H 
ATOM     11  H9  <0> d           1.649  -4.617  -0.289  0.00  0.00     0.033 H 
ATOM     12  H10 <0> d          -0.120  -3.243   1.809  0.00  0.00     0.036 H 
ATOM     13  H11 <0> d           1.274  -4.337   2.076  0.00  0.00     0.036 H 
ENDROOT
BRANCH   1  14
ATOM     14  N2  <0> d           1.293  -0.398  -0.012  0.00  0.00    -0.274 N 
ATOM     15  N1  <0> d           2.094   0.751  -0.014  0.00  0.00    -0.185 NA
ATOM     16  C2  <0> d           1.308   1.797  -0.001  0.00  0.00     0.023 A 
ATOM     17  C1  <0> d          -0.016   1.349   0.009  0.00  0.00    -0.048 A 
ATOM     18  H4  <0> d           1.628   2.829   0.002  0.00  0.00     0.117 H 
ATOM     19  C3  <0> d           0.002  -0.004   0.002  0.00  0.00     0.000 A 
ATOM     20  H3  <0> d          -0.898   1.972   0.025  0.00  0.00     0.087 H 
ATOM     21  H5  <0> d          -0.862  -0.653   0.007  0.00  0.00     0.114 H 
ENDBRANCH   1  14
BRANCH   6  22
ATOM     22  O1  <0> d           1.387  -1.337   2.335  0.00  0.00    -0.393 OA
ATOM     23  H12 <0> d           1.396  -1.625   3.258  0.00  0.00     0.210 HD
ENDBRANCH   6  22
TORSDOF 2
