REMARK  3 active torsions:
REMARK  status: ('A' for Active; 'I' for Inactive)
REMARK    1  A    between atoms: C4_4  and  C7_7 
REMARK    2  A    between atoms: C8_8  and  C9_9 
REMARK    3  A    between atoms: C9_9  and  O1_10 
ROOT
ATOM      1  C1  <0> d          -0.017   1.379   0.010  0.00  0.00    -0.083 A 
ATOM      2  C2  <0> d           1.168   2.093   0.002  0.00  0.00    -0.082 A 
ATOM      3  C3  <0> d           2.377   1.429  -0.013  0.00  0.00    -0.073 A 
ATOM      4  C4  <0> d           2.403   0.034  -0.021  0.00  0.00    -0.036 A 
ATOM      5  C5  <0> d           1.204  -0.681  -0.013  0.00  0.00    -0.073 A 
ATOM      6  C6  <0> d           0.002  -0.004   0.002  0.00  0.00    -0.082 A 
ATOM      7  H1  <0> d          -0.960   1.904   0.026  0.00  0.00     0.083 H 
ATOM      8  H2  <0> d           1.147   3.173   0.008  0.00  0.00     0.083 H 
ATOM      9  H3  <0> d           3.302   1.987  -0.020  0.00  0.00     0.084 H 
ATOM     10  H4  <0> d           1.218  -1.760  -0.019  0.00  0.00     0.084 H 
ATOM     11  H5  <0> d          -0.926  -0.556   0.008  0.00  0.00     0.083 H 
ENDROOT
BRANCH   4  12
ATOM     12  C7  <0> d           3.695  -0.685  -0.038  0.00  0.00    -0.075 C 
ATOM     13  C8  <0> d           3.716  -2.010  -0.046  0.00  0.00    -0.080 C 
ATOM     14  H7  <0> d           2.790  -2.565  -0.039  0.00  0.00     0.080 H 
ATOM     15  H6  <0> d           4.621  -0.130  -0.045  0.00  0.00     0.084 H 
BRANCH  13  16
ATOM     16  C9  <0> d           5.033  -2.743  -0.063  0.00  0.00     0.032 C 
ATOM     17  H8  <0> d           5.211  -3.146  -1.060  0.00  0.00     0.080 H 
ATOM     18  H9  <0> d           5.836  -2.053   0.198  0.00  0.00     0.080 H 
BRANCH  16  19
ATOM     19  O1  <0> d           4.996  -3.812   0.884  0.00  0.00    -0.397 OA
ATOM     20  H10 <0> d           5.813  -4.328   0.927  0.00  0.00     0.209 HD
ENDBRANCH  16  19
ENDBRANCH  13  16
ENDBRANCH   4  12
TORSDOF 3
