REMARK  0 active torsions:
REMARK  status: ('A' for Active; 'I' for Inactive)
ROOT
ATOM      1  C1  <0> d          -0.017   1.363   0.009  0.00  0.00    -0.082 A 
ATOM      2  C2  <0> d           1.169   2.083   0.002  0.00  0.00    -0.081 A 
ATOM      3  C3  <0> d           2.385   1.434  -0.013  0.00  0.00    -0.056 A 
ATOM      4  C4  <0> d           2.427   0.043  -0.021  0.00  0.00     0.045 A 
ATOM      5  C5  <0> d           1.223  -0.682  -0.013  0.00  0.00     0.027 A 
ATOM      6  C6  <0> d           0.002  -0.004   0.002  0.00  0.00    -0.068 A 
ATOM      7  C7  <0> d           1.592  -2.101  -0.025  0.00  0.00     0.114 A 
ATOM      8  C8  <0> d           2.960  -2.155  -0.038  0.00  0.00     0.069 A 
ATOM      9  N1  <0> d           3.466  -0.866  -0.036  0.00  0.00    -0.353 N 
ATOM     10  H1  <0> d           4.408  -0.637  -0.044  0.00  0.00     0.166 HD
ATOM     11  C9  <0> d           3.307  -3.529  -0.049  0.00  0.00    -0.033 A 
ATOM     12  C10 <0> d           2.158  -4.227  -0.041  0.00  0.00     0.022 A 
ATOM     13  O1  <0> d           1.125  -3.367  -0.027  0.00  0.00    -0.319 OA
ATOM     14  H2  <0> d          -0.961   1.886   0.026  0.00  0.00     0.083 H 
ATOM     15  H3  <0> d           1.140   3.163   0.008  0.00  0.00     0.083 H 
ATOM     16  H4  <0> d           3.303   2.003  -0.019  0.00  0.00     0.086 H 
ATOM     17  H5  <0> d          -0.925  -0.558   0.008  0.00  0.00     0.085 H 
ATOM     18  H6  <0> d           4.307  -3.939  -0.061  0.00  0.00     0.090 H 
ATOM     19  H7  <0> d           2.078  -5.304  -0.046  0.00  0.00     0.123 H 
ENDROOT
TORSDOF 0
