REMARK  4 active torsions:
REMARK  status: ('A' for Active; 'I' for Inactive)
REMARK    1  A    between atoms: C1_1  and  C2_2 
REMARK    2  A    between atoms: C5_6  and  O3_14 
REMARK    3  A    between atoms: C6_8  and  O2_13 
REMARK    4  A    between atoms: C7_10  and  O1_12 
ROOT
ATOM      1  C2  <0> d           0.002  -0.004   0.002  0.00  0.00    -0.030 C 
ATOM      2  H1  <0> d           0.512  -0.356  -0.895  0.00  0.00     0.043 H 
ATOM      3  C3  <0> d          -1.433  -0.534   0.013  0.00  0.00    -0.057 C 
ATOM      4  C4  <0> d          -1.413  -2.063   0.004  0.00  0.00    -0.038 C 
ATOM      5  C5  <0> d          -0.673  -2.570   1.244  0.00  0.00     0.062 C 
ATOM      6  H2  <0> d          -1.183  -2.219   2.141  0.00  0.00     0.086 H 
ATOM      7  C6  <0> d           0.763  -2.041   1.233  0.00  0.00     0.085 C 
ATOM      8  H3  <0> d           1.273  -2.392   0.336  0.00  0.00     0.090 H 
ATOM      9  C7  <0> d           0.742  -0.511   1.242  0.00  0.00     0.066 C 
ATOM     10  H4  <0> d           1.765  -0.134   1.234  0.00  0.00     0.087 H 
ATOM     11  H8  <0> d          -1.944  -0.182   0.910  0.00  0.00     0.033 H 
ATOM     12  H9  <0> d          -1.960  -0.173  -0.870  0.00  0.00     0.033 H 
ATOM     13  H10 <0> d          -2.435  -2.441   0.012  0.00  0.00     0.036 H 
ATOM     14  H11 <0> d          -0.902  -2.415  -0.892  0.00  0.00     0.036 H 
ENDROOT
BRANCH   1  15
ATOM     15  C1  <0> d          -0.019   1.526   0.010  0.00  0.00    -0.070 C 
ATOM     16  H5  <0> d           1.004   1.903   0.003  0.00  0.00     0.028 H 
ATOM     17  H6  <0> d          -0.546   1.887  -0.873  0.00  0.00     0.028 H 
ATOM     18  H7  <0> d          -0.529   1.877   0.907  0.00  0.00     0.028 H 
ENDBRANCH   1  15
BRANCH   9  19
ATOM     19  O1  <0> d           0.073  -0.050   2.417  0.00  0.00    -0.393 OA
ATOM     20  H12 <0> d           0.488  -0.334   3.243  0.00  0.00     0.210 HD
ENDBRANCH   9  19
BRANCH   7  21
ATOM     21  O2  <0> d           1.454  -2.514   2.391  0.00  0.00    -0.390 OA
ATOM     22  H13 <0> d           1.506  -3.478   2.451  0.00  0.00     0.210 HD
ENDBRANCH   7  21
BRANCH   5  23
ATOM     23  O3  <0> d          -0.653  -3.999   1.236  0.00  0.00    -0.393 OA
ATOM     24  H14 <0> d          -1.531  -4.404   1.242  0.00  0.00     0.210 HD
ENDBRANCH   5  23
TORSDOF 4
