REMARK  3 active torsions:
REMARK  status: ('A' for Active; 'I' for Inactive)
REMARK    1  A    between atoms: C1_1  and  C2_2 
REMARK    2  A    between atoms: C3_3  and  C7_9 
REMARK    3  A    between atoms: C5_5  and  N2_8 
REMARK       I    between atoms: C7_9  and  N3_11 
ROOT
ATOM      1  C2  <0> d          -0.024  -0.005   0.004  0.00  0.00     0.046 A 
ATOM      2  C3  <0> d          -0.100  -0.689  -1.210  0.00  0.00     0.058 A 
ATOM      3  C4  <0> d          -0.054  -2.087  -1.203  0.00  0.00    -0.039 A 
ATOM      4  C5  <0> d           0.067  -2.735   0.021  0.00  0.00     0.044 A 
ATOM      5  C6  <0> d           0.137  -1.978   1.184  0.00  0.00     0.028 A 
ATOM      6  N1  <0> d           0.096  -0.660   1.140  0.00  0.00    -0.263 NA
ATOM      7  H4  <0> d          -0.111  -2.648  -2.124  0.00  0.00     0.088 H 
ATOM      8  H5  <0> d           0.231  -2.475   2.138  0.00  0.00     0.118 H 
ENDROOT
BRANCH   2   9
ATOM      9  C7  <0> d          -0.229   0.052  -2.483  0.00  0.00     0.251 C 
ATOM     10  O1  <0> d          -0.154   1.265  -2.490  0.00  0.00    -0.268 OA
ATOM     11  N3  <0> d          -0.428  -0.618  -3.635  0.00  0.00    -0.366 N 
ATOM     12  H8  <0> d          -0.487  -1.586  -3.630  0.00  0.00     0.159 HD
ATOM     13  H9  <0> d          -0.512  -0.131  -4.470  0.00  0.00     0.159 HD
ENDBRANCH   2   9
BRANCH   1  14
ATOM     14  C1  <0> d          -0.072   1.502   0.015  0.00  0.00    -0.035 C 
ATOM     15  H1  <0> d           0.922   1.899  -0.187  0.00  0.00     0.035 H 
ATOM     16  H2  <0> d          -0.765   1.848  -0.752  0.00  0.00     0.035 H 
ATOM     17  H3  <0> d          -0.410   1.847   0.992  0.00  0.00     0.035 H 
ENDBRANCH   1  14
BRANCH   4  18
ATOM     18  N2  <0> d           0.117  -4.130   0.081  0.00  0.00    -0.398 N 
ATOM     19  H6  <0> d           0.068  -4.653  -0.735  0.00  0.00     0.156 HD
ATOM     20  H7  <0> d           0.202  -4.576   0.939  0.00  0.00     0.156 HD
ENDBRANCH   4  18
TORSDOF 3
