REMARK  2 active torsions:
REMARK  status: ('A' for Active; 'I' for Inactive)
REMARK    1  A    between atoms: C1_1  and  C2_2 
REMARK    2  A    between atoms: C2_2  and  C9_11 
ROOT
ATOM      1  C2  <0> d          -0.729   1.579   1.267  0.00  0.00     0.052 C 
ATOM      2  C3  <0> d          -2.136   0.943   1.377  0.00  0.00    -0.042 C 
ATOM      3  C4  <0> d          -2.072   0.136   2.713  0.00  0.00    -0.036 C 
ATOM      4  H1  <0> d          -3.022  -0.175   3.148  0.00  0.00     0.046 H 
ATOM      5  C5  <0> d          -1.180   1.095   3.582  0.00  0.00    -0.051 C 
ATOM      6  C6  <0> d           0.006   1.076   2.550  0.00  0.00    -0.021 C 
ATOM      7  H2  <0> d           0.909   1.617   2.833  0.00  0.00     0.048 H 
ATOM      8  C7  <0> d           0.160  -0.433   2.324  0.00  0.00    -0.101 C 
ATOM      9  C8  <0> d          -1.058  -0.978   2.428  0.00  0.00    -0.102 C 
ATOM     10  H6  <0> d          -2.903   1.715   1.433  0.00  0.00     0.035 H 
ATOM     11  H7  <0> d          -2.322   0.276   0.535  0.00  0.00     0.035 H 
ATOM     12  H8  <0> d          -0.905   0.655   4.541  0.00  0.00     0.035 H 
ATOM     13  H9  <0> d          -1.618   2.086   3.696  0.00  0.00     0.035 H 
ATOM     14  H10 <0> d           1.087  -0.951   2.128  0.00  0.00     0.077 H 
ATOM     15  H11 <0> d          -1.286  -2.029   2.322  0.00  0.00     0.076 H 
ENDROOT
BRANCH   1  16
ATOM     16  C1  <0> d          -0.013   1.086   0.008  0.00  0.00    -0.059 C 
ATOM     17  H3  <0> d           0.002  -0.004   0.002  0.00  0.00     0.029 H 
ATOM     18  H4  <0> d           1.010   1.463   0.000  0.00  0.00     0.029 H 
ATOM     19  H5  <0> d          -0.540   1.447  -0.875  0.00  0.00     0.029 H 
ENDBRANCH   1  16
BRANCH   1  20
ATOM     20  C9  <0> d          -0.823   3.083   1.266  0.00  0.00     0.182 C 
ATOM     21  O1  <0> d          -0.326   3.720   2.164  0.00  0.00    -0.647 OA
ATOM     22  O2  <0> d          -1.458   3.715   0.267  0.00  0.00    -0.647 OA
ENDBRANCH   1  20
TORSDOF 2
