REMARK  4 active torsions:
REMARK  status: ('A' for Active; 'I' for Inactive)
REMARK    1  A    between atoms: C2_2  and  C3_3 
REMARK    2  A    between atoms: C2_2  and  C5_6 
REMARK    3  A    between atoms: C3_3  and  C4_4 
REMARK    4  A    between atoms: C4_4  and  O1_5 
ROOT
ATOM      1  C1  <0> d          -2.829   4.654  -0.989  0.00  0.00    -0.115 C 
ATOM      2  C2  <0> d          -2.498   3.894   0.045  0.00  0.00    -0.055 C 
ATOM      3  H1  <0> d          -3.758   5.206  -0.978  0.00  0.00     0.067 H 
ATOM      4  H2  <0> d          -2.171   4.723  -1.842  0.00  0.00     0.067 H 
ENDROOT
BRANCH   2   5
ATOM      5  C3  <0> d          -3.416   3.799   1.236  0.00  0.00    -0.021 C 
ATOM      6  H3  <0> d          -2.823   3.707   2.146  0.00  0.00     0.043 H 
ATOM      7  H4  <0> d          -4.032   4.696   1.293  0.00  0.00     0.043 H 
BRANCH   5   8
ATOM      8  C4  <0> d          -4.317   2.571   1.089  0.00  0.00     0.020 C 
ATOM      9  H5  <0> d          -4.910   2.662   0.179  0.00  0.00     0.074 H 
ATOM     10  H6  <0> d          -3.701   1.673   1.032  0.00  0.00     0.074 H 
BRANCH   8  11
ATOM     11  O1  <0> d          -5.188   2.480   2.218  0.00  0.00    -0.401 OA
ATOM     12  H7  <0> d          -5.789   1.723   2.192  0.00  0.00     0.209 HD
ENDBRANCH   8  11
ENDBRANCH   5   8
ENDBRANCH   2   5
BRANCH   2  13
ATOM     13  C5  <0> d          -1.227   3.139   0.030  0.00  0.00    -0.028 A 
ATOM     14  C9  <0> d           0.004   3.804   0.022  0.00  0.00    -0.056 A 
ATOM     15  C8  <0> d           1.166   3.061   0.007  0.00  0.00     0.003 A 
ATOM     16  H11 <0> d           0.044   4.884   0.027  0.00  0.00     0.087 H 
ATOM     17  N1  <0> d           1.126   1.742   0.001  0.00  0.00    -0.273 NA
ATOM     18  H10 <0> d           2.121   3.565   0.001  0.00  0.00     0.114 H 
ATOM     19  C7  <0> d          -0.013   1.076   0.008  0.00  0.00     0.003 A 
ATOM     20  C6  <0> d          -1.222   1.740   0.017  0.00  0.00    -0.056 A 
ATOM     21  H9  <0> d           0.002  -0.004   0.002  0.00  0.00     0.114 H 
ATOM     22  H8  <0> d          -2.150   1.188   0.018  0.00  0.00     0.087 H 
ENDBRANCH   2  13
TORSDOF 4
