REMARK  3 active torsions:
REMARK  status: ('A' for Active; 'I' for Inactive)
REMARK    1  A    between atoms: C1_1  and  C2_2 
REMARK    2  A    between atoms: C6_6  and  N2_11 
REMARK    3  A    between atoms: C7_7  and  C8_8 
REMARK       I    between atoms: C8_8  and  N1_10 
ROOT
ATOM      1  C2  <0> d           0.002  -0.004   0.002  0.00  0.00    -0.044 A 
ATOM      2  C3  <0> d          -0.017   1.374   0.010  0.00  0.00    -0.076 A 
ATOM      3  C4  <0> d           1.169   2.090   0.002  0.00  0.00    -0.080 A 
ATOM      4  C5  <0> d           2.383   1.433  -0.013  0.00  0.00    -0.057 A 
ATOM      5  C6  <0> d           2.422   0.044  -0.021  0.00  0.00     0.042 A 
ATOM      6  C7  <0> d           1.222  -0.684  -0.013  0.00  0.00     0.063 A 
ATOM      7  H4  <0> d          -0.961   1.898   0.017  0.00  0.00     0.084 H 
ATOM      8  H5  <0> d           1.144   3.170   0.008  0.00  0.00     0.083 H 
ATOM      9  H6  <0> d           3.303   1.998  -0.019  0.00  0.00     0.086 H 
ENDROOT
BRANCH   6  10
ATOM     10  C8  <0> d           1.249  -2.159  -0.021  0.00  0.00     0.252 C 
ATOM     11  O1  <0> d           1.250  -2.761  -1.077  0.00  0.00    -0.268 OA
ATOM     12  N1  <0> d           1.273  -2.838   1.143  0.00  0.00    -0.366 N 
ATOM     13  H7  <0> d           1.294  -3.938   1.137  0.00  0.00     0.159 HD
ATOM     14  H8  <0> d           1.272  -2.293   2.098  0.00  0.00     0.159 HD
ENDBRANCH   6  10
BRANCH   1  15
ATOM     15  C1  <0> d          -1.292  -0.776   0.011  0.00  0.00    -0.050 C 
ATOM     16  H1  <0> d          -2.138  -0.073   0.023  0.00  0.00     0.033 H 
ATOM     17  H2  <0> d          -1.333  -1.414   0.906  0.00  0.00     0.033 H 
ATOM     18  H3  <0> d          -1.350  -1.405  -0.890  0.00  0.00     0.033 H 
ENDBRANCH   1  15
BRANCH   5  19
ATOM     19  N2  <0> d           3.642  -0.620  -0.036  0.00  0.00    -0.398 N 
ATOM     20  H9  <0> d           3.669  -1.719  -0.042  0.00  0.00     0.156 HD
ATOM     21  H10 <0> d           4.580  -0.046  -0.041  0.00  0.00     0.156 HD
ENDBRANCH   5  19
TORSDOF 3
