REMARK  2 active torsions:
REMARK  status: ('A' for Active; 'I' for Inactive)
REMARK    1  A    between atoms: C3_4  and  C6_8 
REMARK    2  A    between atoms: C5_6  and  O1_7 
ROOT
ATOM      1  C1  <0> d           1.161   2.040   0.002  0.00  0.00    -0.034 A 
ATOM      2  C2  <0> d          -0.016   1.312   0.009  0.00  0.00     0.006 A 
ATOM      3  N1  <0> d           0.002  -0.004   0.002  0.00  0.00    -0.254 NA
ATOM      4  C3  <0> d           1.141  -0.688  -0.013  0.00  0.00     0.135 A 
ATOM      5  C4  <0> d           2.364  -0.027  -0.020  0.00  0.00    -0.017 A 
ATOM      6  C5  <0> d           2.378   1.366  -0.013  0.00  0.00     0.069 A 
ATOM      7  H1  <0> d           1.135   3.119   0.008  0.00  0.00     0.089 H 
ATOM      8  H2  <0> d          -0.963   1.831   0.017  0.00  0.00     0.114 H 
ATOM      9  H3  <0> d           3.289  -0.584  -0.032  0.00  0.00     0.091 H 
ENDROOT
BRANCH   4  10
ATOM     10  C6  <0> d           1.107  -2.169  -0.020  0.00  0.00     0.229 C 
ATOM     11  O2  <0> d           2.145  -2.800  -0.033  0.00  0.00    -0.643 OA
ATOM     12  O3  <0> d          -0.074  -2.816  -0.012  0.00  0.00    -0.643 OA
ENDBRANCH   4  10
BRANCH   6  13
ATOM     13  O1  <0> d           3.551   2.050  -0.019  0.00  0.00    -0.361 OA
ATOM     14  H4  <0> d           3.883   2.252  -0.905  0.00  0.00     0.217 HD
ENDBRANCH   6  13
TORSDOF 2
