REMARK  3 active torsions:
REMARK  status: ('A' for Active; 'I' for Inactive)
REMARK    1  A    between atoms: C2_2  and  C3_3 
REMARK    2  A    between atoms: C3_3  and  N1_4 
REMARK    3  A    between atoms: N1_4  and  C4_5 
ROOT
ATOM      1  C4  <0> d          -0.848   3.345   1.445  0.00  0.00     0.028 A 
ATOM      2  C5  <0> d          -0.337   4.261   0.535  0.00  0.00    -0.058 A 
ATOM      3  C6  <0> d          -0.485   5.615   0.763  0.00  0.00    -0.081 A 
ATOM      4  C7  <0> d          -1.133   6.060   1.901  0.00  0.00    -0.083 A 
ATOM      5  C8  <0> d          -1.638   5.151   2.812  0.00  0.00    -0.081 A 
ATOM      6  C9  <0> d          -1.498   3.795   2.588  0.00  0.00    -0.058 A 
ATOM      7  H7  <0> d           0.173   3.915  -0.352  0.00  0.00     0.086 H 
ATOM      8  H8  <0> d          -0.092   6.328   0.053  0.00  0.00     0.083 H 
ATOM      9  H9  <0> d          -1.244   7.119   2.079  0.00  0.00     0.083 H 
ATOM     10  H10 <0> d          -2.144   5.501   3.700  0.00  0.00     0.083 H 
ATOM     11  H11 <0> d          -1.893   3.086   3.300  0.00  0.00     0.086 H 
ENDROOT
BRANCH   1  12
ATOM     12  N1  <0> d          -0.704   1.975   1.216  0.00  0.00    -0.386 N 
ATOM     13  H6  <0> d          -1.058   1.337   1.854  0.00  0.00     0.160 HD
BRANCH  12  14
ATOM     14  C3  <0> d          -0.018   1.503   0.010  0.00  0.00     0.007 C 
ATOM     15  H4  <0> d           1.004   1.880   0.003  0.00  0.00     0.070 H 
ATOM     16  H5  <0> d          -0.545   1.864  -0.873  0.00  0.00     0.070 H 
BRANCH  14  17
ATOM     17  C2  <0> d           0.002  -0.004   0.002  0.00  0.00    -0.095 C 
ATOM     18  C1  <0> d          -0.478  -0.660  -1.025  0.00  0.00    -0.123 C 
ATOM     19  H1  <0> d          -0.889  -0.121  -1.866  0.00  0.00     0.066 H 
ATOM     20  H2  <0> d          -0.464  -1.740  -1.031  0.00  0.00     0.066 H 
ATOM     21  H3  <0> d           0.413  -0.543   0.843  0.00  0.00     0.078 H 
ENDBRANCH  14  17
ENDBRANCH  12  14
ENDBRANCH   1  12
TORSDOF 3
