REMARK  4 active torsions:
REMARK  status: ('A' for Active; 'I' for Inactive)
REMARK    1  A    between atoms: C1_1  and  O1_2 
REMARK    2  A    between atoms: O1_2  and  C2_3 
REMARK    3  A    between atoms: C2_3  and  C3_5 
REMARK    4  A    between atoms: C4_6  and  O3_11 
ROOT
ATOM      1  C3  <0> d           1.236  -0.664  -0.013  0.00  0.00     0.164 A 
ATOM      2  C4  <0> d           0.002  -0.004   0.002  0.00  0.00     0.100 A 
ATOM      3  C5  <0> d          -0.017   1.389   0.010  0.00  0.00    -0.047 A 
ATOM      4  C6  <0> d           1.190   2.064   0.002  0.00  0.00    -0.063 A 
ATOM      5  C7  <0> d           2.376   1.343  -0.013  0.00  0.00     0.003 A 
ATOM      6  N1  <0> d           2.370   0.029  -0.020  0.00  0.00    -0.252 NA
ATOM      7  H4  <0> d          -0.952   1.929   0.017  0.00  0.00     0.087 H 
ATOM      8  H5  <0> d           1.210   3.144   0.007  0.00  0.00     0.085 H 
ATOM      9  H6  <0> d           3.318   1.870  -0.020  0.00  0.00     0.114 H 
ENDROOT
BRANCH   1  10
ATOM     10  C2  <0> d           1.279  -2.140  -0.021  0.00  0.00     0.314 C 
ATOM     11  O2  <0> d           0.245  -2.778  -0.014  0.00  0.00    -0.257 OA
BRANCH  10  12
ATOM     12  O1  <0> d           2.465  -2.780  -0.036  0.00  0.00    -0.321 OA
BRANCH  12  13
ATOM     13  C1  <0> d           2.430  -4.232  -0.043  0.00  0.00     0.013 C 
ATOM     14  H1  <0> d           3.449  -4.619  -0.055  0.00  0.00     0.067 H 
ATOM     15  H2  <0> d           1.917  -4.587   0.850  0.00  0.00     0.067 H 
ATOM     16  H3  <0> d           1.900  -4.578  -0.929  0.00  0.00     0.067 H 
ENDBRANCH  12  13
ENDBRANCH  10  12
ENDBRANCH   1  10
BRANCH   2  17
ATOM     17  O3  <0> d          -1.157  -0.709   0.010  0.00  0.00    -0.358 OA
ATOM     18  H7  <0> d          -1.501  -0.909  -0.871  0.00  0.00     0.217 HD
ENDBRANCH   2  17
TORSDOF 4
