REMARK  3 active torsions:
REMARK  status: ('A' for Active; 'I' for Inactive)
REMARK    1  A    between atoms: C2_2  and  C3_3 
REMARK    2  A    between atoms: C4_4  and  C5_5 
REMARK    3  A    between atoms: C5_5  and  O1_10 
ROOT
ATOM      1  C5  <0> d          -3.501  -2.091   0.024  0.00  0.00     0.121 C 
ATOM      2  C6  <0> d          -4.306  -1.786  -1.256  0.00  0.00    -0.026 C 
ATOM      3  C7  <0> d          -3.938  -2.941  -2.220  0.00  0.00    -0.061 C 
ATOM      4  C8  <0> d          -3.855  -4.163  -1.273  0.00  0.00    -0.061 C 
ATOM      5  C9  <0> d          -3.215  -3.603   0.013  0.00  0.00    -0.026 C 
ATOM      6  H4  <0> d          -5.376  -1.791  -1.045  0.00  0.00     0.038 H 
ATOM      7  H5  <0> d          -4.005  -0.827  -1.677  0.00  0.00     0.038 H 
ATOM      8  H6  <0> d          -4.719  -3.084  -2.968  0.00  0.00     0.033 H 
ATOM      9  H7  <0> d          -2.976  -2.755  -2.696  0.00  0.00     0.033 H 
ATOM     10  H8  <0> d          -4.852  -4.553  -1.065  0.00  0.00     0.033 H 
ATOM     11  H9  <0> d          -3.224  -4.940  -1.706  0.00  0.00     0.033 H 
ATOM     12  H10 <0> d          -2.139  -3.779   0.002  0.00  0.00     0.038 H 
ATOM     13  H11 <0> d          -3.661  -4.074   0.889  0.00  0.00     0.038 H 
ENDROOT
BRANCH   1  14
ATOM     14  C4  <0> d          -2.237  -1.338   0.016  0.00  0.00    -0.064 C 
ATOM     15  C3  <0> d          -1.228  -0.737   0.010  0.00  0.00    -0.076 C 
BRANCH  15  16
ATOM     16  C2  <0> d           0.002  -0.004   0.002  0.00  0.00    -0.042 C 
ATOM     17  C1  <0> d          -0.016   1.325   0.009  0.00  0.00    -0.114 C 
ATOM     18  H1  <0> d           0.912   1.877   0.003  0.00  0.00     0.067 H 
ATOM     19  H2  <0> d          -0.959   1.852   0.017  0.00  0.00     0.067 H 
ATOM     20  H3  <0> d           0.945  -0.531  -0.010  0.00  0.00     0.096 H 
ENDBRANCH  15  16
ENDBRANCH   1  14
BRANCH   1  21
ATOM     21  O1  <0> d          -4.269  -1.746   1.180  0.00  0.00    -0.378 OA
ATOM     22  H12 <0> d          -4.491  -0.807   1.238  0.00  0.00     0.211 HD
ENDBRANCH   1  21
TORSDOF 3
