REMARK  5 active torsions:
REMARK  status: ('A' for Active; 'I' for Inactive)
REMARK    1  A    between atoms: C1_1  and  C2_2 
REMARK    2  A    between atoms: N1_8  and  C5_9 
REMARK    3  A    between atoms: C5_9  and  C6_10 
REMARK    4  A    between atoms: C6_10  and  C7_12 
REMARK    5  A    between atoms: C6_10  and  O3_13 
ROOT
ATOM      1  C2  <0> d          -0.810   1.622  -1.197  0.00  0.00     0.034 A 
ATOM      2  H1  <0> d          -1.191   0.798  -1.800  0.00  0.00     0.075 H 
ATOM      3  C3  <0> d          -0.013   1.086   0.008  0.00  0.00     0.049 A 
ATOM      4  O1  <0> d          -0.744   1.580   1.167  0.00  0.00    -0.302 OA
ATOM      5  C4  <0> d          -1.803   2.291   0.753  0.00  0.00     0.363 A 
ATOM      6  O2  <0> d          -2.587   2.818   1.517  0.00  0.00    -0.238 OA
ATOM      7  N1  <0> d          -1.918   2.367  -0.580  0.00  0.00    -0.319 N 
ATOM      8  H6  <0> d           0.002  -0.004   0.002  0.00  0.00     0.078 H 
ATOM      9  H7  <0> d           1.003   1.481   0.000  0.00  0.00     0.078 H 
ENDROOT
BRANCH   7  10
ATOM     10  C5  <0> d          -2.974   3.077  -1.305  0.00  0.00     0.024 C 
ATOM     11  H8  <0> d          -3.315   3.926  -0.712  0.00  0.00     0.068 H 
ATOM     12  H9  <0> d          -2.585   3.434  -2.259  0.00  0.00     0.068 H 
BRANCH  10  13
ATOM     13  C6  <0> d          -4.147   2.128  -1.557  0.00  0.00     0.047 C 
ATOM     14  H2  <0> d          -3.789   1.237  -2.073  0.00  0.00     0.084 H 
BRANCH  13  15
ATOM     15  C7  <0> d          -5.197   2.830  -2.420  0.00  0.00    -0.051 C 
ATOM     16  H10 <0> d          -4.750   3.117  -3.373  0.00  0.00     0.030 H 
ATOM     17  H11 <0> d          -6.032   2.154  -2.599  0.00  0.00     0.030 H 
ATOM     18  H12 <0> d          -5.555   3.721  -1.904  0.00  0.00     0.030 H 
ENDBRANCH  13  15
BRANCH  13  19
ATOM     19  O3  <0> d          -4.732   1.752  -0.308  0.00  0.00    -0.394 OA
ATOM     20  H13 <0> d          -5.483   1.149  -0.391  0.00  0.00     0.210 HD
ENDBRANCH  13  19
ENDBRANCH  10  13
ENDBRANCH   7  10
BRANCH   1  21
ATOM     21  C1  <0> d           0.059   2.554  -2.044  0.00  0.00    -0.055 C 
ATOM     22  H3  <0> d           0.915   2.000  -2.432  0.00  0.00     0.030 H 
ATOM     23  H4  <0> d          -0.529   2.942  -2.876  0.00  0.00     0.030 H 
ATOM     24  H5  <0> d           0.410   3.382  -1.429  0.00  0.00     0.030 H 
ENDBRANCH   1  21
TORSDOF 5
