REMARK  3 active torsions:
REMARK  status: ('A' for Active; 'I' for Inactive)
REMARK    1  A    between atoms: C1_1  and  N1_2 
REMARK       I    between atoms: N2_5  and  C6_8 
REMARK    2  A    between atoms: C6_8  and  C7_10 
REMARK    3  A    between atoms: C7_10  and  O2_11 
ROOT
ATOM      1  N1  <0> d           0.837  -0.485   1.111  0.00  0.00     0.087 N 
ATOM      2  C2  <0> d           0.002  -0.004   0.002  0.00  0.00     0.128 C 
ATOM      3  C3  <0> d          -0.019   1.528   0.010  0.00  0.00     0.023 C 
ATOM      4  N2  <0> d           1.369   2.014  -0.000  0.00  0.00    -0.347 N 
ATOM      5  C4  <0> d           2.304   1.472   0.998  0.00  0.00     0.023 C 
ATOM      6  C5  <0> d           2.233  -0.058   0.950  0.00  0.00     0.128 C 
ATOM      7  C6  <0> d           1.774   2.932  -0.900  0.00  0.00     0.243 C 
ATOM      8  O1  <0> d           0.990   3.369  -1.716  0.00  0.00    -0.271 OA
ATOM      9  H4  <0> d           0.417  -0.361  -0.952  0.00  0.00     0.082 H 
ATOM     10  H5  <0> d          -1.022  -0.387   0.122  0.00  0.00     0.082 H 
ATOM     11  H6  <0> d          -0.551   1.893  -0.881  0.00  0.00     0.067 H 
ATOM     12  H7  <0> d          -0.534   1.883   0.915  0.00  0.00     0.067 H 
ATOM     13  H8  <0> d           3.325   1.808   0.764  0.00  0.00     0.067 H 
ATOM     14  H9  <0> d           2.021   1.830   1.998  0.00  0.00     0.067 H 
ATOM     15  H10 <0> d           2.842  -0.479   1.764  0.00  0.00     0.082 H 
ATOM     16  H11 <0> d           2.618  -0.414  -0.017  0.00  0.00     0.082 H 
ENDROOT
BRANCH   7  17
ATOM     17  C7  <0> d           3.201   3.417  -0.893  0.00  0.00     0.090 C 
ATOM     18  H12 <0> d           3.426   3.880   0.079  0.00  0.00     0.088 H 
ATOM     19  H13 <0> d           3.878   2.566  -1.059  0.00  0.00     0.088 H 
BRANCH  17  20
ATOM     20  O2  <0> d           3.382   4.379  -1.933  0.00  0.00    -0.392 OA
ATOM     21  H14 <0> d           4.366   4.848  -2.084  0.00  0.00     0.210 HD
ENDBRANCH  17  20
ENDBRANCH   7  17
BRANCH   1  22
ATOM     22  C1  <0> d           0.746  -1.946   1.243  0.00  0.00     0.095 C 
ATOM     23  H1  <0> d          -0.308  -2.238   1.361  0.00  0.00     0.071 H 
ATOM     24  H2  <0> d           1.318  -2.270   2.125  0.00  0.00     0.071 H 
ATOM     25  H3  <0> d           1.160  -2.422   0.342  0.00  0.00     0.071 H 
ENDBRANCH   1  22
TORSDOF 3
