REMARK  2 active torsions:
REMARK  status: ('A' for Active; 'I' for Inactive)
REMARK    1  A    between atoms: C3_5  and  O1_7 
REMARK    2  A    between atoms: O1_7  and  C4_8 
ROOT
ATOM      1  H1  <0> d           0.012  -0.013  -0.032  0.00  0.00     0.066 H 
ATOM      2  C1  <0> d          -0.013   1.086   0.008  0.00  0.00     0.010 A 
ATOM      3  C2  <0> d          -0.794   1.613   1.228  0.00  0.00     0.010 A 
ATOM      4  N1  <0> d          -1.914   2.361   0.631  0.00  0.00    -0.355 N 
ATOM      5  C3  <0> d          -1.844   2.314  -0.657  0.00  0.00     0.214 A 
ATOM      6  N2  <0> d          -0.781   1.601  -1.137  0.00  0.00    -0.355 N 
ATOM      7  H2  <0> d          -1.139   0.764   1.837  0.00  0.00     0.066 H 
ATOM      8  H3  <0> d          -0.139   2.256   1.833  0.00  0.00     0.066 H 
ATOM      9  H4  <0> d           1.014   1.477  -0.034  0.00  0.00     0.066 H 
ATOM     10  H5  <0> d          -0.453   1.381  -2.164  0.00  0.00     0.163 HD
ATOM     11  H9  <0> d          -2.734   2.910   1.117  0.00  0.00     0.163 HD
ENDROOT
BRANCH   5  12
ATOM     12  O1  <0> d          -2.744   2.918  -1.462  0.00  0.00    -0.327 OA
BRANCH  12  13
ATOM     13  C4  <0> d          -3.807   3.632  -0.827  0.00  0.00     0.013 C 
ATOM     14  H6  <0> d          -4.463   4.072  -1.593  0.00  0.00     0.067 H 
ATOM     15  H7  <0> d          -3.388   4.432  -0.199  0.00  0.00     0.067 H 
ATOM     16  H8  <0> d          -4.389   2.940  -0.200  0.00  0.00     0.067 H 
ENDBRANCH  12  13
ENDBRANCH   5  12
TORSDOF 2
