REMARK  1 active torsions:
REMARK  status: ('A' for Active; 'I' for Inactive)
REMARK    1  A    between atoms: C6_6  and  N1_7 
ROOT
ATOM      1  C1  <0> d           2.388   1.417  -0.014  0.00  0.00    -0.052 A 
ATOM      2  C2  <0> d           2.410   0.034  -0.021  0.00  0.00    -0.042 A 
ATOM      3  C3  <0> d           1.227  -0.681  -0.013  0.00  0.00     0.140 A 
ATOM      4  C4  <0> d           0.002  -0.004   0.002  0.00  0.00     0.123 A 
ATOM      5  C5  <0> d          -0.017   1.393   0.010  0.00  0.00     0.166 A 
ATOM      6  C6  <0> d           1.179   2.099   0.002  0.00  0.00     0.066 A 
ATOM      7  F1  <0> d          -1.194   2.056   0.019  0.00  0.00    -0.202 F 
ATOM      8  C7  <0> d          -1.226  -0.740   0.009  0.00  0.00     0.106 C 
ATOM      9  N2  <0> d          -2.201  -1.324   0.015  0.00  0.00    -0.191 NA
ATOM     10  F2  <0> d           1.254  -2.031  -0.020  0.00  0.00    -0.204 F 
ATOM     11  H1  <0> d           3.317   1.968  -0.020  0.00  0.00     0.087 H 
ATOM     12  H2  <0> d           3.354  -0.490  -0.033  0.00  0.00     0.088 H 
ENDROOT
BRANCH   6  13
ATOM     13  N1  <0> d           1.166   3.499   0.009  0.00  0.00    -0.397 N 
ATOM     14  H3  <0> d           0.321   3.976   0.020  0.00  0.00     0.156 HD
ATOM     15  H4  <0> d           2.001   3.992   0.004  0.00  0.00     0.156 HD
ENDBRANCH   6  13
TORSDOF 1
