REMARK  6 active torsions:
REMARK  status: ('A' for Active; 'I' for Inactive)
REMARK    1  A    between atoms: C1_1  and  C2_2 
REMARK    2  A    between atoms: C2_2  and  O1_3 
REMARK    3  A    between atoms: O1_3  and  C3_4 
REMARK    4  A    between atoms: C3_4  and  C4_6 
REMARK    5  A    between atoms: C4_6  and  C7_9 
REMARK    6  A    between atoms: C7_9  and  O3_10 
ROOT
ATOM      1  C4  <0> d           1.468  -2.353  -2.550  0.00  0.00     0.069 A 
ATOM      2  C5  <0> d           0.606  -3.087  -3.579  0.00  0.00    -0.046 A 
ATOM      3  C6  <0> d           1.554  -3.876  -2.675  0.00  0.00    -0.046 A 
ATOM      4  H6  <0> d          -0.463  -3.164  -3.377  0.00  0.00     0.035 H 
ATOM      5  H7  <0> d           0.879  -2.985  -4.629  0.00  0.00     0.035 H 
ATOM      6  H8  <0> d           2.453  -4.293  -3.130  0.00  0.00     0.035 H 
ATOM      7  H9  <0> d           1.111  -4.472  -1.878  0.00  0.00     0.035 H 
ENDROOT
BRANCH   1   8
ATOM      8  C3  <0> d           0.775  -1.794  -1.334  0.00  0.00     0.269 C 
ATOM      9  O2  <0> d           0.314  -2.540  -0.504  0.00  0.00    -0.264 OA
BRANCH   8  10
ATOM     10  O1  <0> d           0.671  -0.465  -1.174  0.00  0.00    -0.321 OA
BRANCH  10  11
ATOM     11  C2  <0> d           0.002  -0.004   0.002  0.00  0.00     0.025 C 
ATOM     12  H4  <0> d           0.529  -0.365   0.885  0.00  0.00     0.074 H 
ATOM     13  H5  <0> d          -1.020  -0.381   0.010  0.00  0.00     0.074 H 
BRANCH  11  14
ATOM     14  C1  <0> d          -0.019   1.526   0.010  0.00  0.00    -0.056 C 
ATOM     15  H1  <0> d           1.004   1.903   0.003  0.00  0.00     0.030 H 
ATOM     16  H2  <0> d          -0.546   1.887  -0.873  0.00  0.00     0.030 H 
ATOM     17  H3  <0> d          -0.529   1.877   0.907  0.00  0.00     0.030 H 
ENDBRANCH  11  14
ENDBRANCH  10  11
ENDBRANCH   8  10
ENDBRANCH   1   8
BRANCH   1  18
ATOM     18  C7  <0> d           2.649  -1.533  -3.073  0.00  0.00     0.033 C 
ATOM     19  H10 <0> d           3.554  -1.814  -2.534  0.00  0.00     0.075 H 
ATOM     20  H11 <0> d           2.784  -1.729  -4.137  0.00  0.00     0.075 H 
BRANCH  18  21
ATOM     21  O3  <0> d           2.388  -0.142  -2.874  0.00  0.00    -0.400 OA
ATOM     22  H12 <0> d           3.097   0.439  -3.183  0.00  0.00     0.209 HD
ENDBRANCH  18  21
ENDBRANCH   1  18
TORSDOF 6
