REMARK  0 active torsions:
REMARK  status: ('A' for Active; 'I' for Inactive)
ROOT
ATOM      1  C1  <0> d          -0.017   1.381   0.010  0.00  0.00    -0.063 A 
ATOM      2  C2  <0> d           1.180   2.079   0.002  0.00  0.00    -0.045 A 
ATOM      3  C3  <0> d           2.363   1.354  -0.013  0.00  0.00     0.124 A 
ATOM      4  C4  <0> d           2.309  -0.049  -0.020  0.00  0.00     0.185 A 
ATOM      5  N1  <0> d           1.136  -0.673  -0.012  0.00  0.00    -0.239 NA
ATOM      6  C5  <0> d           0.002  -0.004   0.002  0.00  0.00     0.005 A 
ATOM      7  N2  <0> d           3.599  -0.480  -0.035  0.00  0.00    -0.214 NA
ATOM      8  C6  <0> d           4.388   0.553  -0.037  0.00  0.00     0.106 A 
ATOM      9  O1  <0> d           3.671   1.687  -0.024  0.00  0.00    -0.300 OA
ATOM     10  H1  <0> d          -0.957   1.912   0.026  0.00  0.00     0.085 H 
ATOM     11  H2  <0> d           1.191   3.159   0.007  0.00  0.00     0.088 H 
ATOM     12  H3  <0> d          -0.932  -0.546   0.008  0.00  0.00     0.114 H 
ATOM     13  H4  <0> d           5.467   0.505  -0.047  0.00  0.00     0.155 H 
ENDROOT
TORSDOF 0
