REMARK  0 active torsions:
REMARK  status: ('A' for Active; 'I' for Inactive)
ROOT
ATOM      1  C1  <0> d          -0.013   1.076   0.008  0.00  0.00    -0.049 A 
ATOM      2  C2  <0> d           1.186   1.799   0.000  0.00  0.00     0.006 A 
ATOM      3  N1  <0> d           1.164   3.113   0.008  0.00  0.00    -0.240 NA
ATOM      4  C3  <0> d           0.008   3.778   0.022  0.00  0.00     0.172 A 
ATOM      5  C4  <0> d          -0.299   5.152   0.032  0.00  0.00     0.111 A 
ATOM      6  C5  <0> d          -1.701   5.258   0.046  0.00  0.00     0.046 A 
ATOM      7  N2  <0> d          -2.214   4.055   0.044  0.00  0.00    -0.177 NA
ATOM      8  N3  <0> d          -1.184   3.109   0.029  0.00  0.00    -0.226 N 
ATOM      9  C6  <0> d          -1.193   1.745   0.017  0.00  0.00     0.007 A 
ATOM     10  C7  <0> d           0.638   6.235   0.030  0.00  0.00     0.105 C 
ATOM     11  N4  <0> d           1.381   7.094   0.028  0.00  0.00    -0.191 NA
ATOM     12  H1  <0> d           0.002  -0.004   0.002  0.00  0.00     0.087 H 
ATOM     13  H2  <0> d           2.131   1.276  -0.011  0.00  0.00     0.114 H 
ATOM     14  H3  <0> d          -2.261   6.181   0.057  0.00  0.00     0.120 H 
ATOM     15  H4  <0> d          -2.128   1.204   0.019  0.00  0.00     0.115 H 
ENDROOT
TORSDOF 0
