REMARK  0 active torsions:
REMARK  status: ('A' for Active; 'I' for Inactive)
ROOT
ATOM      1  C1  <0> d           1.368   1.595  -0.002  0.00  0.00     0.093 C 
ATOM      2  N1  <0> d           2.434   1.988  -0.011  0.00  0.00    -0.195 NA
ATOM      3  C2  <0> d          -0.013   1.086   0.008  0.00  0.00     0.195 C 
ATOM      4  C3  <0> d          -0.725   1.573  -1.185  0.00  0.00     0.093 C 
ATOM      5  N2  <0> d          -1.274   1.950  -2.105  0.00  0.00    -0.195 NA
ATOM      6  C4  <0> d          -0.702   1.560   1.219  0.00  0.00     0.093 C 
ATOM      7  N3  <0> d          -1.233   1.927   2.154  0.00  0.00    -0.195 NA
ATOM      8  H1  <0> d           0.002  -0.004   0.002  0.00  0.00     0.109 H 
ENDROOT
TORSDOF 0
