REMARK  2 active torsions:
REMARK  status: ('A' for Active; 'I' for Inactive)
REMARK    1  A    between atoms: C1_1  and  C2_2 
REMARK    2  A    between atoms: C2_2  and  C3_4 
ROOT
ATOM      1  C3  <0> d          -2.215   1.325   1.128  0.00  0.00     0.074 C 
ATOM      2  N1  <0> d          -2.802   1.050   0.032  0.00  0.00    -0.290 NA
ATOM      3  C4  <0> d          -2.144   0.934  -1.262  0.00  0.00     0.015 C 
ATOM      4  C5  <0> d          -0.767   1.600  -1.225  0.00  0.00    -0.048 C 
ATOM      5  C6  <0> d          -0.013   1.086   0.008  0.00  0.00    -0.058 C 
ATOM      6  C7  <0> d          -0.742   1.586   1.258  0.00  0.00    -0.021 C 
ATOM      7  H4  <0> d          -2.757   1.418  -2.022  0.00  0.00     0.067 H 
ATOM      8  H5  <0> d          -2.027  -0.120  -1.513  0.00  0.00     0.067 H 
ATOM      9  H6  <0> d          -0.884   2.682  -1.159  0.00  0.00     0.035 H 
ATOM     10  H7  <0> d          -0.212   1.346  -2.128  0.00  0.00     0.035 H 
ATOM     11  H8  <0> d           0.002  -0.004   0.002  0.00  0.00     0.033 H 
ATOM     12  H9  <0> d           1.008   1.468   0.000  0.00  0.00     0.033 H 
ATOM     13  H10 <0> d          -0.388   1.105   2.061  0.00  0.00     0.042 H 
ATOM     14  H11 <0> d          -0.573   2.657   1.372  0.00  0.00     0.042 H 
ENDROOT
BRANCH   1  15
ATOM     15  C2  <0> d          -3.038   1.390   2.353  0.00  0.00     0.169 C 
ATOM     16  O1  <0> d          -2.521   1.647   3.415  0.00  0.00    -0.292 OA
BRANCH  15  17
ATOM     17  C1  <0> d          -4.522   1.136   2.279  0.00  0.00    -0.015 C 
ATOM     18  H1  <0> d          -4.779   0.940   1.333  0.00  0.00     0.038 H 
ATOM     19  H2  <0> d          -4.776   0.283   2.909  0.00  0.00     0.038 H 
ATOM     20  H3  <0> d          -5.059   2.018   2.627  0.00  0.00     0.038 H 
ENDBRANCH  15  17
ENDBRANCH   1  15
TORSDOF 2
