REMARK  4 active torsions:
REMARK  status: ('A' for Active; 'I' for Inactive)
REMARK    1  A    between atoms: C1_1  and  C2_2 
REMARK    2  A    between atoms: C2_2  and  C3_3 
REMARK    3  A    between atoms: C6_6  and  C7_8 
REMARK    4  A    between atoms: C7_8  and  C8_10 
ROOT
ATOM      1  C3  <0> d          -0.740   5.133   1.218  0.00  0.00     0.053 A 
ATOM      2  C4  <0> d          -1.395   4.926   2.383  0.00  0.00    -0.051 A 
ATOM      3  C5  <0> d          -1.489   3.540   2.565  0.00  0.00    -0.044 A 
ATOM      4  C6  <0> d          -0.864   2.958   1.480  0.00  0.00     0.121 A 
ATOM      5  O1  <0> d          -0.422   3.950   0.678  0.00  0.00    -0.311 OA
ATOM      6  H6  <0> d          -1.778   5.687   3.046  0.00  0.00     0.087 H 
ATOM      7  H7  <0> d          -1.957   3.027   3.393  0.00  0.00     0.088 H 
ENDROOT
BRANCH   1   8
ATOM      8  C2  <0> d          -0.418   6.480   0.623  0.00  0.00    -0.024 C 
ATOM      9  H4  <0> d          -0.393   6.401  -0.464  0.00  0.00     0.042 H 
ATOM     10  H5  <0> d          -1.182   7.199   0.917  0.00  0.00     0.042 H 
BRANCH   8  11
ATOM     11  C1  <0> d           0.947   6.949   1.131  0.00  0.00    -0.071 C 
ATOM     12  H1  <0> d           1.180   7.923   0.701  0.00  0.00     0.028 H 
ATOM     13  H2  <0> d           0.922   7.028   2.218  0.00  0.00     0.028 H 
ATOM     14  H3  <0> d           1.711   6.230   0.837  0.00  0.00     0.028 H 
ENDBRANCH   8  11
ENDBRANCH   1   8
BRANCH   4  15
ATOM     15  C7  <0> d          -0.718   1.572   1.248  0.00  0.00     0.179 C 
ATOM     16  O2  <0> d          -1.161   0.772   2.047  0.00  0.00    -0.291 OA
BRANCH  15  17
ATOM     17  C8  <0> d          -0.013   1.086   0.008  0.00  0.00    -0.015 C 
ATOM     18  H8  <0> d           0.001   0.086   0.003  0.00  0.00     0.038 H 
ATOM     19  H9  <0> d           1.010   1.463   0.000  0.00  0.00     0.038 H 
ATOM     20  H10 <0> d          -0.540   1.447  -0.875  0.00  0.00     0.038 H 
ENDBRANCH  15  17
ENDBRANCH   4  15
TORSDOF 4
