REMARK  0 active torsions:
REMARK  status: ('A' for Active; 'I' for Inactive)
ROOT
ATOM      1  C1  <0> d          -0.017   1.380   0.010  0.00  0.00    -0.043 A 
ATOM      2  C2  <0> d           1.164   2.094   0.002  0.00  0.00    -0.054 A 
ATOM      3  C3  <0> d           2.386   1.424  -0.013  0.00  0.00     0.041 A 
ATOM      4  C4  <0> d           2.393   0.035  -0.021  0.00  0.00    -0.020 A 
ATOM      5  C5  <0> d           1.214  -0.676  -0.013  0.00  0.00    -0.037 A 
ATOM      6  C6  <0> d           0.002  -0.004   0.002  0.00  0.00     0.117 A 
ATOM      7  F1  <0> d          -1.157  -0.698   0.010  0.00  0.00    -0.206 F 
ATOM      8  C7  <0> d           3.845  -0.383  -0.036  0.00  0.00     0.035 A 
ATOM      9  C8  <0> d           4.606   0.926  -0.036  0.00  0.00     0.226 A 
ATOM     10  O1  <0> d           5.811   1.059  -0.046  0.00  0.00    -0.273 OA
ATOM     11  N1  <0> d           3.694   1.913  -0.022  0.00  0.00    -0.326 N 
ATOM     12  H1  <0> d          -0.961   1.905   0.026  0.00  0.00     0.088 H 
ATOM     13  H2  <0> d           1.142   3.173   0.008  0.00  0.00     0.087 H 
ATOM     14  H3  <0> d           1.234  -1.756  -0.019  0.00  0.00     0.089 H 
ATOM     15  H4  <0> d           4.085  -0.964   0.855  0.00  0.00     0.054 H 
ATOM     16  H5  <0> d           4.068  -0.954  -0.937  0.00  0.00     0.054 H 
ATOM     17  H6  <0> d           3.919   2.857  -0.020  0.00  0.00     0.169 HD
ENDROOT
TORSDOF 0
