REMARK  1 active torsions:
REMARK  status: ('A' for Active; 'I' for Inactive)
REMARK    1  A    between atoms: C3_4  and  C6_8 
REMARK       I    between atoms: C6_8  and  N2_10 
ROOT
ATOM      1  C1  <0> d           1.163   2.039   0.002  0.00  0.00    -0.045 A 
ATOM      2  C2  <0> d          -0.016   1.311   0.009  0.00  0.00     0.005 A 
ATOM      3  N1  <0> d           0.002  -0.004   0.002  0.00  0.00    -0.255 NA
ATOM      4  C3  <0> d           1.141  -0.686  -0.013  0.00  0.00     0.125 A 
ATOM      5  C4  <0> d           2.364  -0.021  -0.021  0.00  0.00    -0.029 A 
ATOM      6  C5  <0> d           2.377   1.367  -0.013  0.00  0.00     0.037 A 
ATOM      7 Cl1  <0> d           3.876   2.242  -0.024  0.00  0.00    -0.084 Cl
ATOM      8  H1  <0> d           1.137   3.119   0.008  0.00  0.00     0.088 H 
ATOM      9  H2  <0> d          -0.963   1.831   0.017  0.00  0.00     0.114 H 
ATOM     10  H3  <0> d           3.290  -0.577  -0.033  0.00  0.00     0.089 H 
ENDROOT
BRANCH   4  11
ATOM     11  C6  <0> d           1.111  -2.167  -0.020  0.00  0.00     0.268 C 
ATOM     12  O1  <0> d           2.150  -2.796  -0.033  0.00  0.00    -0.266 OA
ATOM     13  N2  <0> d          -0.070  -2.817  -0.011  0.00  0.00    -0.365 N 
ATOM     14  H4  <0> d          -0.900  -2.315  -0.001  0.00  0.00     0.159 HD
ATOM     15  H5  <0> d          -0.090  -3.787  -0.016  0.00  0.00     0.159 HD
ENDBRANCH   4  11
TORSDOF 1
