REMARK  3 active torsions:
REMARK  status: ('A' for Active; 'I' for Inactive)
REMARK    1  A    between atoms: C1_1  and  C2_2 
REMARK    2  A    between atoms: C2_2  and  C3_3 
REMARK    3  A    between atoms: C7_8  and  C8_9 
ROOT
ATOM      1  C3  <0> d           0.002  -0.004   0.002  0.00  0.00    -0.035 A 
ATOM      2  C4  <0> d          -0.104  -0.699  -1.188  0.00  0.00     0.008 A 
ATOM      3  N1  <0> d          -0.087  -2.017  -1.203  0.00  0.00    -0.273 NA
ATOM      4  C5  <0> d           0.030  -2.722  -0.095  0.00  0.00     0.002 A 
ATOM      5  C6  <0> d           0.142  -2.096   1.132  0.00  0.00    -0.060 A 
ATOM      6  C7  <0> d           0.133  -0.711   1.188  0.00  0.00    -0.053 A 
ATOM      7  H6  <0> d          -0.201  -0.156  -2.116  0.00  0.00     0.115 H 
ATOM      8  H7  <0> d           0.040  -3.801  -0.147  0.00  0.00     0.114 H 
ATOM      9  H8  <0> d           0.238  -2.679   2.036  0.00  0.00     0.086 H 
ENDROOT
BRANCH   1  10
ATOM     10  C2  <0> d          -0.018   1.503   0.010  0.00  0.00    -0.043 C 
ATOM     11  H4  <0> d          -0.545   1.864  -0.873  0.00  0.00     0.039 H 
ATOM     12  H5  <0> d          -0.529   1.854   0.907  0.00  0.00     0.039 H 
BRANCH  10  13
ATOM     13  C1  <0> d           1.417   2.032  -0.001  0.00  0.00    -0.073 C 
ATOM     14  H1  <0> d           1.944   1.671   0.882  0.00  0.00     0.028 H 
ATOM     15  H2  <0> d           1.927   1.681  -0.897  0.00  0.00     0.028 H 
ATOM     16  H3  <0> d           1.402   3.122   0.005  0.00  0.00     0.028 H 
ENDBRANCH  10  13
ENDBRANCH   1  10
BRANCH   6  17
ATOM     17  C8  <0> d           0.257   0.009   2.505  0.00  0.00    -0.051 C 
ATOM     18  H9  <0> d          -0.735   0.169   2.927  0.00  0.00     0.033 H 
ATOM     19  H10 <0> d           0.852  -0.591   3.193  0.00  0.00     0.033 H 
ATOM     20  H11 <0> d           0.744   0.972   2.349  0.00  0.00     0.033 H 
ENDBRANCH   6  17
TORSDOF 3
