REMARK  0 active torsions:
REMARK  status: ('A' for Active; 'I' for Inactive)
ROOT
ATOM      1  C1  <0> d           1.153   2.055   0.002  0.00  0.00     0.008 A 
ATOM      2  C2  <0> d           2.335   1.401  -0.012  0.00  0.00     0.117 A 
ATOM      3  C3  <0> d           2.339  -0.015  -0.020  0.00  0.00     0.272 A 
ATOM      4  O1  <0> d           3.392  -0.627  -0.032  0.00  0.00    -0.266 OA
ATOM      5  N1  <0> d           1.166  -0.680  -0.013  0.00  0.00    -0.274 N 
ATOM      6  H1  <0> d           1.160  -1.680  -0.018  0.00  0.00     0.173 HD
ATOM      7  C4  <0> d           0.002  -0.004   0.002  0.00  0.00     0.327 A 
ATOM      8  O2  <0> d          -1.048  -0.618   0.008  0.00  0.00    -0.247 OA
ATOM      9  N2  <0> d          -0.016   1.341   0.009  0.00  0.00    -0.317 N 
ATOM     10  H2  <0> d          -0.891   1.825   0.020  0.00  0.00     0.170 HD
ATOM     11 Cl1  <0> d           3.829   2.285  -0.022  0.00  0.00    -0.077 Cl
ATOM     12  H3  <0> d           1.130   3.134   0.008  0.00  0.00     0.114 H 
ENDROOT
TORSDOF 0
