REMARK  3 active torsions:
REMARK  status: ('A' for Active; 'I' for Inactive)
REMARK    1  A    between atoms: C1_1  and  C2_2 
REMARK    2  A    between atoms: C3_4  and  N4_8 
REMARK       I    between atoms: N4_8  and  C4_9 
REMARK    3  A    between atoms: C4_9  and  C5_11 
ROOT
ATOM      1  C2  <0> d           0.002  -0.004   0.002  0.00  0.00     0.161 A 
ATOM      2  N1  <0> d           0.007  -0.771  -1.088  0.00  0.00    -0.046 NA
ATOM      3  C3  <0> d           0.027  -2.039  -0.739  0.00  0.00     0.725 A 
ATOM      4  N2  <0> d           0.034  -2.097   0.609  0.00  0.00    -0.105 N 
ATOM      5  H1  <0> d           0.048  -2.897   1.157  0.00  0.00     0.208 HD
ATOM      6  N3  <0> d           0.023  -0.767   1.062  0.00  0.00    -0.144 NA
ENDROOT
BRANCH   3   7
ATOM      7  N4  <0> d           0.037  -3.125  -1.603  0.00  0.00    -0.157 N 
ATOM      8  C4  <0> d           0.057  -4.379  -1.110  0.00  0.00     0.232 C 
ATOM      9  O1  <0> d           0.065  -4.558   0.089  0.00  0.00    -0.273 OA
ATOM     10  H5  <0> d           0.031  -2.981  -2.562  0.00  0.00     0.187 HD
BRANCH   8  11
ATOM     11  C5  <0> d           0.068  -5.558  -2.049  0.00  0.00    -0.002 C 
ATOM     12  H6  <0> d           0.955  -5.510  -2.681  0.00  0.00     0.040 H 
ATOM     13  H7  <0> d           0.084  -6.482  -1.471  0.00  0.00     0.040 H 
ATOM     14  H8  <0> d          -0.825  -5.534  -2.673  0.00  0.00     0.040 H 
ENDBRANCH   8  11
ENDBRANCH   3   7
BRANCH   1  15
ATOM     15  C1  <0> d          -0.018   1.503   0.010  0.00  0.00    -0.017 C 
ATOM     16  H2  <0> d           1.004   1.880   0.003  0.00  0.00     0.038 H 
ATOM     17  H3  <0> d          -0.545   1.864  -0.873  0.00  0.00     0.038 H 
ATOM     18  H4  <0> d          -0.529   1.854   0.907  0.00  0.00     0.038 H 
ENDBRANCH   1  15
TORSDOF 3
