REMARK  4 active torsions:
REMARK  status: ('A' for Active; 'I' for Inactive)
REMARK    1  A    between atoms: C1_1  and  C2_2 
REMARK    2  A    between atoms: C4_4  and  C10_11 
REMARK    3  A    between atoms: C6_6  and  C8_8 
REMARK    4  A    between atoms: C8_8  and  C9_10 
ROOT
ATOM      1  C2  <0> d          -0.017   1.380   0.010  0.00  0.00    -0.061 A 
ATOM      2  C3  <0> d           0.002  -0.004   0.002  0.00  0.00    -0.071 A 
ATOM      3  C4  <0> d           1.206  -0.687  -0.013  0.00  0.00    -0.061 A 
ATOM      4  C5  <0> d           2.397   0.008  -0.020  0.00  0.00    -0.064 A 
ATOM      5  C6  <0> d           2.386   1.406  -0.013  0.00  0.00     0.010 A 
ATOM      6  C7  <0> d           1.166   2.089   0.002  0.00  0.00    -0.064 A 
ATOM      7  H4  <0> d          -0.927  -0.554   0.008  0.00  0.00     0.085 H 
ATOM      8  H5  <0> d           3.335  -0.527  -0.031  0.00  0.00     0.085 H 
ATOM      9  H6  <0> d           1.149   3.169   0.008  0.00  0.00     0.085 H 
ENDROOT
BRANCH   5  10
ATOM     10  C8  <0> d           3.653   2.155  -0.021  0.00  0.00     0.155 C 
ATOM     11  O1  <0> d           4.709   1.560  -0.034  0.00  0.00    -0.293 OA
BRANCH  10  12
ATOM     12  C9  <0> d           3.637   3.662  -0.013  0.00  0.00    -0.017 C 
ATOM     13  H7  <0> d           3.642   3.991   0.931  0.00  0.00     0.038 H 
ATOM     14  H8  <0> d           4.518   4.038  -0.533  0.00  0.00     0.038 H 
ATOM     15  H9  <0> d           2.739   4.019  -0.517  0.00  0.00     0.038 H 
ENDBRANCH  10  12
ENDBRANCH   5  10
BRANCH   3  16
ATOM     16  C10 <0> d           1.215  -2.194  -0.020  0.00  0.00    -0.051 C 
ATOM     17  H10 <0> d           1.207  -2.552  -1.050  0.00  0.00     0.033 H 
ATOM     18  H11 <0> d           2.112  -2.554   0.483  0.00  0.00     0.033 H 
ATOM     19  H12 <0> d           0.332  -2.565   0.500  0.00  0.00     0.033 H 
ENDBRANCH   3  16
BRANCH   1  20
ATOM     20  C1  <0> d          -1.333   2.114   0.020  0.00  0.00    -0.051 C 
ATOM     21  H1  <0> d          -1.645   2.285   1.050  0.00  0.00     0.033 H 
ATOM     22  H2  <0> d          -1.220   3.071  -0.489  0.00  0.00     0.033 H 
ATOM     23  H3  <0> d          -2.086   1.516  -0.494  0.00  0.00     0.033 H 
ENDBRANCH   1  20
TORSDOF 4
