REMARK  1 active torsions:
REMARK  status: ('A' for Active; 'I' for Inactive)
REMARK    1  A    between atoms: C7_7  and  C9_10 
ROOT
ATOM      1  C1  <0> d          -3.885   1.623   0.979  0.00  0.00    -0.061 C 
ATOM      2  C2  <0> d          -2.987   1.637   2.244  0.00  0.00    -0.050 C 
ATOM      3  C3  <0> d          -1.761   0.963   1.685  0.00  0.00    -0.107 C 
ATOM      4  C4  <0> d          -0.812   1.619   1.168  0.00  0.00    -0.106 C 
ATOM      5  C5  <0> d          -0.013   1.086   0.008  0.00  0.00    -0.049 C 
ATOM      6  C6  <0> d          -0.859   1.647  -1.165  0.00  0.00    -0.050 C 
ATOM      7  C7  <0> d          -2.334   1.227  -0.996  0.00  0.00     0.031 C 
ATOM      8  H1  <0> d          -2.374   0.273  -0.470  0.00  0.00     0.056 H 
ATOM      9  C8  <0> d          -3.131   2.264  -0.206  0.00  0.00    -0.052 C 
ATOM     10  H2  <0> d          -4.796   2.187   1.176  0.00  0.00     0.033 H 
ATOM     11  H3  <0> d          -4.144   0.594   0.730  0.00  0.00     0.033 H 
ATOM     12  H4  <0> d          -2.770   2.655   2.567  0.00  0.00     0.038 H 
ATOM     13  H5  <0> d          -3.429   1.052   3.051  0.00  0.00     0.038 H 
ATOM     14  H6  <0> d          -1.690  -0.114   1.727  0.00  0.00     0.076 H 
ATOM     15  H7  <0> d          -0.568   2.591   1.569  0.00  0.00     0.076 H 
ATOM     16  H8  <0> d           0.002  -0.004   0.002  0.00  0.00     0.038 H 
ATOM     17  H9  <0> d           0.998   1.494   0.001  0.00  0.00     0.038 H 
ATOM     18  H10 <0> d          -0.790   2.735  -1.172  0.00  0.00     0.034 H 
ATOM     19  H11 <0> d          -0.476   1.255  -2.107  0.00  0.00     0.034 H 
ATOM     20  H12 <0> d          -2.447   3.022   0.175  0.00  0.00     0.034 H 
ATOM     21  H13 <0> d          -3.853   2.739  -0.871  0.00  0.00     0.034 H 
ENDROOT
BRANCH   7  22
ATOM     22  C9  <0> d          -2.957   1.062  -2.358  0.00  0.00     0.177 C 
ATOM     23  O1  <0> d          -3.909   1.737  -2.673  0.00  0.00    -0.648 OA
ATOM     24  O2  <0> d          -2.455   0.166  -3.222  0.00  0.00    -0.648 OA
ENDBRANCH   7  22
TORSDOF 1
