REMARK  1 active torsions:
REMARK  status: ('A' for Active; 'I' for Inactive)
REMARK    1  A    between atoms: C4_4  and  S1_7 
ROOT
ATOM      1  C1  <0> d           1.156   3.165   0.008  0.00  0.00    -0.083 A 
ATOM      2  C2  <0> d           1.175   1.783   0.000  0.00  0.00    -0.082 A 
ATOM      3  C3  <0> d          -0.013   1.076   0.008  0.00  0.00    -0.061 A 
ATOM      4  C4  <0> d          -1.219   1.751   0.017  0.00  0.00     0.074 A 
ATOM      5  C5  <0> d          -1.238   3.133   0.030  0.00  0.00    -0.061 A 
ATOM      6  C6  <0> d          -0.050   3.840   0.022  0.00  0.00    -0.082 A 
ATOM      7  H1  <0> d           2.084   3.718   0.001  0.00  0.00     0.083 H 
ATOM      8  H2  <0> d           2.118   1.256  -0.011  0.00  0.00     0.083 H 
ATOM      9  H3  <0> d           0.002  -0.004   0.002  0.00  0.00     0.085 H 
ATOM     10  H4  <0> d          -2.180   3.660   0.041  0.00  0.00     0.085 H 
ATOM     11  H5  <0> d          -0.065   4.920   0.028  0.00  0.00     0.083 H 
ENDROOT
BRANCH   4  12
ATOM     12  S1  <0> d          -2.733   0.849   0.020  0.00  0.00     0.286 S 
ATOM     13  O1  <0> d          -3.161   0.900   1.374  0.00  0.00    -0.206 OA
ATOM     14  O2  <0> d          -3.707   1.763  -0.709  0.00  0.00    -0.206 OA
ENDBRANCH   4  12
TORSDOF 1
