REMARK  5 active torsions:
REMARK  status: ('A' for Active; 'I' for Inactive)
REMARK    1  A    between atoms: C1_1  and  C2_2 
REMARK    2  A    between atoms: C2_2  and  O1_3 
REMARK    3  A    between atoms: O1_3  and  C3_4 
REMARK    4  A    between atoms: C3_4  and  C4_6 
REMARK    5  A    between atoms: C3_4  and  N1_8 
ROOT
ATOM      1  C3  <0> d          -0.068   1.127   2.404  0.00  0.00     0.143 C 
ATOM      2  H1  <0> d           0.423   0.166   2.252  0.00  0.00     0.127 H 
ENDROOT
BRANCH   1   3
ATOM      3  O1  <0> d          -0.682   1.547   1.184  0.00  0.00    -0.362 OA
BRANCH   3   4
ATOM      4  C2  <0> d          -0.013   1.086   0.008  0.00  0.00     0.019 C 
ATOM      5  H5  <0> d           0.002  -0.004   0.002  0.00  0.00     0.073 H 
ATOM      6  H6  <0> d           1.010   1.463   0.000  0.00  0.00     0.073 H 
BRANCH   4   7
ATOM      7  C1  <0> d          -0.753   1.593  -1.232  0.00  0.00    -0.056 C 
ATOM      8  H2  <0> d          -1.775   1.215  -1.224  0.00  0.00     0.030 H 
ATOM      9  H3  <0> d          -0.767   2.683  -1.226  0.00  0.00     0.030 H 
ATOM     10  H4  <0> d          -0.242   1.241  -2.128  0.00  0.00     0.030 H 
ENDBRANCH   4   7
ENDBRANCH   3   4
ENDBRANCH   1   3
BRANCH   1  11
ATOM     11  C4  <0> d           0.952   2.150   2.832  0.00  0.00    -0.064 C 
ATOM     12  C5  <0> d           1.151   3.221   2.104  0.00  0.00    -0.121 C 
ATOM     13  H8  <0> d           0.583   3.370   1.197  0.00  0.00     0.066 H 
ATOM     14  H9  <0> d           1.882   3.954   2.410  0.00  0.00     0.066 H 
ATOM     15  H7  <0> d           1.520   2.001   3.738  0.00  0.00     0.082 H 
ENDBRANCH   1  11
BRANCH   1  16
ATOM     16  N1  <0> d          -1.091   0.993   3.444  0.00  0.00    -0.230 N 
ATOM     17  N3  <0> d          -2.329   1.654   3.498  0.00  0.00    -0.162 NA
ATOM     18  C7  <0> d          -2.927   1.247   4.586  0.00  0.00     0.107 A 
ATOM     19  N2  <0> d          -2.140   0.374   5.213  0.00  0.00    -0.234 NA
ATOM     20  H11 <0> d          -3.902   1.567   4.923  0.00  0.00     0.149 H 
ATOM     21  C6  <0> d          -1.034   0.208   4.534  0.00  0.00     0.087 A 
ATOM     22  H10 <0> d          -0.216  -0.445   4.804  0.00  0.00     0.146 H 
ENDBRANCH   1  16
TORSDOF 5
