REMARK  3 active torsions:
REMARK  status: ('A' for Active; 'I' for Inactive)
REMARK    1  A    between atoms: C1_1  and  C2_2 
REMARK    2  A    between atoms: C2_2  and  C3_4 
REMARK    3  A    between atoms: C2_2  and  C8_9 
ROOT
ATOM      1  C3  <0> d           0.011   1.072   2.506  0.00  0.00    -0.042 C 
ATOM      2  C4  <0> d          -0.659   1.621   3.783  0.00  0.00    -0.061 C 
ATOM      3  C5  <0> d           0.524   1.904   4.742  0.00  0.00    -0.065 C 
ATOM      4  C6  <0> d           1.616   2.447   3.786  0.00  0.00    -0.065 C 
ATOM      5  C7  <0> d           1.457   1.598   2.508  0.00  0.00    -0.061 C 
ATOM      6  H5  <0> d          -0.014  -0.027   2.479  0.00  0.00     0.041 H 
ATOM      7  H6  <0> d          -1.220   2.535   3.539  0.00  0.00     0.033 H 
ATOM      8  H7  <0> d          -1.348   0.866   4.189  0.00  0.00     0.033 H 
ATOM      9  H8  <0> d           0.216   2.641   5.497  0.00  0.00     0.033 H 
ATOM     10  H9  <0> d           0.823   0.970   5.240  0.00  0.00     0.033 H 
ATOM     11  H10 <0> d           1.437   3.516   3.596  0.00  0.00     0.033 H 
ATOM     12  H11 <0> d           2.606   2.318   4.248  0.00  0.00     0.033 H 
ATOM     13  H12 <0> d           2.156   0.748   2.513  0.00  0.00     0.033 H 
ATOM     14  H13 <0> d           1.627   2.207   1.609  0.00  0.00     0.033 H 
ENDROOT
BRANCH   1  15
ATOM     15  C2  <0> d          -0.729   1.579   1.267  0.00  0.00     0.030 C 
ATOM     16  H1  <0> d          -0.759   2.679   1.273  0.00  0.00     0.056 H 
BRANCH  15  17
ATOM     17  C1  <0> d          -0.013   1.086   0.008  0.00  0.00    -0.063 C 
ATOM     18  H2  <0> d          -0.545   1.450  -0.883  0.00  0.00     0.028 H 
ATOM     19  H3  <0> d           0.002  -0.014   0.002  0.00  0.00     0.028 H 
ATOM     20  H4  <0> d           1.019   1.466   0.000  0.00  0.00     0.028 H 
ENDBRANCH  15  17
BRANCH  15  21
ATOM     21  C8  <0> d          -2.143   1.058   1.278  0.00  0.00     0.177 C 
ATOM     22  O1  <0> d          -2.520   0.353   2.184  0.00  0.00    -0.648 OA
ATOM     23  O2  <0> d          -2.983   1.376   0.281  0.00  0.00    -0.648 OA
ENDBRANCH  15  21
ENDBRANCH   1  15
TORSDOF 3
