REMARK  1 active torsions:
REMARK  status: ('A' for Active; 'I' for Inactive)
REMARK    1  A    between atoms: C1_1  and  C2_2 
ROOT
ATOM      1  C2  <0> d           0.002  -0.004   0.002  0.00  0.00     0.032 A 
ATOM      2  C3  <0> d           0.005  -0.677  -1.206  0.00  0.00    -0.037 A 
ATOM      3  C4  <0> d           0.025  -2.062  -1.210  0.00  0.00     0.058 A 
ATOM      4  C5  <0> d           0.040  -2.729   0.023  0.00  0.00     0.083 A 
ATOM      5  C6  <0> d           0.035  -1.975   1.197  0.00  0.00     0.024 A 
ATOM      6  N1  <0> d           0.022  -0.659   1.147  0.00  0.00    -0.264 NA
ATOM      7  C7  <0> d           0.060  -4.160   0.077  0.00  0.00     0.102 C 
ATOM      8  N2  <0> d           0.075  -5.295   0.120  0.00  0.00    -0.191 NA
ATOM      9 Cl1  <0> d           0.029  -2.949  -2.702  0.00  0.00    -0.083 Cl
ATOM     10  H4  <0> d          -0.007  -0.129  -2.136  0.00  0.00     0.089 H 
ATOM     11  H5  <0> d           0.047  -2.474   2.155  0.00  0.00     0.117 H 
ENDROOT
BRANCH   1  12
ATOM     12  C1  <0> d          -0.018   1.503   0.010  0.00  0.00    -0.035 C 
ATOM     13  H1  <0> d           1.004   1.880   0.003  0.00  0.00     0.035 H 
ATOM     14  H2  <0> d          -0.545   1.864  -0.873  0.00  0.00     0.035 H 
ATOM     15  H3  <0> d          -0.529   1.854   0.907  0.00  0.00     0.035 H 
ENDBRANCH   1  12
TORSDOF 1
