REMARK  6 active torsions:
REMARK  status: ('A' for Active; 'I' for Inactive)
REMARK    1  A    between atoms: C1_1  and  C2_2 
REMARK    2  A    between atoms: C2_2  and  C3_3 
REMARK    3  A    between atoms: C2_2  and  C4_4 
REMARK    4  A    between atoms: C2_2  and  C5_5 
REMARK    5  A    between atoms: C5_5  and  C6_7 
REMARK    6  A    between atoms: C5_5  and  O1_12 
ROOT
ATOM      1  C5  <0> d          -0.175  -0.432   0.040  0.00  0.00     0.045 C 
ATOM      2  H1  <0> d          -1.049  -1.023   0.311  0.00  0.00     0.084 H 
ENDROOT
BRANCH   1   3
ATOM      3  C2  <0> d           0.862  -0.509   1.163  0.00  0.00    -0.025 C 
BRANCH   3   4
ATOM      4  C1  <0> d           0.206  -0.120   2.489  0.00  0.00    -0.067 C 
ATOM      5  H2  <0> d          -0.747  -0.639   2.590  0.00  0.00     0.028 H 
ATOM      6  H3  <0> d           0.862  -0.401   3.314  0.00  0.00     0.028 H 
ATOM      7  H4  <0> d           0.038   0.956   2.510  0.00  0.00     0.028 H 
ENDBRANCH   3   4
BRANCH   3   8
ATOM      8  C3  <0> d           1.403  -1.937   1.260  0.00  0.00    -0.067 C 
ATOM      9  H5  <0> d           1.870  -2.213   0.315  0.00  0.00     0.028 H 
ATOM     10  H6  <0> d           2.141  -1.992   2.060  0.00  0.00     0.028 H 
ATOM     11  H7  <0> d           0.583  -2.622   1.475  0.00  0.00     0.028 H 
ENDBRANCH   3   8
BRANCH   3  12
ATOM     12  C4  <0> d           2.013   0.453   0.861  0.00  0.00    -0.067 C 
ATOM     13  H8  <0> d           1.627   1.470   0.792  0.00  0.00     0.028 H 
ATOM     14  H9  <0> d           2.751   0.398   1.661  0.00  0.00     0.028 H 
ATOM     15  H10 <0> d           2.479   0.176  -0.084  0.00  0.00     0.028 H 
ENDBRANCH   3  12
ENDBRANCH   1   3
BRANCH   1  16
ATOM     16  C6  <0> d          -0.590   1.026  -0.171  0.00  0.00    -0.029 C 
ATOM     17  C10 <0> d          -1.498   1.141  -1.408  0.00  0.00    -0.059 C 
ATOM     18  C9  <0> d          -2.848   1.699  -0.914  0.00  0.00    -0.065 C 
ATOM     19  H18 <0> d          -1.055   1.823  -2.134  0.00  0.00     0.033 H 
ATOM     20  H19 <0> d          -1.643   0.159  -1.858  0.00  0.00     0.033 H 
ATOM     21  C8  <0> d          -2.495   2.438   0.401  0.00  0.00    -0.065 C 
ATOM     22  H16 <0> d          -3.263   2.395  -1.643  0.00  0.00     0.033 H 
ATOM     23  H17 <0> d          -3.549   0.887  -0.719  0.00  0.00     0.033 H 
ATOM     24  C7  <0> d          -1.419   1.518   1.032  0.00  0.00    -0.059 C 
ATOM     25  H14 <0> d          -2.083   3.425   0.191  0.00  0.00     0.033 H 
ATOM     26  H15 <0> d          -3.368   2.513   1.049  0.00  0.00     0.033 H 
ATOM     27  H12 <0> d          -1.889   0.677   1.542  0.00  0.00     0.033 H 
ATOM     28  H13 <0> d          -0.792   2.082   1.723  0.00  0.00     0.033 H 
ATOM     29  H11 <0> d           0.293   1.651  -0.297  0.00  0.00     0.043 H 
ENDBRANCH   1  16
BRANCH   1  30
ATOM     30  O1  <0> d           0.391  -0.945  -1.167  0.00  0.00    -0.394 OA
ATOM     31  H20 <0> d           1.175  -0.466  -1.469  0.00  0.00     0.210 HD
ENDBRANCH   1  30
TORSDOF 6
