REMARK  2 active torsions:
REMARK  status: ('A' for Active; 'I' for Inactive)
REMARK    1  A    between atoms: C3_3  and  O2_10 
REMARK    2  A    between atoms: C6_6  and  C7_7 
REMARK       I    between atoms: C7_7  and  N1_9 
ROOT
ATOM      1  C1  <0> d           0.002  -0.004   0.002  0.00  0.00    -0.065 A 
ATOM      2  C2  <0> d          -0.017   1.373   0.010  0.00  0.00    -0.050 A 
ATOM      3  C3  <0> d           1.177   2.086   0.002  0.00  0.00     0.065 A 
ATOM      4  C4  <0> d           2.393   1.413  -0.013  0.00  0.00    -0.050 A 
ATOM      5  C5  <0> d           2.420   0.036  -0.021  0.00  0.00    -0.065 A 
ATOM      6  C6  <0> d           1.223  -0.684  -0.013  0.00  0.00     0.032 A 
ATOM      7  H1  <0> d          -0.925  -0.557   0.008  0.00  0.00     0.085 H 
ATOM      8  H2  <0> d          -0.960   1.899   0.017  0.00  0.00     0.087 H 
ATOM      9  H3  <0> d           3.317   1.971  -0.019  0.00  0.00     0.087 H 
ATOM     10  H4  <0> d           3.365  -0.486  -0.033  0.00  0.00     0.085 H 
ENDROOT
BRANCH   6  11
ATOM     11  C7  <0> d           1.247  -2.160  -0.021  0.00  0.00     0.249 C 
ATOM     12  O1  <0> d           0.204  -2.785  -0.014  0.00  0.00    -0.268 OA
ATOM     13  N1  <0> d           2.425  -2.814  -0.036  0.00  0.00    -0.366 N 
ATOM     14  H5  <0> d           3.257  -2.316  -0.041  0.00  0.00     0.159 HD
ATOM     15  H6  <0> d           2.442  -3.784  -0.041  0.00  0.00     0.159 HD
ENDBRANCH   6  11
BRANCH   3  16
ATOM     16  O2  <0> d           1.154   3.443   0.009  0.00  0.00    -0.361 OA
ATOM     17  H7  <0> d           1.156   3.832   0.894  0.00  0.00     0.217 HD
ENDBRANCH   3  16
TORSDOF 2
