REMARK  7 active torsions:
REMARK  status: ('A' for Active; 'I' for Inactive)
REMARK    1  A    between atoms: C1_1  and  C2_2 
REMARK    2  A    between atoms: C2_2  and  C3_4 
REMARK    3  A    between atoms: C2_2  and  O2_7 
REMARK    4  A    between atoms: C3_4  and  O1_5 
REMARK    5  A    between atoms: O1_5  and  C4_6 
REMARK    6  A    between atoms: O2_7  and  C5_8 
REMARK    7  A    between atoms: C5_8  and  C6_10 
ROOT
ATOM      1  C2  <0> d           0.613  -2.097  -1.041  0.00  0.00     0.065 C 
ATOM      2  H1  <0> d           1.185  -2.527  -1.863  0.00  0.00     0.086 H 
ENDROOT
BRANCH   1   3
ATOM      3  C1  <0> d           1.223  -2.539   0.291  0.00  0.00    -0.050 C 
ATOM      4  H2  <0> d           1.195  -3.626   0.360  0.00  0.00     0.031 H 
ATOM      5  H3  <0> d           2.256  -2.197   0.349  0.00  0.00     0.031 H 
ATOM      6  H4  <0> d           0.651  -2.108   1.113  0.00  0.00     0.031 H 
ENDBRANCH   1   3
BRANCH   1   7
ATOM      7  C3  <0> d           0.652  -0.570  -1.138  0.00  0.00     0.043 C 
ATOM      8  H5  <0> d           0.139  -0.251  -2.045  0.00  0.00     0.078 H 
ATOM      9  H6  <0> d           1.688  -0.234  -1.169  0.00  0.00     0.078 H 
BRANCH   7  10
ATOM     10  O1  <0> d           0.002  -0.004   0.002  0.00  0.00    -0.393 OA
BRANCH  10  11
ATOM     11  C4  <0> d          -0.017   1.425   0.010  0.00  0.00     0.004 C 
ATOM     12  H7  <0> d           1.005   1.802   0.002  0.00  0.00     0.066 H 
ATOM     13  H8  <0> d          -0.544   1.786  -0.873  0.00  0.00     0.066 H 
ATOM     14  H9  <0> d          -0.527   1.776   0.907  0.00  0.00     0.066 H 
ENDBRANCH  10  11
ENDBRANCH   7  10
ENDBRANCH   1   7
BRANCH   1  15
ATOM     15  O2  <0> d          -0.764  -2.552  -1.118  0.00  0.00    -0.315 OA
BRANCH  15  16
ATOM     16  C5  <0> d          -0.976  -3.763  -1.657  0.00  0.00     0.255 C 
ATOM     17  O3  <0> d          -0.042  -4.421  -2.050  0.00  0.00    -0.266 OA
BRANCH  16  18
ATOM     18  C6  <0> d          -2.379  -4.302  -1.770  0.00  0.00     0.004 C 
ATOM     19  H10 <0> d          -2.977  -3.631  -2.386  0.00  0.00     0.041 H 
ATOM     20  H11 <0> d          -2.352  -5.290  -2.228  0.00  0.00     0.041 H 
ATOM     21  H12 <0> d          -2.821  -4.374  -0.776  0.00  0.00     0.041 H 
ENDBRANCH  16  18
ENDBRANCH  15  16
ENDBRANCH   1  15
TORSDOF 7
