REMARK  5 active torsions:
REMARK  status: ('A' for Active; 'I' for Inactive)
REMARK    1  A    between atoms: C2_2  and  C3_3 
REMARK    2  A    between atoms: C3_3  and  O1_4 
REMARK    3  A    between atoms: O1_4  and  C4_5 
REMARK    4  A    between atoms: C4_5  and  C5_6 
REMARK    5  A    between atoms: C5_6  and  C6_7 
ROOT
ATOM      1  O1  <0> d          -3.726   1.627   0.029  0.00  0.00    -0.387 OA
ENDROOT
BRANCH   1   2
ATOM      2  C3  <0> d          -4.870   0.772   0.029  0.00  0.00     0.034 C 
ATOM      3  H4  <0> d          -4.858   0.148  -0.864  0.00  0.00     0.080 H 
ATOM      4  H5  <0> d          -4.850   0.138   0.916  0.00  0.00     0.080 H 
BRANCH   2   5
ATOM      5  C2  <0> d          -6.123   1.609   0.040  0.00  0.00    -0.090 C 
ATOM      6  C1  <0> d          -7.118   1.310  -0.759  0.00  0.00    -0.123 C 
ATOM      7  H1  <0> d          -7.039   0.464  -1.426  0.00  0.00     0.066 H 
ATOM      8  H2  <0> d          -8.015   1.910  -0.752  0.00  0.00     0.066 H 
ATOM      9  H3  <0> d          -6.202   2.455   0.706  0.00  0.00     0.078 H 
ENDBRANCH   2   5
ENDBRANCH   1   2
BRANCH   1  10
ATOM     10  C4  <0> d          -2.479   0.930   0.019  0.00  0.00     0.029 C 
ATOM     11  H6  <0> d          -2.417   0.309  -0.875  0.00  0.00     0.075 H 
ATOM     12  H7  <0> d          -2.408   0.299   0.905  0.00  0.00     0.075 H 
BRANCH  10  13
ATOM     13  C5  <0> d          -1.329   1.940   0.019  0.00  0.00     0.035 C 
ATOM     14  H8  <0> d          -1.391   2.561   0.913  0.00  0.00     0.052 H 
ATOM     15  H9  <0> d          -1.400   2.570  -0.867  0.00  0.00     0.052 H 
BRANCH  13  16
ATOM     16  C6  <0> d          -0.014   1.204   0.009  0.00  0.00     0.174 C 
ATOM     17  O2  <0> d           0.002  -0.004   0.002  0.00  0.00    -0.648 OA
ATOM     18  O3  <0> d           1.139   1.891   0.001  0.00  0.00    -0.648 OA
ENDBRANCH  13  16
ENDBRANCH  10  13
ENDBRANCH   1  10
TORSDOF 5
