REMARK  2 active torsions:
REMARK  status: ('A' for Active; 'I' for Inactive)
REMARK    1  A    between atoms: C1_1  and  N1_2 
REMARK    2  A    between atoms: N3_7  and  C5_10 
ROOT
ATOM      1  N1  <0> d          -0.018   1.461   0.010  0.00  0.00    -0.268 N 
ATOM      2  C2  <0> d          -1.195   2.119   0.019  0.00  0.00     0.270 A 
ATOM      3  O1  <0> d          -2.245   1.504   0.021  0.00  0.00    -0.266 OA
ATOM      4  C3  <0> d          -1.194   3.585   0.032  0.00  0.00     0.087 A 
ATOM      5  N2  <0> d          -0.054   4.217   0.024  0.00  0.00    -0.176 NA
ATOM      6  N3  <0> d           1.145   3.494   0.009  0.00  0.00    -0.224 N 
ATOM      7  C4  <0> d           1.139   2.149   0.003  0.00  0.00     0.347 A 
ATOM      8  O2  <0> d           2.195   1.546  -0.010  0.00  0.00    -0.245 OA
ATOM      9  H4  <0> d          -2.125   4.133   0.043  0.00  0.00     0.126 H 
ENDROOT
BRANCH   1  10
ATOM     10  C1  <0> d           0.002  -0.004   0.002  0.00  0.00    -0.007 C 
ATOM     11  H1  <0> d           0.017  -0.373   1.028  0.00  0.00     0.057 H 
ATOM     12  H2  <0> d          -0.888  -0.377  -0.505  0.00  0.00     0.057 H 
ATOM     13  H3  <0> d           0.892  -0.352  -0.522  0.00  0.00     0.057 H 
ENDBRANCH   1  10
BRANCH   6  14
ATOM     14  C5  <0> d           2.422   4.212   0.001  0.00  0.00     0.007 C 
ATOM     15  H5  <0> d           2.729   4.395  -1.029  0.00  0.00     0.059 H 
ATOM     16  H6  <0> d           2.307   5.163   0.520  0.00  0.00     0.059 H 
ATOM     17  H7  <0> d           3.179   3.612   0.505  0.00  0.00     0.059 H 
ENDBRANCH   6  14
TORSDOF 2
