REMARK  6 active torsions:
REMARK  status: ('A' for Active; 'I' for Inactive)
REMARK    1  A    between atoms: C1_1  and  C2_2 
REMARK    2  A    between atoms: C2_2  and  C3_4 
REMARK    3  A    between atoms: C2_2  and  O2_10 
REMARK    4  A    between atoms: C4_5  and  C5_6 
REMARK    5  A    between atoms: C5_6  and  C6_8 
REMARK    6  A    between atoms: C5_6  and  O1_9 
ROOT
ATOM      1  C3  <0> d           0.714  -0.492   1.195  0.00  0.00    -0.072 C 
ATOM      2  C4  <0> d           1.282  -0.881   2.146  0.00  0.00    -0.072 C 
ENDROOT
BRANCH   1   3
ATOM      3  C2  <0> d           0.002  -0.004   0.002  0.00  0.00     0.090 C 
ATOM      4  H1  <0> d          -1.020  -0.381   0.010  0.00  0.00     0.102 H 
BRANCH   3   5
ATOM      5  C1  <0> d          -0.019   1.526   0.010  0.00  0.00    -0.043 C 
ATOM      6  H3  <0> d           1.004   1.903   0.003  0.00  0.00     0.032 H 
ATOM      7  H4  <0> d          -0.546   1.887  -0.873  0.00  0.00     0.032 H 
ATOM      8  H5  <0> d          -0.529   1.877   0.907  0.00  0.00     0.032 H 
ENDBRANCH   3   5
BRANCH   3   9
ATOM      9  O2  <0> d           0.671  -0.465  -1.174  0.00  0.00    -0.384 OA
ATOM     10  H10 <0> d           0.256  -0.181  -1.999  0.00  0.00     0.211 HD
ENDBRANCH   3   9
ENDBRANCH   1   3
BRANCH   2  11
ATOM     11  C5  <0> d           1.994  -1.368   3.338  0.00  0.00     0.090 C 
ATOM     12  H2  <0> d           2.009  -2.458   3.332  0.00  0.00     0.102 H 
BRANCH  11  13
ATOM     13  C6  <0> d           1.278  -0.875   4.597  0.00  0.00    -0.043 C 
ATOM     14  H6  <0> d           0.255  -1.252   4.605  0.00  0.00     0.032 H 
ATOM     15  H7  <0> d           1.805  -1.236   5.480  0.00  0.00     0.032 H 
ATOM     16  H8  <0> d           1.263   0.215   4.603  0.00  0.00     0.032 H 
ENDBRANCH  11  13
BRANCH  11  17
ATOM     17  O1  <0> d           3.334  -0.874   3.328  0.00  0.00    -0.384 OA
ATOM     18  H9  <0> d           3.864  -1.156   4.087  0.00  0.00     0.211 HD
ENDBRANCH  11  17
ENDBRANCH   2  11
TORSDOF 6
