REMARK  0 active torsions:
REMARK  status: ('A' for Active; 'I' for Inactive)
ROOT
ATOM      1  C1  <0> d           0.018  -2.069  -1.202  0.00  0.00    -0.077 A 
ATOM      2  C2  <0> d           0.039  -2.726   0.020  0.00  0.00    -0.065 A 
ATOM      3  C3  <0> d           0.040  -1.985   1.186  0.00  0.00     0.013 A 
ATOM      4  N1  <0> d           0.022  -0.665   1.148  0.00  0.00    -0.174 N 
ATOM      5  O1  <0> d           0.023   0.060   2.364  0.00  0.00    -0.079 OA
ATOM      6  C4  <0> d           0.002  -0.004   0.002  0.00  0.00     0.207 A 
ATOM      7  C5  <0> d          -0.006  -0.685  -1.208  0.00  0.00    -0.029 A 
ATOM      8  O2  <0> d          -0.016   1.353   0.009  0.00  0.00    -0.170 OA
ATOM      9  H1  <0> d           0.016  -2.626  -2.128  0.00  0.00     0.083 H 
ATOM     10  H2  <0> d           0.053  -3.805   0.060  0.00  0.00     0.085 H 
ATOM     11  H3  <0> d           0.056  -2.491   2.140  0.00  0.00     0.115 H 
ATOM     12  H4  <0> d          -0.027  -0.142  -2.141  0.00  0.00     0.090 H 
ENDROOT
TORSDOF 0
