REMARK  2 active torsions:
REMARK  status: ('A' for Active; 'I' for Inactive)
REMARK    1  A    between atoms: C1_1  and  C2_2 
REMARK    2  A    between atoms: C5_5  and  C8_8 
ROOT
ATOM      1  C2  <0> d           3.050  -4.200  -0.047  0.00  0.00    -0.062 A 
ATOM      2  C3  <0> d           3.870  -3.085  -0.050  0.00  0.00    -0.076 A 
ATOM      3  C4  <0> d           3.319  -1.820  -0.039  0.00  0.00    -0.070 A 
ATOM      4  C5  <0> d           1.932  -1.667  -0.025  0.00  0.00    -0.000 A 
ATOM      5  C6  <0> d           1.111  -2.795  -0.017  0.00  0.00    -0.070 A 
ATOM      6  C7  <0> d           1.674  -4.054  -0.033  0.00  0.00    -0.076 A 
ATOM      7  H4  <0> d           4.943  -3.205  -0.061  0.00  0.00     0.084 H 
ATOM      8  H5  <0> d           3.960  -0.951  -0.041  0.00  0.00     0.084 H 
ATOM      9  H6  <0> d           0.037  -2.683  -0.002  0.00  0.00     0.084 H 
ATOM     10  H7  <0> d           1.040  -4.929  -0.031  0.00  0.00     0.084 H 
ENDROOT
BRANCH   4  11
ATOM     11  C8  <0> d           1.335  -0.314  -0.012  0.00  0.00     0.113 A 
ATOM     12  O1  <0> d           1.992   0.859  -0.012  0.00  0.00    -0.213 OA
ATOM     13  N1  <0> d           1.226   1.795  -0.000  0.00  0.00    -0.140 NA
ATOM     14  C10 <0> d          -0.017   1.406   0.010  0.00  0.00     0.032 A 
ATOM     15  C9  <0> d           0.002  -0.004   0.002  0.00  0.00    -0.028 A 
ATOM     16  H9  <0> d          -0.892   2.039   0.018  0.00  0.00     0.118 H 
ATOM     17  H8  <0> d          -0.839  -0.681   0.006  0.00  0.00     0.090 H 
ENDBRANCH   4  11
BRANCH   1  18
ATOM     18  C1  <0> d           3.659  -5.578  -0.059  0.00  0.00    -0.051 C 
ATOM     19  H1  <0> d           3.815  -5.915   0.966  0.00  0.00     0.033 H 
ATOM     20  H2  <0> d           2.987  -6.268  -0.570  0.00  0.00     0.033 H 
ATOM     21  H3  <0> d           4.615  -5.549  -0.582  0.00  0.00     0.033 H 
ENDBRANCH   1  18
TORSDOF 2
