REMARK  8 active torsions:
REMARK  status: ('A' for Active; 'I' for Inactive)
REMARK    1  A    between atoms: C1_1  and  C2_2 
REMARK    2  A    between atoms: C2_2  and  C3_3 
REMARK    3  A    between atoms: C3_3  and  C4_5 
REMARK    4  A    between atoms: C3_3  and  O1_10 
REMARK    5  A    between atoms: C4_5  and  C5_6 
REMARK    6  A    between atoms: C5_6  and  C6_7 
REMARK    7  A    between atoms: C6_7  and  C7_8 
REMARK    8  A    between atoms: C6_7  and  C8_9 
ROOT
ATOM      1  C4  <0> d           0.079   1.179   2.503  0.00  0.00    -0.041 C 
ATOM      2  H7  <0> d           0.097   0.092   2.589  0.00  0.00     0.036 H 
ATOM      3  H8  <0> d           1.098   1.553   2.408  0.00  0.00     0.036 H 
ENDROOT
BRANCH   1   4
ATOM      4  C3  <0> d          -0.729   1.579   1.267  0.00  0.00     0.035 C 
ATOM      5  H1  <0> d          -0.822   2.665   1.230  0.00  0.00     0.082 H 
BRANCH   4   6
ATOM      6  C2  <0> d          -0.013   1.086   0.008  0.00  0.00    -0.044 C 
ATOM      7  H5  <0> d           0.002  -0.004   0.002  0.00  0.00     0.036 H 
ATOM      8  H6  <0> d           1.010   1.463   0.000  0.00  0.00     0.036 H 
BRANCH   6   9
ATOM      9  C1  <0> d          -0.753   1.593  -1.232  0.00  0.00    -0.074 C 
ATOM     10  H2  <0> d          -0.242   1.241  -2.128  0.00  0.00     0.027 H 
ATOM     11  H3  <0> d          -1.775   1.215  -1.224  0.00  0.00     0.027 H 
ATOM     12  H4  <0> d          -0.767   2.683  -1.226  0.00  0.00     0.027 H 
ENDBRANCH   6   9
ENDBRANCH   4   6
BRANCH   4  13
ATOM     13  O1  <0> d          -2.030   0.991   1.336  0.00  0.00    -0.396 OA
ATOM     14  H18 <0> d          -2.023   0.025   1.372  0.00  0.00     0.210 HD
ENDBRANCH   4  13
ENDBRANCH   1   4
BRANCH   1  15
ATOM     15  C5  <0> d          -0.570   1.778   3.752  0.00  0.00    -0.060 C 
ATOM     16  H9  <0> d          -0.588   2.864   3.667  0.00  0.00     0.033 H 
ATOM     17  H10 <0> d          -1.590   1.404   3.847  0.00  0.00     0.033 H 
BRANCH  15  18
ATOM     18  C6  <0> d           0.237   1.377   4.989  0.00  0.00    -0.061 C 
ATOM     19  H11 <0> d           0.331   0.292   5.026  0.00  0.00     0.038 H 
BRANCH  18  20
ATOM     20  C7  <0> d           1.630   2.007   4.914  0.00  0.00    -0.073 C 
ATOM     21  H12 <0> d           2.140   1.655   4.018  0.00  0.00     0.028 H 
ATOM     22  H13 <0> d           1.536   3.092   4.877  0.00  0.00     0.028 H 
ATOM     23  H14 <0> d           2.205   1.721   5.795  0.00  0.00     0.028 H 
ENDBRANCH  18  20
BRANCH  18  24
ATOM     24  C8  <0> d          -0.479   1.871   6.247  0.00  0.00    -0.073 C 
ATOM     25  H15 <0> d          -1.471   1.422   6.300  0.00  0.00     0.028 H 
ATOM     26  H16 <0> d           0.096   1.585   7.128  0.00  0.00     0.028 H 
ATOM     27  H17 <0> d          -0.572   2.956   6.210  0.00  0.00     0.028 H 
ENDBRANCH  18  24
ENDBRANCH  15  18
ENDBRANCH   1  15
TORSDOF 8
