REMARK  4 active torsions:
REMARK  status: ('A' for Active; 'I' for Inactive)
REMARK    1  A    between atoms: C1_1  and  C2_2 
REMARK    2  A    between atoms: C2_2  and  C3_3 
REMARK    3  A    between atoms: C3_3  and  C4_4 
REMARK    4  A    between atoms: C6_7  and  C8_12 
ROOT
ATOM      1  C4  <0> d          -0.735   2.019   1.269  0.00  0.00     0.033 C 
ATOM      2  H1  <0> d          -0.263   1.513   2.124  0.00  0.00     0.055 H 
ATOM      3  C5  <0> d          -0.659   3.559   1.362  0.00  0.00    -0.029 C 
ATOM      4  C6  <0> d          -2.113   3.936   1.725  0.00  0.00     0.045 C 
ATOM      5  H2  <0> d          -2.297   4.027   2.806  0.00  0.00     0.083 H 
ATOM      6  O1  <0> d          -2.917   2.850   1.176  0.00  0.00    -0.316 OA
ATOM      7  C7  <0> d          -2.214   1.709   1.190  0.00  0.00     0.263 C 
ATOM      8  O2  <0> d          -2.689   0.599   1.145  0.00  0.00    -0.265 OA
ATOM      9  H10 <0> d           0.066   3.844   2.140  0.00  0.00     0.038 H 
ATOM     10  H11 <0> d          -0.337   3.970   0.394  0.00  0.00     0.038 H 
ENDROOT
BRANCH   1  11
ATOM     11  C3  <0> d          -0.019   1.526   0.010  0.00  0.00    -0.053 C 
ATOM     12  H8  <0> d           1.013   1.907   0.003  0.00  0.00     0.034 H 
ATOM     13  H9  <0> d          -0.551   1.890  -0.881  0.00  0.00     0.034 H 
BRANCH  11  14
ATOM     14  C2  <0> d           0.002  -0.004   0.002  0.00  0.00    -0.068 C 
ATOM     15  H6  <0> d          -1.030  -0.385   0.010  0.00  0.00     0.032 H 
ATOM     16  H7  <0> d           0.534  -0.368   0.893  0.00  0.00     0.032 H 
BRANCH  14  17
ATOM     17  C1  <0> d           0.718  -0.497  -1.257  0.00  0.00    -0.076 C 
ATOM     18  H3  <0> d           0.733  -1.597  -1.263  0.00  0.00     0.027 H 
ATOM     19  H4  <0> d           1.750  -0.117  -1.265  0.00  0.00     0.027 H 
ATOM     20  H5  <0> d           0.186  -0.133  -2.148  0.00  0.00     0.027 H 
ENDBRANCH  14  17
ENDBRANCH  11  14
ENDBRANCH   1  11
BRANCH   4  21
ATOM     21  C8  <0> d          -2.498   5.267   1.076  0.00  0.00    -0.052 C 
ATOM     22  H12 <0> d          -3.535   5.519   1.344  0.00  0.00     0.030 H 
ATOM     23  H13 <0> d          -2.413   5.180  -0.017  0.00  0.00     0.030 H 
ATOM     24  H14 <0> d          -1.824   6.058   1.435  0.00  0.00     0.030 H 
ENDBRANCH   4  21
TORSDOF 4
