REMARK  0 active torsions:
REMARK  status: ('A' for Active; 'I' for Inactive)
ROOT
ATOM      1  C1  <0> d           2.409   0.028  -0.021  0.00  0.00    -0.068 A 
ATOM      2  C2  <0> d           1.222  -0.684  -0.013  0.00  0.00    -0.036 A 
ATOM      3  C3  <0> d           0.002  -0.004   0.002  0.00  0.00     0.018 A 
ATOM      4  C4  <0> d          -0.017   1.393   0.010  0.00  0.00    -0.055 A 
ATOM      5  C5  <0> d           1.186   2.109   0.002  0.00  0.00     0.018 A 
ATOM      6  C6  <0> d           2.399   1.406  -0.013  0.00  0.00    -0.036 A 
ATOM      7  C7  <0> d           3.144   2.718  -0.014  0.00  0.00     0.020 A 
ATOM      8  C8  <0> d           1.823   3.444   0.003  0.00  0.00     0.164 A 
ATOM      9  O1  <0> d           1.452   4.598   0.012  0.00  0.00    -0.292 OA
ATOM     10  C9  <0> d          -0.759  -1.263   0.002  0.00  0.00     0.164 A 
ATOM     11  O2  <0> d          -1.935  -1.559   0.012  0.00  0.00    -0.292 OA
ATOM     12  C10 <0> d           0.534  -2.024  -0.014  0.00  0.00     0.020 A 
ATOM     13  H1  <0> d           3.350  -0.501  -0.033  0.00  0.00     0.085 H 
ATOM     14  H2  <0> d          -0.959   1.921   0.017  0.00  0.00     0.086 H 
ATOM     15  H3  <0> d           3.756   2.754   0.777  0.00  0.00     0.052 H 
ATOM     16  H4  <0> d           3.719   2.886  -0.925  0.00  0.00     0.052 H 
ATOM     17  H5  <0> d           0.828  -2.549  -0.813  0.00  0.00     0.052 H 
ATOM     18  H6  <0> d           0.712  -2.608   0.889  0.00  0.00     0.052 H 
ENDROOT
TORSDOF 0
