REMARK  0 active torsions:
REMARK  status: ('A' for Active; 'I' for Inactive)
ROOT
ATOM      1  C1  <0> d           0.629   3.888  -1.308  0.00  0.00    -0.005 C 
ATOM      2  C2  <0> d           1.605   2.709  -1.261  0.00  0.00    -0.007 C 
ATOM      3  C3  <0> d           1.345   1.882  -0.001  0.00  0.00     0.164 C 
ATOM      4  C4  <0> d           1.620   2.724   1.246  0.00  0.00    -0.007 C 
ATOM      5  C5  <0> d           0.644   3.904   1.290  0.00  0.00    -0.005 C 
ATOM      6  C6  <0> d           0.749   4.664  -0.014  0.00  0.00     0.127 C 
ATOM      7  O1  <0> d           0.924   5.859  -0.023  0.00  0.00    -0.298 OA
ATOM      8  O2  <0> d          -0.018   1.438   0.010  0.00  0.00    -0.353 OA
ATOM      9  C7  <0> d           0.002  -0.004   0.002  0.00  0.00     0.043 C 
ATOM     10  C8  <0> d           1.406  -0.333  -0.564  0.00  0.00     0.043 C 
ATOM     11  O3  <0> d           2.208   0.732   0.001  0.00  0.00    -0.353 OA
ATOM     12  H1  <0> d           0.852   4.487  -2.077  0.00  0.00     0.044 H 
ATOM     13  H2  <0> d          -0.390   3.516  -1.421  0.00  0.00     0.044 H 
ATOM     14  H3  <0> d           2.629   3.084  -1.245  0.00  0.00     0.041 H 
ATOM     15  H4  <0> d           1.462   2.083  -2.142  0.00  0.00     0.041 H 
ATOM     16  H5  <0> d           1.487   2.109   2.136  0.00  0.00     0.041 H 
ATOM     17  H6  <0> d           2.643   3.099   1.213  0.00  0.00     0.041 H 
ATOM     18  H7  <0> d           0.879   4.504   2.055  0.00  0.00     0.044 H 
ATOM     19  H8  <0> d          -0.374   3.537   1.418  0.00  0.00     0.044 H 
ATOM     20  H9  <0> d          -0.107  -0.396   1.013  0.00  0.00     0.077 H 
ATOM     21  H10 <0> d          -0.778  -0.396  -0.651  0.00  0.00     0.077 H 
ATOM     22  H11 <0> d           1.749  -1.307  -0.216  0.00  0.00     0.077 H 
ATOM     23  H12 <0> d           1.408  -0.286  -1.653  0.00  0.00     0.077 H 
ENDROOT
TORSDOF 0
