REMARK  5 active torsions:
REMARK  status: ('A' for Active; 'I' for Inactive)
REMARK    1  A    between atoms: C1_1  and  C2_2 
REMARK    2  A    between atoms: C2_2  and  O1_3 
REMARK    3  A    between atoms: O1_3  and  C3_4 
REMARK    4  A    between atoms: C3_4  and  C4_6 
REMARK    5  A    between atoms: N2_10  and  C7_11 
ROOT
ATOM      1  C4  <0> d           0.002  -0.004   0.002  0.00  0.00     0.205 A 
ATOM      2  N1  <0> d           1.258  -0.400  -0.012  0.00  0.00    -0.236 NA
ATOM      3  C5  <0> d           2.051   0.669  -0.014  0.00  0.00     0.020 A 
ATOM      4  C6  <0> d           1.272   1.779  -0.001  0.00  0.00    -0.002 A 
ATOM      5  N2  <0> d          -0.017   1.363   0.009  0.00  0.00    -0.340 N 
ATOM      6  H6  <0> d           3.131   0.655  -0.024  0.00  0.00     0.117 H 
ATOM      7  H7  <0> d           1.615   2.803   0.001  0.00  0.00     0.113 H 
ENDROOT
BRANCH   1   8
ATOM      8  C3  <0> d          -1.179  -0.883   0.009  0.00  0.00     0.329 C 
ATOM      9  O2  <0> d          -2.295  -0.401   0.023  0.00  0.00    -0.256 OA
BRANCH   8  10
ATOM     10  O1  <0> d          -1.023  -2.222   0.001  0.00  0.00    -0.316 OA
BRANCH  10  11
ATOM     11  C2  <0> d          -2.232  -3.027   0.009  0.00  0.00     0.026 C 
ATOM     12  H4  <0> d          -2.810  -2.805   0.906  0.00  0.00     0.074 H 
ATOM     13  H5  <0> d          -2.828  -2.795  -0.874  0.00  0.00     0.074 H 
BRANCH  11  14
ATOM     14  C1  <0> d          -1.857  -4.510  -0.003  0.00  0.00    -0.056 C 
ATOM     15  H1  <0> d          -1.261  -4.741   0.879  0.00  0.00     0.030 H 
ATOM     16  H2  <0> d          -2.765  -5.114   0.003  0.00  0.00     0.030 H 
ATOM     17  H3  <0> d          -1.279  -4.732  -0.900  0.00  0.00     0.030 H 
ENDBRANCH  11  14
ENDBRANCH  10  11
ENDBRANCH   8  10
ENDBRANCH   1   8
BRANCH   5  18
ATOM     18  C7  <0> d          -1.207   2.217   0.020  0.00  0.00    -0.013 C 
ATOM     19  H8  <0> d          -1.497   2.423   1.050  0.00  0.00     0.057 H 
ATOM     20  H9  <0> d          -0.986   3.155  -0.490  0.00  0.00     0.057 H 
ATOM     21  H10 <0> d          -2.023   1.708  -0.492  0.00  0.00     0.057 H 
ENDBRANCH   5  18
TORSDOF 5
