REMARK  1 active torsions:
REMARK  status: ('A' for Active; 'I' for Inactive)
REMARK    1  A    between atoms: C3_3  and  O1_11 
ROOT
ATOM      1  C1  <0> d           2.422   0.040  -0.021  0.00  0.00    -0.057 A 
ATOM      2  C2  <0> d           2.393   1.417  -0.013  0.00  0.00    -0.046 A 
ATOM      3  C3  <0> d           1.177   2.090   0.002  0.00  0.00     0.107 A 
ATOM      4  C4  <0> d          -0.017   1.378   0.010  0.00  0.00     0.189 A 
ATOM      5  C5  <0> d           0.002  -0.004   0.002  0.00  0.00     0.178 A 
ATOM      6  C6  <0> d           1.226  -0.684  -0.013  0.00  0.00     0.086 A 
ATOM      7  C7  <0> d           1.253  -2.115  -0.021  0.00  0.00     0.102 C 
ATOM      8  N1  <0> d           1.274  -3.251  -0.027  0.00  0.00    -0.191 NA
ATOM      9  F1  <0> d          -1.157  -0.697   0.009  0.00  0.00    -0.201 F 
ATOM     10  F2  <0> d          -1.196   2.037   0.019  0.00  0.00    -0.200 F 
ATOM     11  H1  <0> d           3.368  -0.481  -0.033  0.00  0.00     0.086 H 
ATOM     12  H2  <0> d           3.317   1.975  -0.019  0.00  0.00     0.087 H 
ENDROOT
BRANCH   3  13
ATOM     13  O1  <0> d           1.155   3.448   0.009  0.00  0.00    -0.357 OA
ATOM     14  H3  <0> d           1.157   3.836   0.894  0.00  0.00     0.217 HD
ENDBRANCH   3  13
TORSDOF 1
