REMARK  0 active torsions:
REMARK  status: ('A' for Active; 'I' for Inactive)
ROOT
ATOM      1  C1  <0> d           2.284   1.464  -0.012  0.00  0.00     0.033 A 
ATOM      2  C2  <0> d           2.360   0.080  -0.020  0.00  0.00     0.099 A 
ATOM      3  C3  <0> d           1.161  -0.663  -0.013  0.00  0.00     0.180 A 
ATOM      4  N1  <0> d           1.510  -1.963  -0.023  0.00  0.00    -0.222 NA
ATOM      5  C4  <0> d           2.809  -2.072  -0.036  0.00  0.00     0.067 A 
ATOM      6  N2  <0> d           3.381  -0.846  -0.035  0.00  0.00    -0.346 N 
ATOM      7  H1  <0> d           4.361  -0.648  -0.043  0.00  0.00     0.167 HD
ATOM      8  N3  <0> d           0.002  -0.004   0.002  0.00  0.00    -0.220 NA
ATOM      9  C5  <0> d          -0.016   1.311   0.009  0.00  0.00     0.088 A 
ATOM     10  N4  <0> d           1.089   2.035   0.003  0.00  0.00    -0.252 NA
ATOM     11  H2  <0> d           3.181   2.065  -0.018  0.00  0.00     0.118 H 
ATOM     12  H3  <0> d           3.351  -3.006  -0.046  0.00  0.00     0.143 H 
ATOM     13  H4  <0> d          -0.969   1.818   0.017  0.00  0.00     0.146 H 
ENDROOT
TORSDOF 0
