REMARK  3 active torsions:
REMARK  status: ('A' for Active; 'I' for Inactive)
REMARK    1  A    between atoms: C1_1  and  C2_2 
REMARK    2  A    between atoms: C5_5  and  C8_9 
REMARK    3  A    between atoms: C8_9  and  C9_10 
ROOT
ATOM      1  C2  <0> d           0.002  -0.004   0.002  0.00  0.00    -0.023 A 
ATOM      2  C3  <0> d           0.006  -0.689  -1.199  0.00  0.00    -0.074 A 
ATOM      3  C4  <0> d           0.025  -2.071  -1.206  0.00  0.00    -0.076 A 
ATOM      4  C5  <0> d           0.040  -2.770  -0.014  0.00  0.00    -0.052 A 
ATOM      5  C6  <0> d           0.036  -2.088   1.188  0.00  0.00    -0.039 A 
ATOM      6  C7  <0> d           0.023  -0.703   1.197  0.00  0.00     0.122 A 
ATOM      7  F1  <0> d           0.025  -0.035   2.371  0.00  0.00    -0.206 F 
ATOM      8  H4  <0> d          -0.006  -0.144  -2.131  0.00  0.00     0.084 H 
ATOM      9  H5  <0> d           0.027  -2.605  -2.145  0.00  0.00     0.084 H 
ATOM     10  H6  <0> d           0.048  -2.634   2.119  0.00  0.00     0.089 H 
ENDROOT
BRANCH   4  11
ATOM     11  C8  <0> d           0.059  -4.277  -0.024  0.00  0.00    -0.026 C 
ATOM     12  H7  <0> d          -0.445  -4.653   0.866  0.00  0.00     0.045 H 
ATOM     13  H8  <0> d          -0.455  -4.641  -0.914  0.00  0.00     0.045 H 
BRANCH  11  14
ATOM     14  C9  <0> d           1.486  -4.761  -0.035  0.00  0.00    -0.108 C 
ATOM     15  C10 <0> d           1.902  -5.594   0.887  0.00  0.00    -0.124 C 
ATOM     16  H10 <0> d           1.223  -5.934   1.654  0.00  0.00     0.066 H 
ATOM     17  H11 <0> d           2.925  -5.940   0.879  0.00  0.00     0.066 H 
ATOM     18  H9  <0> d           2.166  -4.421  -0.802  0.00  0.00     0.076 H 
ENDBRANCH  11  14
ENDBRANCH   4  11
BRANCH   1  19
ATOM     19  C1  <0> d          -0.018   1.503   0.010  0.00  0.00    -0.048 C 
ATOM     20  H1  <0> d           1.004   1.880   0.003  0.00  0.00     0.033 H 
ATOM     21  H2  <0> d          -0.545   1.864  -0.873  0.00  0.00     0.033 H 
ATOM     22  H3  <0> d          -0.529   1.854   0.907  0.00  0.00     0.033 H 
ENDBRANCH   1  19
TORSDOF 3
