REMARK  4 active torsions:
REMARK  status: ('A' for Active; 'I' for Inactive)
REMARK    1  A    between atoms: C1_1  and  C2_2 
REMARK    2  A    between atoms: C3_4  and  N5_10 
REMARK    3  A    between atoms: C4_6  and  N4_8 
REMARK    4  A    between atoms: N4_8  and  C5_9 
ROOT
ATOM      1  C2  <0> d           0.002  -0.004   0.002  0.00  0.00     0.160 A 
ATOM      2  N1  <0> d           0.022  -0.669   1.144  0.00  0.00    -0.047 NA
ATOM      3  C3  <0> d           0.040  -2.000   1.141  0.00  0.00     0.737 A 
ATOM      4  N2  <0> d           0.037  -2.660  -0.013  0.00  0.00     0.130 NA
ATOM      5  C4  <0> d           0.017  -1.988  -1.158  0.00  0.00     0.739 A 
ATOM      6  N3  <0> d          -0.005  -0.657  -1.147  0.00  0.00    -0.047 NA
ENDROOT
BRANCH   5   7
ATOM      7  N4  <0> d           0.014  -2.669  -2.359  0.00  0.00    -0.226 N 
ATOM      8  H4  <0> d          -0.000  -2.177  -3.195  0.00  0.00     0.177 HD
BRANCH   7   9
ATOM      9  C5  <0> d           0.033  -4.133  -2.370  0.00  0.00    -0.005 C 
ATOM     10  H5  <0> d           0.933  -4.489  -1.868  0.00  0.00     0.057 H 
ATOM     11  H6  <0> d          -0.847  -4.512  -1.850  0.00  0.00     0.057 H 
ATOM     12  H7  <0> d           0.028  -4.489  -3.400  0.00  0.00     0.057 H 
ENDBRANCH   7   9
ENDBRANCH   5   7
BRANCH   3  13
ATOM     13  N5  <0> d           0.060  -2.694   2.333  0.00  0.00    -0.230 N 
ATOM     14  H8  <0> d           0.061  -2.211   3.175  0.00  0.00     0.174 HD
ATOM     15  H9  <0> d           0.073  -3.663   2.330  0.00  0.00     0.174 HD
ENDBRANCH   3  13
BRANCH   1  16
ATOM     16  C1  <0> d          -0.018   1.503   0.010  0.00  0.00    -0.018 C 
ATOM     17  H1  <0> d           1.004   1.880   0.003  0.00  0.00     0.037 H 
ATOM     18  H2  <0> d          -0.545   1.864  -0.873  0.00  0.00     0.037 H 
ATOM     19  H3  <0> d          -0.529   1.854   0.907  0.00  0.00     0.037 H 
ENDBRANCH   1  16
TORSDOF 4
