REMARK  3 active torsions:
REMARK  status: ('A' for Active; 'I' for Inactive)
REMARK    1  A    between atoms: C4_4  and  O2_11 
REMARK    2  A    between atoms: C5_5  and  C7_7 
REMARK    3  A    between atoms: C7_7  and  C8_8 
REMARK       I    between atoms: C8_8  and  N1_10 
ROOT
ATOM      1  C1  <0> d           0.040  -2.770  -0.013  0.00  0.00    -0.082 A 
ATOM      2  C2  <0> d           0.018  -2.074  -1.208  0.00  0.00    -0.080 A 
ATOM      3  C3  <0> d          -0.006  -0.693  -1.203  0.00  0.00    -0.051 A 
ATOM      4  C4  <0> d           0.002  -0.004   0.002  0.00  0.00     0.072 A 
ATOM      5  C5  <0> d           0.023  -0.705   1.199  0.00  0.00    -0.016 A 
ATOM      6  C6  <0> d           0.042  -2.087   1.188  0.00  0.00    -0.074 A 
ATOM      7  H1  <0> d           0.054  -3.850  -0.019  0.00  0.00     0.083 H 
ATOM      8  H2  <0> d           0.017  -2.610  -2.145  0.00  0.00     0.083 H 
ATOM      9  H3  <0> d          -0.027  -0.149  -2.136  0.00  0.00     0.087 H 
ATOM     10  H4  <0> d           0.058  -2.633   2.120  0.00  0.00     0.084 H 
ENDROOT
BRANCH   5  11
ATOM     11  C7  <0> d           0.025   0.039   2.509  0.00  0.00     0.035 C 
ATOM     12  H5  <0> d           0.475  -0.585   3.281  0.00  0.00     0.054 H 
ATOM     13  H6  <0> d           0.600   0.959   2.404  0.00  0.00     0.054 H 
BRANCH  11  14
ATOM     14  C8  <0> d          -1.392   0.375   2.898  0.00  0.00     0.219 C 
ATOM     15  O1  <0> d          -2.312   0.043   2.181  0.00  0.00    -0.273 OA
ATOM     16  N1  <0> d          -1.636   1.045   4.041  0.00  0.00    -0.370 N 
ATOM     17  H7  <0> d          -0.900   1.311   4.614  0.00  0.00     0.159 HD
ATOM     18  H8  <0> d          -2.548   1.262   4.292  0.00  0.00     0.159 HD
ENDBRANCH  11  14
ENDBRANCH   5  11
BRANCH   4  19
ATOM     19  O2  <0> d          -0.016   1.355   0.009  0.00  0.00    -0.360 OA
ATOM     20  H9  <0> d           0.862   1.760   0.003  0.00  0.00     0.217 HD
ENDBRANCH   4  19
TORSDOF 3
