REMARK  0 active torsions:
REMARK  status: ('A' for Active; 'I' for Inactive)
ROOT
ATOM      1  C1  <0> d          -2.388  -0.035   0.025  0.00  0.00    -0.041 A 
ATOM      2  C2  <0> d          -1.213  -0.718   0.010  0.00  0.00    -0.035 A 
ATOM      3  C3  <0> d           0.002  -0.004   0.002  0.00  0.00     0.133 A 
ATOM      4  N1  <0> d           1.268  -0.397  -0.012  0.00  0.00    -0.241 NA
ATOM      5  C4  <0> d           2.061   0.677  -0.014  0.00  0.00     0.020 A 
ATOM      6  C5  <0> d           1.286   1.784  -0.001  0.00  0.00     0.003 A 
ATOM      7  N2  <0> d          -0.017   1.366   0.010  0.00  0.00    -0.313 N 
ATOM      8  C6  <0> d          -1.203   2.042   0.029  0.00  0.00     0.023 A 
ATOM      9  C7  <0> d          -2.377   1.371   0.033  0.00  0.00     0.132 A 
ATOM     10  F1  <0> d          -3.542   2.054   0.048  0.00  0.00    -0.205 F 
ATOM     11  H1  <0> d          -3.327  -0.570   0.032  0.00  0.00     0.088 H 
ATOM     12  H2  <0> d          -1.210  -1.798   0.004  0.00  0.00     0.089 H 
ATOM     13  H3  <0> d           3.141   0.663  -0.024  0.00  0.00     0.117 H 
ATOM     14  H4  <0> d           1.631   2.808   0.002  0.00  0.00     0.114 H 
ATOM     15  H5  <0> d          -1.204   3.122   0.036  0.00  0.00     0.117 H 
ENDROOT
TORSDOF 0
