REMARK  3 active torsions:
REMARK  status: ('A' for Active; 'I' for Inactive)
REMARK    1  A    between atoms: C1_1  and  C2_2 
REMARK    2  A    between atoms: C4_4  and  C8_9 
REMARK    3  A    between atoms: C6_6  and  O1_8 
ROOT
ATOM      1  C2  <0> d           0.002  -0.004   0.002  0.00  0.00    -0.059 A 
ATOM      2  C3  <0> d           0.006  -0.688  -1.200  0.00  0.00    -0.071 A 
ATOM      3  C4  <0> d           0.025  -2.071  -1.210  0.00  0.00    -0.059 A 
ATOM      4  C5  <0> d           0.040  -2.772  -0.020  0.00  0.00    -0.045 A 
ATOM      5  C6  <0> d           0.036  -2.088   1.187  0.00  0.00     0.066 A 
ATOM      6  C7  <0> d           0.023  -0.701   1.195  0.00  0.00    -0.045 A 
ATOM      7  H4  <0> d          -0.007  -0.142  -2.131  0.00  0.00     0.085 H 
ATOM      8  H5  <0> d           0.054  -3.852  -0.029  0.00  0.00     0.088 H 
ATOM      9  H6  <0> d           0.025  -0.166   2.133  0.00  0.00     0.088 H 
ENDROOT
BRANCH   1  10
ATOM     10  C1  <0> d          -0.018   1.503   0.010  0.00  0.00    -0.051 C 
ATOM     11  H1  <0> d           1.004   1.880   0.003  0.00  0.00     0.033 H 
ATOM     12  H2  <0> d          -0.545   1.864  -0.873  0.00  0.00     0.033 H 
ATOM     13  H3  <0> d          -0.529   1.854   0.907  0.00  0.00     0.033 H 
ENDBRANCH   1  10
BRANCH   5  14
ATOM     14  O1  <0> d           0.051  -2.775   2.359  0.00  0.00    -0.361 OA
ATOM     15  H7  <0> d           0.939  -2.962   2.694  0.00  0.00     0.217 HD
ENDBRANCH   5  14
BRANCH   3  16
ATOM     16  C8  <0> d           0.029  -2.813  -2.522  0.00  0.00    -0.051 C 
ATOM     17  H8  <0> d           1.058  -2.978  -2.843  0.00  0.00     0.033 H 
ATOM     18  H9  <0> d          -0.471  -3.774  -2.397  0.00  0.00     0.033 H 
ATOM     19  H10 <0> d          -0.497  -2.225  -3.274  0.00  0.00     0.033 H 
ENDBRANCH   3  16
TORSDOF 3
