REMARK  5 active torsions:
REMARK  status: ('A' for Active; 'I' for Inactive)
REMARK    1  A    between atoms: C1_1  and  C2_2 
REMARK    2  A    between atoms: C2_2  and  C3_3 
REMARK    3  A    between atoms: C3_3  and  C4_4 
REMARK    4  A    between atoms: C4_4  and  C5_5 
REMARK    5  A    between atoms: C5_5  and  C6_6 
REMARK       I    between atoms: C6_6  and  N1_8 
ROOT
ATOM      1  C4  <0> d           0.739  -2.027  -1.265  0.00  0.00    -0.057 C 
ATOM      2  H8  <0> d           1.266  -2.388  -0.382  0.00  0.00     0.033 H 
ATOM      3  H9  <0> d          -0.284  -2.405  -1.258  0.00  0.00     0.033 H 
ENDROOT
BRANCH   1   4
ATOM      4  C3  <0> d           0.718  -0.497  -1.257  0.00  0.00    -0.065 C 
ATOM      5  H6  <0> d           0.191  -0.136  -2.140  0.00  0.00     0.033 H 
ATOM      6  H7  <0> d           1.741  -0.120  -1.264  0.00  0.00     0.033 H 
BRANCH   4   7
ATOM      7  C2  <0> d           0.002  -0.004   0.002  0.00  0.00    -0.069 C 
ATOM      8  H4  <0> d           0.529  -0.365   0.885  0.00  0.00     0.032 H 
ATOM      9  H5  <0> d          -1.020  -0.381   0.010  0.00  0.00     0.032 H 
BRANCH   7  10
ATOM     10  C1  <0> d          -0.019   1.526   0.010  0.00  0.00    -0.077 C 
ATOM     11  H1  <0> d           1.004   1.903   0.003  0.00  0.00     0.027 H 
ATOM     12  H2  <0> d          -0.546   1.887  -0.873  0.00  0.00     0.027 H 
ATOM     13  H3  <0> d          -0.529   1.877   0.907  0.00  0.00     0.027 H 
ENDBRANCH   7  10
ENDBRANCH   4   7
ENDBRANCH   1   4
BRANCH   1  14
ATOM     14  C5  <0> d           1.455  -2.521  -2.524  0.00  0.00     0.009 C 
ATOM     15  H10 <0> d           0.928  -2.160  -3.407  0.00  0.00     0.047 H 
ATOM     16  H11 <0> d           2.478  -2.143  -2.532  0.00  0.00     0.047 H 
BRANCH  14  17
ATOM     17  C6  <0> d           1.476  -4.028  -2.532  0.00  0.00     0.215 C 
ATOM     18  O1  <0> d           0.967  -4.646  -1.621  0.00  0.00    -0.274 OA
ATOM     19  N1  <0> d           2.058  -4.688  -3.552  0.00  0.00    -0.370 N 
ATOM     20  H12 <0> d           2.465  -4.193  -4.281  0.00  0.00     0.159 HD
ATOM     21  H13 <0> d           2.072  -5.658  -3.558  0.00  0.00     0.159 HD
ENDBRANCH  14  17
ENDBRANCH   1  14
TORSDOF 5
