REMARK  2 active torsions:
REMARK  status: ('A' for Active; 'I' for Inactive)
REMARK    1  A    between atoms: N1_4  and  C5_6 
REMARK    2  A    between atoms: C8_9  and  N2_12 
ROOT
ATOM      1  C5  <0> d          -0.017   1.384   0.010  0.00  0.00     0.038 A 
ATOM      2  C6  <0> d           1.176   2.095   0.002  0.00  0.00    -0.055 A 
ATOM      3  C7  <0> d           2.381   1.421  -0.013  0.00  0.00    -0.056 A 
ATOM      4  C8  <0> d           2.400   0.033  -0.021  0.00  0.00     0.025 A 
ATOM      5  C9  <0> d           1.207  -0.678  -0.013  0.00  0.00    -0.056 A 
ATOM      6  C10 <0> d           0.002  -0.004   0.002  0.00  0.00    -0.055 A 
ATOM      7  H5  <0> d           1.161   3.175   0.008  0.00  0.00     0.087 H 
ATOM      8  H6  <0> d           3.308   1.974  -0.019  0.00  0.00     0.087 H 
ATOM      9  H7  <0> d           1.221  -1.758  -0.019  0.00  0.00     0.087 H 
ATOM     10  H8  <0> d          -0.926  -0.557   0.008  0.00  0.00     0.087 H 
ENDROOT
BRANCH   1  11
ATOM     11  N1  <0> d          -1.242   2.069   0.019  0.00  0.00    -0.333 N 
ATOM     12  C3  <0> d          -1.395   3.426   0.027  0.00  0.00    -0.015 A 
ATOM     13  C2  <0> d          -2.716   3.700   0.035  0.00  0.00    -0.066 A 
ATOM     14  H3  <0> d          -0.597   4.153   0.028  0.00  0.00     0.112 H 
ATOM     15  C1  <0> d          -3.404   2.470   0.031  0.00  0.00    -0.066 A 
ATOM     16  H2  <0> d          -3.164   4.683   0.042  0.00  0.00     0.085 H 
ATOM     17  C4  <0> d          -2.478   1.489   0.016  0.00  0.00    -0.015 A 
ATOM     18  H1  <0> d          -4.475   2.338   0.035  0.00  0.00     0.085 H 
ATOM     19  H4  <0> d          -2.680   0.428   0.006  0.00  0.00     0.112 H 
ENDBRANCH   1  11
BRANCH   4  20
ATOM     20  N2  <0> d           3.620  -0.650  -0.037  0.00  0.00    -0.399 N 
ATOM     21  H9  <0> d           3.634  -1.620  -0.043  0.00  0.00     0.156 HD
ATOM     22  H10 <0> d           4.454  -0.153  -0.043  0.00  0.00     0.156 HD
ENDBRANCH   4  20
TORSDOF 2
