REMARK  4 active torsions:
REMARK  status: ('A' for Active; 'I' for Inactive)
REMARK    1  A    between atoms: C1_1  and  N1_2 
REMARK    2  A    between atoms: C2_3  and  C6_9 
REMARK    3  A    between atoms: C6_9  and  O3_11 
REMARK    4  A    between atoms: O3_11  and  C7_12 
ROOT
ATOM      1  N1  <0> d           1.390   1.951  -0.001  0.00  0.00    -0.342 N 
ATOM      2  C2  <0> d          -0.019   1.541   0.011  0.00  0.00     0.098 C 
ATOM      3  H1  <0> d          -0.511   1.906   0.912  0.00  0.00     0.088 H 
ATOM      4  C3  <0> d           0.002  -0.004   0.002  0.00  0.00    -0.029 C 
ATOM      5  C4  <0> d           1.367  -0.297  -0.662  0.00  0.00     0.012 C 
ATOM      6  C5  <0> d           2.190   0.940  -0.380  0.00  0.00     0.220 C 
ATOM      7  O1  <0> d           3.397   1.010  -0.482  0.00  0.00    -0.273 OA
ATOM      8  H5  <0> d          -0.031  -0.400   1.017  0.00  0.00     0.037 H 
ATOM      9  H6  <0> d          -0.817  -0.402  -0.597  0.00  0.00     0.037 H 
ATOM     10  H7  <0> d           1.831  -1.175  -0.211  0.00  0.00     0.047 H 
ATOM     11  H8  <0> d           1.246  -0.438  -1.736  0.00  0.00     0.047 H 
ENDROOT
BRANCH   2  12
ATOM     12  C6  <0> d          -0.723   2.059  -1.217  0.00  0.00     0.281 C 
ATOM     13  O2  <0> d          -0.080   2.453  -2.161  0.00  0.00    -0.263 OA
BRANCH  12  14
ATOM     14  O3  <0> d          -2.064   2.084  -1.260  0.00  0.00    -0.325 OA
BRANCH  14  15
ATOM     15  C7  <0> d          -2.675   2.597  -2.474  0.00  0.00     0.013 C 
ATOM     16  H9  <0> d          -2.357   3.627  -2.633  0.00  0.00     0.067 H 
ATOM     17  H10 <0> d          -2.365   1.986  -3.322  0.00  0.00     0.067 H 
ATOM     18  H11 <0> d          -3.760   2.562  -2.378  0.00  0.00     0.067 H 
ENDBRANCH  14  15
ENDBRANCH  12  14
ENDBRANCH   2  12
BRANCH   1  19
ATOM     19  C1  <0> d           1.863   3.291   0.356  0.00  0.00    -0.015 C 
ATOM     20  H2  <0> d           2.074   3.329   1.425  0.00  0.00     0.056 H 
ATOM     21  H3  <0> d           2.772   3.516  -0.202  0.00  0.00     0.056 H 
ATOM     22  H4  <0> d           1.096   4.025   0.111  0.00  0.00     0.056 H 
ENDBRANCH   1  19
TORSDOF 4
