REMARK  5 active torsions:
REMARK  status: ('A' for Active; 'I' for Inactive)
REMARK    1  A    between atoms: C1_1  and  C2_2 
REMARK    2  A    between atoms: C2_2  and  C3_3 
REMARK    3  A    between atoms: C2_2  and  N1_4 
REMARK    4  A    between atoms: N1_4  and  C4_5 
REMARK    5  A    between atoms: C7_8  and  N3_11 
ROOT
ATOM      1  C4  <0> d          -1.227   1.646   0.017  0.00  0.00     0.123 A 
ATOM      2  C5  <0> d          -1.237   3.037   0.030  0.00  0.00    -0.037 A 
ATOM      3  C6  <0> d          -2.449   3.702   0.035  0.00  0.00    -0.053 A 
ATOM      4  C7  <0> d          -3.621   2.947   0.036  0.00  0.00     0.043 A 
ATOM      5  C8  <0> d          -3.534   1.564   0.028  0.00  0.00     0.029 A 
ATOM      6  N2  <0> d          -2.359   0.961   0.018  0.00  0.00    -0.241 NA
ATOM      7  H9  <0> d          -0.309   3.590   0.033  0.00  0.00     0.089 H 
ATOM      8  H10 <0> d          -2.487   4.782   0.042  0.00  0.00     0.087 H 
ATOM      9  H11 <0> d          -4.437   0.972   0.028  0.00  0.00     0.118 H 
ENDROOT
BRANCH   1  10
ATOM     10  N1  <0> d          -0.011   0.966   0.007  0.00  0.00    -0.371 N 
ATOM     11  H8  <0> d           0.004  -0.134   0.006  0.00  0.00     0.161 HD
BRANCH  10  12
ATOM     12  C2  <0> d           1.248   1.716  -0.001  0.00  0.00     0.004 C 
ATOM     13  H4  <0> d           1.091   2.618   0.609  0.00  0.00     0.071 H 
BRANCH  12  14
ATOM     14  C1  <0> d           2.361   0.850   0.594  0.00  0.00    -0.058 C 
ATOM     15  H1  <0> d           2.102   0.579   1.628  0.00  0.00     0.030 H 
ATOM     16  H2  <0> d           3.305   1.413   0.588  0.00  0.00     0.030 H 
ATOM     17  H3  <0> d           2.474  -0.064  -0.007  0.00  0.00     0.030 H 
ENDBRANCH  12  14
BRANCH  12  18
ATOM     18  C3  <0> d           1.608   2.092  -1.439  0.00  0.00    -0.058 C 
ATOM     19  H5  <0> d           0.807   2.714  -1.867  0.00  0.00     0.030 H 
ATOM     20  H6  <0> d           1.722   1.178  -2.040  0.00  0.00     0.030 H 
ATOM     21  H7  <0> d           2.553   2.655  -1.445  0.00  0.00     0.030 H 
ENDBRANCH  12  18
ENDBRANCH  10  12
ENDBRANCH   1  10
BRANCH   4  22
ATOM     22  N3  <0> d          -4.871   3.579   0.045  0.00  0.00    -0.398 N 
ATOM     23  H12 <0> d          -5.791   2.977   0.046  0.00  0.00     0.156 HD
ATOM     24  H13 <0> d          -4.932   4.677   0.052  0.00  0.00     0.156 HD
ENDBRANCH   4  22
TORSDOF 5
