REMARK  5 active torsions:
REMARK  status: ('A' for Active; 'I' for Inactive)
REMARK    1  A    between atoms: C1_1  and  C2_2 
REMARK    2  A    between atoms: C5_5  and  C9_9 
REMARK    3  A    between atoms: C7_7  and  C8_8 
REMARK    4  A    between atoms: C9_9  and  C10_11 
REMARK    5  A    between atoms: C9_9  and  O1_12 
ROOT
ATOM      1  C2  <0> d           2.396   0.028  -0.021  0.00  0.00    -0.056 A 
ATOM      2  C3  <0> d           2.377   1.411  -0.015  0.00  0.00    -0.076 A 
ATOM      3  C4  <0> d           1.171   2.085   0.002  0.00  0.00    -0.074 A 
ATOM      4  C5  <0> d          -0.017   1.378   0.010  0.00  0.00    -0.029 A 
ATOM      5  C6  <0> d           0.002  -0.004   0.002  0.00  0.00    -0.068 A 
ATOM      6  C7  <0> d           1.209  -0.679  -0.013  0.00  0.00    -0.056 A 
ATOM      7  H5  <0> d           3.305   1.963  -0.022  0.00  0.00     0.084 H 
ATOM      8  H6  <0> d           1.157   3.165   0.008  0.00  0.00     0.084 H 
ATOM      9  H7  <0> d          -0.926  -0.557   0.008  0.00  0.00     0.085 H 
ENDROOT
BRANCH   4  10
ATOM     10  C9  <0> d          -1.332   2.114   0.020  0.00  0.00     0.057 C 
ATOM     11  H1  <0> d          -2.102   1.476   0.454  0.00  0.00     0.089 H 
BRANCH  10  12
ATOM     12  C10 <0> d          -1.722   2.480  -1.413  0.00  0.00    -0.049 C 
ATOM     13  H11 <0> d          -1.819   1.571  -2.007  0.00  0.00     0.031 H 
ATOM     14  H12 <0> d          -2.674   3.012  -1.406  0.00  0.00     0.031 H 
ATOM     15  H13 <0> d          -0.953   3.118  -1.848  0.00  0.00     0.031 H 
ENDBRANCH  10  12
BRANCH  10  16
ATOM     16  O1  <0> d          -1.205   3.305   0.798  0.00  0.00    -0.391 OA
ATOM     17  H14 <0> d          -0.536   3.921   0.469  0.00  0.00     0.210 HD
ENDBRANCH  10  16
ENDBRANCH   4  10
BRANCH   6  18
ATOM     18  C8  <0> d           1.229  -2.186  -0.021  0.00  0.00    -0.051 C 
ATOM     19  H8  <0> d           1.224  -2.544  -1.050  0.00  0.00     0.033 H 
ATOM     20  H9  <0> d           2.129  -2.539   0.483  0.00  0.00     0.033 H 
ATOM     21  H10 <0> d           0.349  -2.564   0.500  0.00  0.00     0.033 H 
ENDBRANCH   6  18
BRANCH   1  22
ATOM     22  C1  <0> d           3.711  -0.707  -0.037  0.00  0.00    -0.051 C 
ATOM     23  H2  <0> d           4.018  -0.880  -1.069  0.00  0.00     0.033 H 
ATOM     24  H3  <0> d           4.468  -0.110   0.472  0.00  0.00     0.033 H 
ATOM     25  H4  <0> d           3.599  -1.664   0.473  0.00  0.00     0.033 H 
ENDBRANCH   1  22
TORSDOF 5
