REMARK  3 active torsions:
REMARK  status: ('A' for Active; 'I' for Inactive)
REMARK    1  A    between atoms: C1_1  and  C2_2 
REMARK    2  A    between atoms: C3_3  and  C6_10 
REMARK    3  A    between atoms: C5_7  and  N3_8 
ROOT
ATOM      1  C2  <0> d          -2.425   0.934   0.019  0.00  0.00    -0.006 A 
ATOM      2  C3  <0> d          -3.607   1.657   0.028  0.00  0.00    -0.010 A 
ATOM      3  C4  <0> d          -3.524   3.044   0.035  0.00  0.00     0.154 A 
ATOM      4  N1  <0> d          -2.345   3.634   0.033  0.00  0.00    -0.136 NA
ATOM      5  N2  <0> d          -1.246   2.969   0.030  0.00  0.00    -0.131 NA
ATOM      6  C5  <0> d          -1.225   1.645   0.017  0.00  0.00     0.150 A 
ATOM      7 Cl1  <0> d          -4.973   4.000   0.047  0.00  0.00    -0.060 Cl
ENDROOT
BRANCH   1   8
ATOM      8  C1  <0> d          -2.436  -0.573   0.010  0.00  0.00    -0.047 C 
ATOM      9  H1  <0> d          -2.433  -0.942   1.036  0.00  0.00     0.033 H 
ATOM     10  H2  <0> d          -3.331  -0.927  -0.501  0.00  0.00     0.033 H 
ATOM     11  H3  <0> d          -1.551  -0.939  -0.510  0.00  0.00     0.033 H 
ENDBRANCH   1   8
BRANCH   6  12
ATOM     12  N3  <0> d          -0.011   0.966   0.007  0.00  0.00    -0.382 N 
ATOM     13  H4  <0> d           0.002  -0.004   0.002  0.00  0.00     0.157 HD
ATOM     14  H5  <0> d           0.822   1.462   0.002  0.00  0.00     0.157 HD
ENDBRANCH   6  12
BRANCH   2  15
ATOM     15  C6  <0> d          -4.943   0.960   0.030  0.00  0.00    -0.048 C 
ATOM     16  H6  <0> d          -5.261   0.786   1.058  0.00  0.00     0.033 H 
ATOM     17  H7  <0> d          -5.679   1.583  -0.477  0.00  0.00     0.033 H 
ATOM     18  H8  <0> d          -4.856   0.006  -0.489  0.00  0.00     0.033 H 
ENDBRANCH   2  15
TORSDOF 3
