REMARK  1 active torsions:
REMARK  status: ('A' for Active; 'I' for Inactive)
REMARK    1  A    between atoms: C1_1  and  C2_2 
ROOT
ATOM      1  C2  <0> d          -0.742   1.585  -1.213  0.00  0.00     0.106 A 
ATOM      2  N1  <0> d          -0.070   1.808  -2.309  0.00  0.00    -0.194 NA
ATOM      3  C3  <0> d          -0.685   2.253  -3.420  0.00  0.00     0.311 A 
ATOM      4  O1  <0> d          -0.044   2.457  -4.440  0.00  0.00    -0.263 OA
ATOM      5  C4  <0> d          -2.076   2.483  -3.397  0.00  0.00     0.239 A 
ATOM      6  C5  <0> d          -2.758   2.243  -2.238  0.00  0.00     0.225 A 
ATOM      7  N2  <0> d          -2.072   1.786  -1.148  0.00  0.00    -0.320 N 
ATOM      8  O2  <0> d          -4.092   2.450  -2.172  0.00  0.00    -0.169 OA
ATOM      9  F1  <0> d          -2.720   2.931  -4.496  0.00  0.00    -0.195 F 
ATOM     10  H4  <0> d          -2.546   1.608  -0.321  0.00  0.00     0.169 HD
ENDROOT
BRANCH   1  11
ATOM     11  C1  <0> d          -0.013   1.086   0.008  0.00  0.00    -0.021 C 
ATOM     12  H1  <0> d           0.002  -0.004   0.002  0.00  0.00     0.037 H 
ATOM     13  H2  <0> d           1.010   1.463   0.000  0.00  0.00     0.037 H 
ATOM     14  H3  <0> d          -0.523   1.437   0.905  0.00  0.00     0.037 H 
ENDBRANCH   1  11
TORSDOF 1
