REMARK  1 active torsions:
REMARK  status: ('A' for Active; 'I' for Inactive)
REMARK    1  A    between atoms: C3_3  and  C5_6 
ROOT
ATOM      1  C1  <0> d           1.031   1.943   0.003  0.00  0.00    -0.075 A 
ATOM      2  C2  <0> d           0.777   3.299   0.012  0.00  0.00    -0.065 A 
ATOM      3  C3  <0> d          -0.522   3.725   0.026  0.00  0.00     0.018 A 
ATOM      4  S1  <0> d          -1.416   2.179   0.019  0.00  0.00    -0.101 SA
ATOM      5  C4  <0> d          -0.013   1.076   0.008  0.00  0.00    -0.044 A 
ATOM      6  H2  <0> d           2.046   1.576  -0.009  0.00  0.00     0.084 H 
ATOM      7  H3  <0> d           1.590   4.011   0.008  0.00  0.00     0.085 H 
ATOM      8  H4  <0> d           0.002  -0.004   0.002  0.00  0.00     0.095 H 
ENDROOT
BRANCH   3   9
ATOM      9  C5  <0> d          -1.051   5.108   0.037  0.00  0.00     0.017 A 
ATOM     10  C7  <0> d          -0.286   6.292   0.042  0.00  0.00     0.034 A 
ATOM     11  N2  <0> d          -1.109   7.307   0.050  0.00  0.00    -0.187 NA
ATOM     12  H6  <0> d           0.792   6.351   0.038  0.00  0.00     0.118 H 
ATOM     13  N1  <0> d          -2.421   6.817   0.059  0.00  0.00    -0.289 N 
ATOM     14  C6  <0> d          -2.368   5.469   0.051  0.00  0.00     0.008 A 
ATOM     15  H1  <0> d          -3.254   7.371   0.069  0.00  0.00     0.188 HD
ATOM     16  H5  <0> d          -3.214   4.797   0.055  0.00  0.00     0.115 H 
ENDBRANCH   3   9
TORSDOF 1
