REMARK  2 active torsions:
REMARK  status: ('A' for Active; 'I' for Inactive)
REMARK    1  A    between atoms: C4_4  and  C6_6 
REMARK    2  A    between atoms: C6_6  and  C7_7 
REMARK       I    between atoms: C7_7  and  N1_9 
ROOT
ATOM      1  C1  <0> d          -1.978   2.421  -0.670  0.00  0.00    -0.065 C 
ATOM      2  C2  <0> d          -0.784   1.609  -1.216  0.00  0.00    -0.065 C 
ATOM      3  C3  <0> d          -0.013   1.086   0.008  0.00  0.00    -0.061 C 
ATOM      4  C4  <0> d          -0.763   1.597   1.255  0.00  0.00    -0.046 C 
ATOM      5  C5  <0> d          -1.531   2.845   0.750  0.00  0.00    -0.061 C 
ATOM      6  H1  <0> d          -2.893   1.813  -0.601  0.00  0.00     0.033 H 
ATOM      7  H2  <0> d          -2.178   3.317  -1.275  0.00  0.00     0.033 H 
ATOM      8  H3  <0> d          -1.157   0.776  -1.830  0.00  0.00     0.033 H 
ATOM      9  H4  <0> d          -0.148   2.262  -1.831  0.00  0.00     0.033 H 
ATOM     10  H5  <0> d           0.007  -0.014  -0.014  0.00  0.00     0.033 H 
ATOM     11  H6  <0> d           1.017   1.472  -0.015  0.00  0.00     0.033 H 
ATOM     12  H7  <0> d          -1.422   0.836   1.697  0.00  0.00     0.040 H 
ATOM     13  H8  <0> d          -0.892   3.738   0.682  0.00  0.00     0.033 H 
ATOM     14  H9  <0> d          -2.417   3.074   1.361  0.00  0.00     0.033 H 
ENDROOT
BRANCH   4  15
ATOM     15  C6  <0> d           0.228   1.986   2.354  0.00  0.00     0.012 C 
ATOM     16  H10 <0> d           0.888   1.133   2.571  0.00  0.00     0.047 H 
ATOM     17  H11 <0> d           0.832   2.841   2.018  0.00  0.00     0.047 H 
BRANCH  15  18
ATOM     18  C7  <0> d          -0.528   2.364   3.602  0.00  0.00     0.215 C 
ATOM     19  O1  <0> d          -1.740   2.327   3.611  0.00  0.00    -0.274 OA
ATOM     20  N1  <0> d           0.142   2.744   4.707  0.00  0.00    -0.370 N 
ATOM     21  H12 <0> d          -0.410   3.021   5.618  0.00  0.00     0.159 HD
ATOM     22  H13 <0> d           1.242   2.778   4.699  0.00  0.00     0.159 HD
ENDBRANCH  15  18
ENDBRANCH   4  15
TORSDOF 2
