REMARK  1 active torsions:
REMARK  status: ('A' for Active; 'I' for Inactive)
REMARK    1  A    between atoms: C3_6  and  C4_7 
ROOT
ATOM      1  C1  <0> d           1.307   1.759  -0.001  0.00  0.00    -0.032 A 
ATOM      2  C2  <0> d           2.119   0.677  -0.015  0.00  0.00    -0.002 A 
ATOM      3  N1  <0> d           1.339  -0.424  -0.013  0.00  0.00    -0.289 N 
ATOM      4  H1  <0> d           1.658  -1.371  -0.021  0.00  0.00     0.188 HD
ATOM      5  N2  <0> d           0.002  -0.004   0.002  0.00  0.00    -0.171 NA
ATOM      6  C3  <0> d          -0.016   1.304   0.009  0.00  0.00     0.161 A 
ATOM      7  H2  <0> d           1.624   2.792   0.001  0.00  0.00     0.089 H 
ATOM      8  H3  <0> d           3.199   0.692  -0.025  0.00  0.00     0.113 H 
ENDROOT
BRANCH   6   9
ATOM      9  C4  <0> d          -1.248   2.171   0.020  0.00  0.00     0.436 C 
ATOM     10  F1  <0> d          -2.385   1.364   0.137  0.00  0.00    -0.165 F 
ATOM     11  F2  <0> d          -1.189   3.053   1.105  0.00  0.00    -0.165 F 
ATOM     12  F3  <0> d          -1.315   2.901  -1.171  0.00  0.00    -0.165 F 
ENDBRANCH   6   9
TORSDOF 1
