REMARK  4 active torsions:
REMARK  status: ('A' for Active; 'I' for Inactive)
REMARK    1  A    between atoms: C1_1  and  C2_2 
REMARK    2  A    between atoms: C5_5  and  N1_10 
REMARK    3  A    between atoms: C6_6  and  O1_9 
REMARK    4  A    between atoms: C7_7  and  C8_8 
ROOT
ATOM      1  C2  <0> d          -2.083   1.789   1.226  0.00  0.00    -0.053 A 
ATOM      2  C3  <0> d          -2.736   2.230   2.363  0.00  0.00    -0.074 A 
ATOM      3  C4  <0> d          -2.024   2.466   3.524  0.00  0.00    -0.054 A 
ATOM      4  C5  <0> d          -0.653   2.255   3.552  0.00  0.00     0.059 A 
ATOM      5  C6  <0> d           0.002   1.806   2.407  0.00  0.00     0.098 A 
ATOM      6  C7  <0> d          -0.718   1.572   1.248  0.00  0.00    -0.021 A 
ATOM      7  H4  <0> d          -3.803   2.394   2.342  0.00  0.00     0.084 H 
ATOM      8  H5  <0> d          -2.535   2.814   4.409  0.00  0.00     0.087 H 
ENDROOT
BRANCH   1   9
ATOM      9  C1  <0> d          -2.864   1.540  -0.039  0.00  0.00    -0.051 C 
ATOM     10  H1  <0> d          -3.212   0.507  -0.053  0.00  0.00     0.033 H 
ATOM     11  H2  <0> d          -3.721   2.212  -0.075  0.00  0.00     0.033 H 
ATOM     12  H3  <0> d          -2.224   1.719  -0.902  0.00  0.00     0.033 H 
ENDBRANCH   1   9
BRANCH   6  13
ATOM     13  C8  <0> d          -0.013   1.086   0.008  0.00  0.00    -0.048 C 
ATOM     14  H6  <0> d           0.002  -0.004   0.002  0.00  0.00     0.033 H 
ATOM     15  H7  <0> d           1.010   1.463   0.000  0.00  0.00     0.033 H 
ATOM     16  H8  <0> d          -0.540   1.447  -0.875  0.00  0.00     0.033 H 
ENDBRANCH   6  13
BRANCH   5  17
ATOM     17  O1  <0> d           1.346   1.598   2.429  0.00  0.00    -0.358 OA
ATOM     18  H9  <0> d           1.868   2.374   2.183  0.00  0.00     0.217 HD
ENDBRANCH   5  17
BRANCH   4  19
ATOM     19  N1  <0> d           0.070   2.493   4.726  0.00  0.00    -0.397 N 
ATOM     20  H10 <0> d           1.028   2.345   4.745  0.00  0.00     0.156 HD
ATOM     21  H11 <0> d          -0.388   2.806   5.523  0.00  0.00     0.156 HD
ENDBRANCH   4  19
TORSDOF 4
