REMARK  0 active torsions:
REMARK  status: ('A' for Active; 'I' for Inactive)
ROOT
ATOM      1  C1  <0> d          -1.238   2.403   0.021  0.00  0.00    -0.060 A 
ATOM      2  C2  <0> d          -1.278   3.780   0.034  0.00  0.00    -0.052 A 
ATOM      3  C3  <0> d          -0.092   4.502   0.027  0.00  0.00     0.082 A 
ATOM      4  C4  <0> d           1.140   3.821   0.012  0.00  0.00     0.110 A 
ATOM      5  C5  <0> d           1.157   2.424   0.004  0.00  0.00    -0.030 A 
ATOM      6  C6  <0> d          -0.021   1.732   0.012  0.00  0.00     0.036 A 
ATOM      7 Cl1  <0> d           0.002  -0.004   0.002  0.00  0.00    -0.084 Cl
ATOM      8  N1  <0> d           2.086   4.782   0.008  0.00  0.00    -0.130 NA
ATOM      9  N2  <0> d           1.518   5.936   0.019  0.00  0.00    -0.067 NA
ATOM     10  N3  <0> d           0.233   5.836   0.031  0.00  0.00    -0.258 N 
ATOM     11  H1  <0> d          -0.562   6.596   0.043  0.00  0.00     0.191 HD
ATOM     12  H2  <0> d          -2.160   1.841   0.022  0.00  0.00     0.086 H 
ATOM     13  H3  <0> d          -2.228   4.295   0.046  0.00  0.00     0.087 H 
ATOM     14  H4  <0> d           2.097   1.893  -0.008  0.00  0.00     0.089 H 
ENDROOT
TORSDOF 0
