REMARK  6 active torsions:
REMARK  status: ('A' for Active; 'I' for Inactive)
REMARK    1  A    between atoms: C1_1  and  C2_2 
REMARK    2  A    between atoms: C2_2  and  C3_3 
REMARK    3  A    between atoms: C3_3  and  C4_4 
REMARK    4  A    between atoms: C4_4  and  C5_5 
REMARK    5  A    between atoms: C4_4  and  C6_6 
REMARK    6  A    between atoms: C4_4  and  C7_7 
ROOT
ATOM      1  C4  <0> d           0.002  -0.004   0.002  0.00  0.00     0.041 C 
ENDROOT
BRANCH   1   2
ATOM      2  C3  <0> d          -1.433  -0.534   0.013  0.00  0.00    -0.050 C 
ATOM      3  H6  <0> d          -1.944  -0.182   0.910  0.00  0.00     0.034 H 
ATOM      4  H7  <0> d          -1.960  -0.173  -0.870  0.00  0.00     0.034 H 
BRANCH   2   5
ATOM      5  C2  <0> d          -1.413  -2.063   0.004  0.00  0.00    -0.067 C 
ATOM      6  H4  <0> d          -0.902  -2.415  -0.892  0.00  0.00     0.032 H 
ATOM      7  H5  <0> d          -0.885  -2.425   0.887  0.00  0.00     0.032 H 
BRANCH   5   8
ATOM      8  C1  <0> d          -2.848  -2.593   0.015  0.00  0.00    -0.076 C 
ATOM      9  H1  <0> d          -3.358  -2.241   0.912  0.00  0.00     0.027 H 
ATOM     10  H2  <0> d          -3.375  -2.232  -0.868  0.00  0.00     0.027 H 
ATOM     11  H3  <0> d          -2.833  -3.683   0.009  0.00  0.00     0.027 H 
ENDBRANCH   5   8
ENDBRANCH   2   5
ENDBRANCH   1   2
BRANCH   1  12
ATOM     12  C5  <0> d           0.718  -0.497  -1.257  0.00  0.00    -0.060 C 
ATOM     13  H8  <0> d           1.741  -0.120  -1.264  0.00  0.00     0.029 H 
ATOM     14  H9  <0> d           0.733  -1.587  -1.263  0.00  0.00     0.029 H 
ATOM     15  H10 <0> d           0.191  -0.136  -2.140  0.00  0.00     0.029 H 
ENDBRANCH   1  12
BRANCH   1  16
ATOM     16  C6  <0> d           0.742  -0.511   1.242  0.00  0.00    -0.060 C 
ATOM     17  H11 <0> d           0.232  -0.159   2.138  0.00  0.00     0.029 H 
ATOM     18  H12 <0> d           0.757  -1.601   1.236  0.00  0.00     0.029 H 
ATOM     19  H13 <0> d           1.765  -0.134   1.234  0.00  0.00     0.029 H 
ENDBRANCH   1  16
BRANCH   1  20
ATOM     20  C7  <0> d          -0.018   1.503   0.010  0.00  0.00     0.181 C 
ATOM     21  O1  <0> d          -1.073   2.093   0.018  0.00  0.00    -0.647 OA
ATOM     22  O2  <0> d           1.135   2.190   0.003  0.00  0.00    -0.647 OA
ENDBRANCH   1  20
TORSDOF 6
