REMARK  5 active torsions:
REMARK  status: ('A' for Active; 'I' for Inactive)
REMARK    1  A    between atoms: C1_1  and  C2_2 
REMARK    2  A    between atoms: C2_2  and  C3_3 
REMARK    3  A    between atoms: C8_8  and  N1_9 
REMARK    4  A    between atoms: N1_9  and  C9_10 
REMARK    5  A    between atoms: N1_9  and  C10_11 
ROOT
ATOM      1  C3  <0> d          -0.724   0.315   3.284  0.00  0.00    -0.037 A 
ATOM      2  C4  <0> d          -0.077  -0.124   4.423  0.00  0.00    -0.075 A 
ATOM      3  C5  <0> d           1.239   0.231   4.653  0.00  0.00    -0.082 A 
ATOM      4  C6  <0> d           1.913   1.026   3.744  0.00  0.00    -0.081 A 
ATOM      5  C7  <0> d           1.274   1.464   2.601  0.00  0.00    -0.062 A 
ATOM      6  C8  <0> d          -0.050   1.114   2.370  0.00  0.00     0.016 A 
ATOM      7  H6  <0> d          -0.601  -0.745   5.135  0.00  0.00     0.084 H 
ATOM      8  H7  <0> d           1.742  -0.115   5.544  0.00  0.00     0.083 H 
ATOM      9  H8  <0> d           2.942   1.300   3.927  0.00  0.00     0.083 H 
ATOM     10  H9  <0> d           1.803   2.082   1.890  0.00  0.00     0.086 H 
ENDROOT
BRANCH   6  11
ATOM     11  N1  <0> d          -0.700   1.560   1.217  0.00  0.00    -0.291 NA
BRANCH  11  12
ATOM     12  C9  <0> d          -0.013   1.086   0.008  0.00  0.00    -0.029 C 
ATOM     13  H10 <0> d           0.002  -0.004   0.002  0.00  0.00     0.048 H 
ATOM     14  H11 <0> d           1.010   1.463   0.000  0.00  0.00     0.048 H 
ATOM     15  H12 <0> d          -0.540   1.447  -0.875  0.00  0.00     0.048 H 
ENDBRANCH  11  12
BRANCH  11  16
ATOM     16  C10 <0> d          -0.822   3.023   1.213  0.00  0.00    -0.029 C 
ATOM     17  H13 <0> d          -1.332   3.344   0.305  0.00  0.00     0.048 H 
ATOM     18  H14 <0> d          -1.396   3.342   2.083  0.00  0.00     0.048 H 
ATOM     19  H15 <0> d           0.171   3.471   1.249  0.00  0.00     0.048 H 
ENDBRANCH  11  16
ENDBRANCH   6  11
BRANCH   1  20
ATOM     20  C2  <0> d          -2.159  -0.072   3.034  0.00  0.00    -0.043 C 
ATOM     21  H4  <0> d          -2.647  -0.291   3.984  0.00  0.00     0.039 H 
ATOM     22  H5  <0> d          -2.676   0.750   2.541  0.00  0.00     0.039 H 
BRANCH  20  23
ATOM     23  C1  <0> d          -2.203  -1.313   2.140  0.00  0.00    -0.073 C 
ATOM     24  H1  <0> d          -1.715  -1.094   1.190  0.00  0.00     0.028 H 
ATOM     25  H2  <0> d          -1.685  -2.135   2.634  0.00  0.00     0.028 H 
ATOM     26  H3  <0> d          -3.241  -1.593   1.959  0.00  0.00     0.028 H 
ENDBRANCH  20  23
ENDBRANCH   1  20
TORSDOF 5
