REMARK  5 active torsions:
REMARK  status: ('A' for Active; 'I' for Inactive)
REMARK    1  A    between atoms: C1_1  and  O1_2 
REMARK    2  A    between atoms: O1_2  and  C2_3 
REMARK    3  A    between atoms: C2_3  and  C3_5 
REMARK    4  A    between atoms: C3_5  and  C4_7 
REMARK    5  A    between atoms: C3_5  and  O4_12 
ROOT
ATOM      1  C3  <0> d           1.279   2.109   0.001  0.00  0.00     0.165 C 
ATOM      2  H1  <0> d           1.900   1.784   0.835  0.00  0.00     0.109 H 
ENDROOT
BRANCH   1   3
ATOM      3  C2  <0> d          -0.016   1.338   0.009  0.00  0.00     0.294 C 
ATOM      4  O2  <0> d          -1.071   1.928   0.018  0.00  0.00    -0.262 OA
BRANCH   3   5
ATOM      5  O1  <0> d           0.002  -0.004   0.002  0.00  0.00    -0.324 OA
BRANCH   5   6
ATOM      6  C1  <0> d          -1.282  -0.681   0.011  0.00  0.00     0.013 C 
ATOM      7  H2  <0> d          -1.125  -1.759   0.003  0.00  0.00     0.067 H 
ATOM      8  H3  <0> d          -1.835  -0.400   0.907  0.00  0.00     0.067 H 
ATOM      9  H4  <0> d          -1.852  -0.391  -0.872  0.00  0.00     0.067 H 
ENDBRANCH   5   6
ENDBRANCH   3   5
ENDBRANCH   1   3
BRANCH   1  10
ATOM     10  C4  <0> d           2.005   1.857  -1.295  0.00  0.00     0.091 A 
ATOM     11  O3  <0> d           1.806   2.517  -2.448  0.00  0.00    -0.324 OA
ATOM     12  C7  <0> d           2.628   2.028  -3.391  0.00  0.00     0.019 A 
ATOM     13  C6  <0> d           3.365   1.044  -2.844  0.00  0.00    -0.059 A 
ATOM     14  H7  <0> d           2.687   2.367  -4.415  0.00  0.00     0.123 H 
ATOM     15  C5  <0> d           2.967   0.938  -1.492  0.00  0.00    -0.049 A 
ATOM     16  H6  <0> d           4.119   0.452  -3.342  0.00  0.00     0.086 H 
ATOM     17  H5  <0> d           3.359   0.249  -0.758  0.00  0.00     0.087 H 
ENDBRANCH   1  10
BRANCH   1  18
ATOM     18  O4  <0> d           1.002   3.506   0.129  0.00  0.00    -0.379 OA
ATOM     19  H8  <0> d           0.452   3.864  -0.581  0.00  0.00     0.211 HD
ENDBRANCH   1  18
TORSDOF 5
