REMARK  5 active torsions:
REMARK  status: ('A' for Active; 'I' for Inactive)
REMARK    1  A    between atoms: C1_1  and  C2_2 
REMARK    2  A    between atoms: C2_2  and  O1_3 
REMARK    3  A    between atoms: O1_3  and  C3_4 
REMARK    4  A    between atoms: C3_4  and  C4_6 
REMARK    5  A    between atoms: C6_11  and  N3_12 
ROOT
ATOM      1  C4  <0> d          -2.881  -2.427   0.017  0.00  0.00     0.120 A 
ATOM      2  H1  <0> d          -3.430  -2.104   0.901  0.00  0.00     0.076 H 
ATOM      3  C5  <0> d          -3.632  -2.052  -1.245  0.00  0.00     0.022 A 
ATOM      4  N1  <0> d          -3.900  -3.163  -1.847  0.00  0.00    -0.189 NA
ATOM      5  N2  <0> d          -3.423  -4.272  -1.155  0.00  0.00    -0.266 N 
ATOM      6  C6  <0> d          -2.813  -3.940  -0.048  0.00  0.00     0.110 A 
ATOM      7  H7  <0> d          -3.893  -1.057  -1.574  0.00  0.00     0.112 H 
ATOM      8  H10 <0> d          -3.533  -5.187  -1.458  0.00  0.00     0.190 HD
ENDROOT
BRANCH   1   9
ATOM      9  C3  <0> d          -1.496  -1.832   0.006  0.00  0.00     0.275 C 
ATOM     10  O2  <0> d          -0.528  -2.555  -0.007  0.00  0.00    -0.264 OA
BRANCH   9  11
ATOM     11  O1  <0> d          -1.339  -0.499   0.012  0.00  0.00    -0.321 OA
BRANCH  11  12
ATOM     12  C2  <0> d           0.002  -0.004   0.002  0.00  0.00     0.025 C 
ATOM     13  H5  <0> d           0.512  -0.356  -0.895  0.00  0.00     0.074 H 
ATOM     14  H6  <0> d           0.529  -0.365   0.885  0.00  0.00     0.074 H 
BRANCH  12  15
ATOM     15  C1  <0> d          -0.019   1.526   0.010  0.00  0.00    -0.056 C 
ATOM     16  H2  <0> d           1.004   1.903   0.003  0.00  0.00     0.030 H 
ATOM     17  H3  <0> d          -0.546   1.887  -0.873  0.00  0.00     0.030 H 
ATOM     18  H4  <0> d          -0.529   1.877   0.907  0.00  0.00     0.030 H 
ENDBRANCH  12  15
ENDBRANCH  11  12
ENDBRANCH   9  11
ENDBRANCH   1   9
BRANCH   6  19
ATOM     19  N3  <0> d          -2.232  -4.780   0.863  0.00  0.00    -0.387 N 
ATOM     20  H8  <0> d          -1.803  -4.416   1.654  0.00  0.00     0.157 HD
ATOM     21  H9  <0> d          -2.249  -5.739   0.718  0.00  0.00     0.157 HD
ENDBRANCH   6  19
TORSDOF 5
