REMARK  2 active torsions:
REMARK  status: ('A' for Active; 'I' for Inactive)
REMARK    1  A    between atoms: C1_1  and  C2_2 
REMARK    2  A    between atoms: C4_5  and  C5_7 
ROOT
ATOM      1  C5  <0> d           0.002  -0.004   0.002  0.00  0.00     0.061 C 
ATOM      2  C6  <0> d          -0.004  -0.487  -1.388  0.00  0.00     0.065 C 
ATOM      3  N2  <0> d          -0.010  -0.860  -2.462  0.00  0.00    -0.197 NA
ATOM      4  H5  <0> d           0.902  -0.358   0.505  0.00  0.00     0.065 H 
ATOM      5  H6  <0> d          -0.878  -0.382   0.522  0.00  0.00     0.065 H 
ENDROOT
BRANCH   1   6
ATOM      6  C4  <0> d          -0.018   1.503   0.010  0.00  0.00     0.088 A 
ATOM      7  N1  <0> d          -1.051   2.314   0.019  0.00  0.00    -0.256 NA
ATOM      8  C3  <0> d          -0.898   3.621   0.030  0.00  0.00     0.015 A 
ATOM      9  C2  <0> d           0.364   4.123   0.021  0.00  0.00    -0.002 A 
ATOM     10  H4  <0> d          -1.754   4.279   0.042  0.00  0.00     0.116 H 
ATOM     11  S1  <0> d           1.318   2.612   0.004  0.00  0.00    -0.077 SA
BRANCH   9  12
ATOM     12  C1  <0> d           0.830   5.556   0.024  0.00  0.00    -0.044 C 
ATOM     13  H1  <0> d           1.919   5.584   0.013  0.00  0.00     0.034 H 
ATOM     14  H2  <0> d           0.445   6.065  -0.859  0.00  0.00     0.034 H 
ATOM     15  H3  <0> d           0.463   6.056   0.920  0.00  0.00     0.034 H 
ENDBRANCH   9  12
ENDBRANCH   1   6
TORSDOF 2
