REMARK  4 active torsions:
REMARK  status: ('A' for Active; 'I' for Inactive)
REMARK    1  A    between atoms: C1_1  and  C2_2 
REMARK    2  A    between atoms: C2_2  and  C3_3 
REMARK    3  A    between atoms: C2_2  and  C4_4 
REMARK    4  A    between atoms: C2_2  and  C5_5 
ROOT
ATOM      1  C2  <0> d          -1.644   4.474   0.039  0.00  0.00     0.018 C 
ENDROOT
BRANCH   1   2
ATOM      2  C1  <0> d          -0.819   5.763   0.037  0.00  0.00    -0.062 C 
ATOM      3  H2  <0> d          -0.199   5.796  -0.859  0.00  0.00     0.029 H 
ATOM      4  H3  <0> d          -1.489   6.623   0.046  0.00  0.00     0.029 H 
ATOM      5  H4  <0> d          -0.183   5.788   0.921  0.00  0.00     0.029 H 
ENDBRANCH   1   2
BRANCH   1   6
ATOM      6  C3  <0> d          -2.538   4.439  -1.203  0.00  0.00    -0.062 C 
ATOM      7  H5  <0> d          -3.126   3.521  -1.201  0.00  0.00     0.029 H 
ATOM      8  H6  <0> d          -3.208   5.299  -1.193  0.00  0.00     0.029 H 
ATOM      9  H7  <0> d          -1.917   4.471  -2.098  0.00  0.00     0.029 H 
ENDBRANCH   1   6
BRANCH   1  10
ATOM     10  C4  <0> d          -2.515   4.428   1.296  0.00  0.00    -0.062 C 
ATOM     11  H8  <0> d          -1.878   4.453   2.180  0.00  0.00     0.029 H 
ATOM     12  H9  <0> d          -3.185   5.288   1.306  0.00  0.00     0.029 H 
ATOM     13  H10 <0> d          -3.103   3.510   1.297  0.00  0.00     0.029 H 
ENDBRANCH   1  10
BRANCH   1  14
ATOM     14  C5  <0> d          -0.718   3.285   0.025  0.00  0.00     0.178 A 
ATOM     15  O2  <0> d          -1.107   1.995   0.017  0.00  0.00    -0.242 OA
ATOM     16  C6  <0> d          -0.014   1.213   0.009  0.00  0.00     0.387 A 
ATOM     17  N2  <0> d           1.062   2.028   0.003  0.00  0.00    -0.220 N 
ATOM     18  O1  <0> d           0.002  -0.004   0.002  0.00  0.00    -0.236 OA
ATOM     19  N1  <0> d           0.572   3.343   0.014  0.00  0.00    -0.148 NA
ATOM     20  H1  <0> d           1.993   1.758  -0.007  0.00  0.00     0.194 HD
ENDBRANCH   1  14
TORSDOF 4
