REMARK  2 active torsions:
REMARK  status: ('A' for Active; 'I' for Inactive)
REMARK    1  A    between atoms: C1_1  and  C3_4 
REMARK    2  A    between atoms: C5_6  and  N4_10 
ROOT
ATOM      1  C1  <0> d           3.621   0.853  -0.028  0.00  0.00     0.058 C 
ATOM      2  C2  <0> d           4.097   0.883  -1.421  0.00  0.00     0.065 C 
ATOM      3  N1  <0> d           4.465   0.906  -2.495  0.00  0.00    -0.197 NA
ATOM      4  H2  <0> d           3.949   1.756   0.487  0.00  0.00     0.064 H 
ATOM      5  H3  <0> d           4.028  -0.022   0.477  0.00  0.00     0.064 H 
ENDROOT
BRANCH   1   6
ATOM      6  C3  <0> d           2.115   0.786  -0.014  0.00  0.00     0.092 A 
ATOM      7  N3  <0> d           1.304   1.806  -0.001  0.00  0.00    -0.175 NA
ATOM      8  N2  <0> d          -0.016   1.345   0.009  0.00  0.00    -0.261 N 
ATOM      9  C5  <0> d           0.002  -0.004   0.002  0.00  0.00     0.138 A 
ATOM     10  H1  <0> d          -0.836   1.918   0.020  0.00  0.00     0.191 HD
ATOM     11  C4  <0> d           1.338  -0.396  -0.013  0.00  0.00     0.116 A 
ATOM     12  C6  <0> d           1.831  -1.740  -0.025  0.00  0.00     0.105 C 
ATOM     13  N5  <0> d           2.223  -2.806  -0.035  0.00  0.00    -0.191 NA
BRANCH   9  14
ATOM     14  N4  <0> d          -1.098  -0.840   0.008  0.00  0.00    -0.383 N 
ATOM     15  H4  <0> d          -1.993  -0.464   0.018  0.00  0.00     0.157 HD
ATOM     16  H5  <0> d          -0.976  -1.802   0.002  0.00  0.00     0.157 HD
ENDBRANCH   9  14
ENDBRANCH   1   6
TORSDOF 2
