REMARK  1 active torsions:
REMARK  status: ('A' for Active; 'I' for Inactive)
REMARK    1  A    between atoms: C6_7  and  O1_14 
ROOT
ATOM      1  C1  <0> d           0.742  -0.511   1.242  0.00  0.00    -0.065 C 
ATOM      2  C2  <0> d           2.178   0.019   1.231  0.00  0.00    -0.065 C 
ATOM      3  C3  <0> d           2.157   1.548   1.239  0.00  0.00    -0.061 C 
ATOM      4  C4  <0> d           1.417   2.055  -0.000  0.00  0.00    -0.048 C 
ATOM      5  H1  <0> d           1.927   1.704  -0.897  0.00  0.00     0.040 H 
ATOM      6  C5  <0> d           1.396   3.585   0.008  0.00  0.00    -0.037 C 
ATOM      7  C6  <0> d           0.656   4.092  -1.232  0.00  0.00     0.036 C 
ATOM      8  H2  <0> d           1.166   3.740  -2.128  0.00  0.00     0.082 H 
ATOM      9  C7  <0> d          -0.779   3.562  -1.221  0.00  0.00    -0.041 C 
ATOM     10  C8  <0> d          -0.759   2.033  -1.229  0.00  0.00    -0.059 C 
ATOM     11  C9  <0> d          -0.019   1.526   0.010  0.00  0.00    -0.051 C 
ATOM     12  H3  <0> d          -0.529   1.877   0.907  0.00  0.00     0.040 H 
ATOM     13  C10 <0> d           0.002  -0.004   0.002  0.00  0.00    -0.061 C 
ATOM     14  H4  <0> d           0.232  -0.159   2.138  0.00  0.00     0.033 H 
ATOM     15  H5  <0> d           0.757  -1.601   1.236  0.00  0.00     0.033 H 
ATOM     16  H6  <0> d           2.705  -0.342   2.114  0.00  0.00     0.033 H 
ATOM     17  H7  <0> d           2.688  -0.333   0.334  0.00  0.00     0.033 H 
ATOM     18  H8  <0> d           1.647   1.900   2.136  0.00  0.00     0.033 H 
ATOM     19  H9  <0> d           3.179   1.926   1.231  0.00  0.00     0.033 H 
ATOM     20  H10 <0> d           0.886   3.937   0.905  0.00  0.00     0.037 H 
ATOM     21  H11 <0> d           2.419   3.962   0.000  0.00  0.00     0.037 H 
ATOM     22  H12 <0> d          -1.290   3.914  -0.324  0.00  0.00     0.036 H 
ATOM     23  H13 <0> d          -1.307   3.924  -2.104  0.00  0.00     0.036 H 
ATOM     24  H14 <0> d          -0.248   1.681  -2.126  0.00  0.00     0.033 H 
ATOM     25  H15 <0> d          -1.781   1.655  -1.221  0.00  0.00     0.033 H 
ATOM     26  H16 <0> d          -1.020  -0.381   0.010  0.00  0.00     0.033 H 
ATOM     27  H17 <0> d           0.512  -0.356  -0.895  0.00  0.00     0.033 H 
ENDROOT
BRANCH   7  28
ATOM     28  O1  <0> d           0.637   5.521  -1.224  0.00  0.00    -0.396 OA
ATOM     29  H18 <0> d           0.182   5.912  -1.982  0.00  0.00     0.210 HD
ENDBRANCH   7  28
TORSDOF 1
