REMARK  0 active torsions:
REMARK  status: ('A' for Active; 'I' for Inactive)
ROOT
ATOM      1  C1  <0> d          -0.018   1.457   0.010  0.00  0.00     0.042 C 
ATOM      2  C2  <0> d           1.450   1.793  -0.002  0.00  0.00     0.066 C 
ATOM      3  H1  <0> d           1.881   1.563  -0.976  0.00  0.00     0.060 H 
ATOM      4  C3  <0> d           1.884   0.697   1.067  0.00  0.00     0.066 C 
ATOM      5  H2  <0> d           1.453   0.926   2.042  0.00  0.00     0.060 H 
ATOM      6  C4  <0> d           3.352   1.033   1.054  0.00  0.00     0.042 C 
ATOM      7  O1  <0> d           3.332   2.494   1.062  0.00  0.00    -0.320 OA
ATOM      8  C5  <0> d           2.126   2.959   0.593  0.00  0.00     0.266 C 
ATOM      9  O2  <0> d           1.704   4.090   0.655  0.00  0.00    -0.265 OA
ATOM     10  C6  <0> d           1.200  -0.463   0.468  0.00  0.00     0.266 C 
ATOM     11  O3  <0> d           1.618  -1.594   0.395  0.00  0.00    -0.265 OA
ATOM     12  O4  <0> d           0.002  -0.004   0.002  0.00  0.00    -0.320 OA
ATOM     13  H3  <0> d          -0.495   1.834   0.915  0.00  0.00     0.076 H 
ATOM     14  H4  <0> d          -0.512   1.843  -0.881  0.00  0.00     0.076 H 
ATOM     15  H5  <0> d           3.846   0.646   1.945  0.00  0.00     0.076 H 
ATOM     16  H6  <0> d           3.828   0.656   0.150  0.00  0.00     0.076 H 
ENDROOT
TORSDOF 0
