REMARK  2 active torsions:
REMARK  status: ('A' for Active; 'I' for Inactive)
REMARK    1  A    between atoms: C1_1  and  C2_2 
REMARK    2  A    between atoms: N2_9  and  C6_12 
ROOT
ATOM      1  C2  <0> d           1.147   2.045   0.002  0.00  0.00     0.062 A 
ATOM      2  C3  <0> d           1.101   3.455   0.010  0.00  0.00     0.259 A 
ATOM      3  O1  <0> d           2.132   4.104   0.004  0.00  0.00    -0.267 OA
ATOM      4  N1  <0> d          -0.094   4.079   0.025  0.00  0.00    -0.275 N 
ATOM      5  H1  <0> d          -0.133   5.078   0.031  0.00  0.00     0.173 HD
ATOM      6  C4  <0> d          -1.235   3.365   0.032  0.00  0.00     0.331 A 
ATOM      7  O2  <0> d          -2.304   3.944   0.044  0.00  0.00    -0.246 OA
ATOM      8  N2  <0> d          -1.209   2.020   0.019  0.00  0.00    -0.280 N 
ATOM      9  C5  <0> d          -0.016   1.347   0.009  0.00  0.00     0.205 A 
ATOM     10  F1  <0> d           0.002  -0.004   0.002  0.00  0.00    -0.185 F 
ENDROOT
BRANCH   1  11
ATOM     11  C1  <0> d           2.470   1.325  -0.014  0.00  0.00    -0.042 C 
ATOM     12  H2  <0> d           2.780   1.156  -1.045  0.00  0.00     0.034 H 
ATOM     13  H3  <0> d           3.220   1.930   0.496  0.00  0.00     0.034 H 
ATOM     14  H4  <0> d           2.369   0.367   0.496  0.00  0.00     0.034 H 
ENDBRANCH   1  11
BRANCH   8  15
ATOM     15  C6  <0> d          -2.467   1.269   0.020  0.00  0.00    -0.007 C 
ATOM     16  H5  <0> d          -2.774   1.077   1.048  0.00  0.00     0.057 H 
ATOM     17  H6  <0> d          -3.237   1.850  -0.487  0.00  0.00     0.057 H 
ATOM     18  H7  <0> d          -2.325   0.321  -0.500  0.00  0.00     0.057 H 
ENDBRANCH   8  15
TORSDOF 2
