REMARK  6 active torsions:
REMARK  status: ('A' for Active; 'I' for Inactive)
REMARK    1  A    between atoms: C1_1  and  O1_2 
REMARK    2  A    between atoms: O1_2  and  C2_3 
REMARK    3  A    between atoms: C2_3  and  C3_4 
REMARK    4  A    between atoms: C3_4  and  N1_5 
REMARK    5  A    between atoms: N1_5  and  C4_6 
REMARK    6  A    between atoms: C4_6  and  C5_7 
ROOT
ATOM      1  C3  <0> d           0.613  -2.097  -1.041  0.00  0.00     0.131 C 
ATOM      2  H6  <0> d           1.185  -2.527  -1.863  0.00  0.00     0.082 H 
ATOM      3  H7  <0> d           1.047  -2.412  -0.092  0.00  0.00     0.082 H 
ENDROOT
BRANCH   1   4
ATOM      4  C2  <0> d           0.652  -0.570  -1.138  0.00  0.00     0.044 C 
ATOM      5  H4  <0> d           0.139  -0.251  -2.045  0.00  0.00     0.076 H 
ATOM      6  H5  <0> d           1.688  -0.234  -1.169  0.00  0.00     0.076 H 
BRANCH   4   7
ATOM      7  O1  <0> d           0.002  -0.004   0.002  0.00  0.00    -0.394 OA
BRANCH   7   8
ATOM      8  C1  <0> d          -0.017   1.425   0.010  0.00  0.00     0.004 C 
ATOM      9  H1  <0> d           1.005   1.802   0.002  0.00  0.00     0.066 H 
ATOM     10  H2  <0> d          -0.544   1.786  -0.873  0.00  0.00     0.066 H 
ATOM     11  H3  <0> d          -0.527   1.776   0.907  0.00  0.00     0.066 H 
ENDBRANCH   7   8
ENDBRANCH   4   7
ENDBRANCH   1   4
BRANCH   1  12
ATOM     12  N1  <0> d          -0.780  -2.557  -1.119  0.00  0.00     0.090 N 
ATOM     13  H8  <0> d          -1.345  -2.121  -0.406  0.00  0.00     0.316 HD
BRANCH  12  14
ATOM     14  C4  <0> d          -0.856  -4.021  -1.029  0.00  0.00     0.165 C 
ATOM     15  H9  <0> d          -0.294  -4.466  -1.851  0.00  0.00     0.088 H 
ATOM     16  H10 <0> d          -0.432  -4.350  -0.080  0.00  0.00     0.088 H 
BRANCH  14  17
ATOM     17  C5  <0> d          -2.319  -4.462  -1.114  0.00  0.00     0.233 C 
ATOM     18  F1  <0> d          -3.039  -3.892  -0.059  0.00  0.00    -0.213 F 
ATOM     19  F2  <0> d          -2.863  -4.041  -2.332  0.00  0.00    -0.213 F 
ATOM     20  H11 <0> d          -2.375  -5.549  -1.047  0.00  0.00     0.147 H 
ENDBRANCH  14  17
ENDBRANCH  12  14
ENDBRANCH   1  12
TORSDOF 6
