REMARK  3 active torsions:
REMARK  status: ('A' for Active; 'I' for Inactive)
REMARK    1  A    between atoms: C1_1  and  N1_2 
REMARK       I    between atoms: N1_2  and  C2_3 
REMARK    2  A    between atoms: C2_3  and  C3_5 
REMARK    3  A    between atoms: C7_9  and  N2_11 
ROOT
ATOM      1  C3  <0> d          -0.048   3.850   0.022  0.00  0.00     0.034 A 
ATOM      2  C4  <0> d           1.166   3.161   0.007  0.00  0.00    -0.068 A 
ATOM      3  C5  <0> d           1.177   1.781   0.000  0.00  0.00    -0.080 A 
ATOM      4  C6  <0> d          -0.013   1.076   0.008  0.00  0.00    -0.058 A 
ATOM      5  C7  <0> d          -1.227   1.752   0.017  0.00  0.00     0.026 A 
ATOM      6  C8  <0> d          -1.248   3.139   0.030  0.00  0.00    -0.043 A 
ATOM      7  H5  <0> d           2.097   3.708   0.000  0.00  0.00     0.085 H 
ATOM      8  H6  <0> d           2.117   1.250  -0.011  0.00  0.00     0.083 H 
ATOM      9  H7  <0> d           0.002  -0.004   0.002  0.00  0.00     0.086 H 
ATOM     10  H8  <0> d          -2.190   3.666   0.042  0.00  0.00     0.088 H 
ENDROOT
BRANCH   1  11
ATOM     11  C2  <0> d          -0.062   5.328   0.029  0.00  0.00     0.251 C 
ATOM     12  N1  <0> d           1.098   6.013   0.022  0.00  0.00    -0.361 N 
ATOM     13  H4  <0> d           1.943   5.536   0.012  0.00  0.00     0.162 HD
ATOM     14  O1  <0> d          -1.121   5.926   0.042  0.00  0.00    -0.268 OA
BRANCH  12  15
ATOM     15  C1  <0> d           1.084   7.478   0.029  0.00  0.00    -0.018 C 
ATOM     16  H1  <0> d           2.108   7.851   0.022  0.00  0.00     0.056 H 
ATOM     17  H2  <0> d           0.559   7.841  -0.854  0.00  0.00     0.056 H 
ATOM     18  H3  <0> d           0.576   7.832   0.926  0.00  0.00     0.056 H 
ENDBRANCH  12  15
ENDBRANCH   1  11
BRANCH   5  19
ATOM     19  N2  <0> d          -2.426   1.035   0.020  0.00  0.00    -0.399 N 
ATOM     20  H9  <0> d          -2.411   0.065   0.015  0.00  0.00     0.156 HD
ATOM     21  H10 <0> d          -3.273   1.507   0.026  0.00  0.00     0.156 HD
ENDBRANCH   5  19
TORSDOF 3
