REMARK  5 active torsions:
REMARK  status: ('A' for Active; 'I' for Inactive)
REMARK    1  A    between atoms: C1_1  and  C2_2 
REMARK    2  A    between atoms: C5_5  and  C8_9 
REMARK    3  A    between atoms: C8_9  and  C9_11 
REMARK    4  A    between atoms: C8_9  and  C10_12 
REMARK    5  A    between atoms: C10_12  and  O1_13 
ROOT
ATOM      1  C2  <0> d           4.664   5.234  -1.133  0.00  0.00    -0.087 C 
ATOM      2  C3  <0> d           4.396   4.112  -1.720  0.00  0.00    -0.101 C 
ATOM      3  C4  <0> d           3.168   3.293  -1.448  0.00  0.00    -0.046 C 
ATOM      4  C5  <0> d           2.527   3.727  -0.128  0.00  0.00    -0.046 C 
ATOM      5  H1  <0> d           3.158   3.417   0.705  0.00  0.00     0.041 H 
ATOM      6  C6  <0> d           2.389   5.254  -0.129  0.00  0.00    -0.058 C 
ATOM      7  C7  <0> d           3.790   5.867  -0.090  0.00  0.00    -0.045 C 
ATOM      8  H6  <0> d           5.100   3.742  -2.450  0.00  0.00     0.077 H 
ATOM      9  H7  <0> d           3.443   2.240  -1.387  0.00  0.00     0.039 H 
ATOM     10  H8  <0> d           2.455   3.435  -2.260  0.00  0.00     0.039 H 
ATOM     11  H9  <0> d           1.877   5.575  -1.036  0.00  0.00     0.034 H 
ATOM     12  H10 <0> d           1.823   5.572   0.746  0.00  0.00     0.034 H 
ATOM     13  H11 <0> d           4.226   5.703   0.895  0.00  0.00     0.039 H 
ATOM     14  H12 <0> d           3.721   6.939  -0.279  0.00  0.00     0.039 H 
ENDROOT
BRANCH   4  15
ATOM     15  C8  <0> d           1.145   3.085   0.008  0.00  0.00    -0.033 C 
ATOM     16  H2  <0> d           0.516   3.397  -0.827  0.00  0.00     0.043 H 
BRANCH  15  17
ATOM     17  C9  <0> d           0.503   3.530   1.324  0.00  0.00    -0.071 C 
ATOM     18  H13 <0> d           1.132   3.218   2.158  0.00  0.00     0.028 H 
ATOM     19  H14 <0> d           0.402   4.615   1.330  0.00  0.00     0.028 H 
ATOM     20  H15 <0> d          -0.482   3.073   1.420  0.00  0.00     0.028 H 
ENDBRANCH  15  17
BRANCH  15  21
ATOM     21  C10 <0> d           1.286   1.562  -0.002  0.00  0.00     0.020 C 
ATOM     22  H16 <0> d           1.840   1.243   0.881  0.00  0.00     0.074 H 
ATOM     23  H17 <0> d           1.823   1.252  -0.899  0.00  0.00     0.074 H 
BRANCH  21  24
ATOM     24  O1  <0> d          -0.011   0.963   0.007  0.00  0.00    -0.400 OA
ATOM     25  H18 <0> d           0.002  -0.004   0.002  0.00  0.00     0.209 HD
ENDBRANCH  21  24
ENDBRANCH  15  21
ENDBRANCH   4  15
BRANCH   1  26
ATOM     26  C1  <0> d           5.934   5.948  -1.520  0.00  0.00    -0.055 C 
ATOM     27  H3  <0> d           6.458   5.371  -2.280  0.00  0.00     0.033 H 
ATOM     28  H4  <0> d           5.689   6.934  -1.916  0.00  0.00     0.033 H 
ATOM     29  H5  <0> d           6.571   6.057  -0.642  0.00  0.00     0.033 H 
ENDBRANCH   1  26
TORSDOF 5
