REMARK  7 active torsions:
REMARK  status: ('A' for Active; 'I' for Inactive)
REMARK    1  A    between atoms: C1_1  and  C2_2 
REMARK    2  A    between atoms: C2_2  and  C3_3 
REMARK    3  A    between atoms: C2_2  and  C4_4 
REMARK    4  A    between atoms: C2_2  and  C5_5 
REMARK    5  A    between atoms: C5_5  and  C6_6 
REMARK    6  A    between atoms: C6_6  and  C8_8 
REMARK    7  A    between atoms: C8_8  and  O1_9 
ROOT
ATOM      1  C2  <0> d          -0.217   1.595   0.111  0.00  0.00    -0.048 C 
ENDROOT
BRANCH   1   2
ATOM      2  C1  <0> d           1.139   2.273  -0.094  0.00  0.00    -0.069 C 
ATOM      3  H1  <0> d           1.482   2.098  -1.113  0.00  0.00     0.028 H 
ATOM      4  H2  <0> d           1.038   3.345   0.076  0.00  0.00     0.028 H 
ATOM      5  H3  <0> d           1.862   1.860   0.609  0.00  0.00     0.028 H 
ENDBRANCH   1   2
BRANCH   1   6
ATOM      6  C3  <0> d          -1.278   2.310  -0.730  0.00  0.00    -0.069 C 
ATOM      7  H4  <0> d          -2.244   1.827  -0.583  0.00  0.00     0.028 H 
ATOM      8  H5  <0> d          -1.343   3.353  -0.422  0.00  0.00     0.028 H 
ATOM      9  H6  <0> d          -1.001   2.258  -1.783  0.00  0.00     0.028 H 
ENDBRANCH   1   6
BRANCH   1  10
ATOM     10  C4  <0> d          -0.605   1.668   1.590  0.00  0.00    -0.069 C 
ATOM     11  H7  <0> d           0.150   1.159   2.189  0.00  0.00     0.028 H 
ATOM     12  H8  <0> d          -0.670   2.712   1.897  0.00  0.00     0.028 H 
ATOM     13  H9  <0> d          -1.571   1.185   1.736  0.00  0.00     0.028 H 
ENDBRANCH   1  10
BRANCH   1  14
ATOM     14  C5  <0> d          -0.126   0.131  -0.321  0.00  0.00    -0.037 C 
ATOM     15  H10 <0> d          -1.114  -0.327  -0.266  0.00  0.00     0.040 H 
ATOM     16  H11 <0> d           0.243   0.076  -1.345  0.00  0.00     0.040 H 
BRANCH  14  17
ATOM     17  C6  <0> d           0.820  -0.605   0.594  0.00  0.00    -0.065 C 
ATOM     18  C7  <0> d           0.359  -1.219   1.656  0.00  0.00    -0.117 C 
ATOM     19  H12 <0> d           1.037  -1.746   2.311  0.00  0.00     0.067 H 
ATOM     20  H13 <0> d          -0.698  -1.198   1.876  0.00  0.00     0.067 H 
BRANCH  17  21
ATOM     21  C8  <0> d           2.295  -0.634   0.287  0.00  0.00     0.036 C 
ATOM     22  H14 <0> d           2.462  -1.182  -0.640  0.00  0.00     0.080 H 
ATOM     23  H15 <0> d           2.663   0.386   0.178  0.00  0.00     0.080 H 
BRANCH  21  24
ATOM     24  O1  <0> d           2.991  -1.280   1.355  0.00  0.00    -0.397 OA
ATOM     25  H16 <0> d           3.947  -1.334   1.225  0.00  0.00     0.209 HD
ENDBRANCH  21  24
ENDBRANCH  17  21
ENDBRANCH  14  17
ENDBRANCH   1  14
TORSDOF 7
