REMARK  4 active torsions:
REMARK  status: ('A' for Active; 'I' for Inactive)
REMARK    1  A    between atoms: C1_1  and  C2_2 
REMARK    2  A    between atoms: C2_2  and  O1_13 
REMARK    3  A    between atoms: C8_10  and  C9_11 
REMARK    4  A    between atoms: C8_10  and  C10_12 
ROOT
ATOM      1  C2  <0> d           0.002  -0.004   0.002  0.00  0.00     0.059 C 
ATOM      2  C3  <0> d           0.717  -0.526  -1.265  0.00  0.00    -0.032 C 
ATOM      3  C4  <0> d           1.938  -1.331  -0.725  0.00  0.00    -0.044 C 
ATOM      4  H1  <0> d           2.376  -2.052  -1.415  0.00  0.00     0.041 H 
ATOM      5  C5  <0> d           2.908  -0.244  -0.170  0.00  0.00    -0.060 C 
ATOM      6  C6  <0> d           2.205   0.296   1.097  0.00  0.00    -0.058 C 
ATOM      7  C7  <0> d           0.859  -0.543   1.188  0.00  0.00    -0.018 C 
ATOM      8  H2  <0> d           0.366  -0.567   2.160  0.00  0.00     0.045 H 
ATOM      9  C8  <0> d           1.337  -1.917   0.600  0.00  0.00    -0.038 C 
ATOM     10  H6  <0> d           0.054  -1.178  -1.834  0.00  0.00     0.038 H 
ATOM     11  H7  <0> d           1.053   0.307  -1.882  0.00  0.00     0.038 H 
ATOM     12  H8  <0> d           3.869  -0.688   0.089  0.00  0.00     0.033 H 
ATOM     13  H9  <0> d           3.041   0.555  -0.900  0.00  0.00     0.033 H 
ATOM     14  H10 <0> d           2.820   0.117   1.978  0.00  0.00     0.033 H 
ATOM     15  H11 <0> d           1.993   1.360   0.990  0.00  0.00     0.033 H 
ENDROOT
BRANCH   9  16
ATOM     16  C9  <0> d           0.165  -2.864   0.330  0.00  0.00    -0.069 C 
ATOM     17  H12 <0> d           0.511  -3.709  -0.265  0.00  0.00     0.028 H 
ATOM     18  H13 <0> d          -0.236  -3.225   1.276  0.00  0.00     0.028 H 
ATOM     19  H14 <0> d          -0.614  -2.331  -0.216  0.00  0.00     0.028 H 
ENDBRANCH   9  16
BRANCH   9  20
ATOM     20  C10 <0> d           2.406  -2.575   1.475  0.00  0.00    -0.069 C 
ATOM     21  H15 <0> d           3.175  -1.842   1.720  0.00  0.00     0.028 H 
ATOM     22  H16 <0> d           1.949  -2.943   2.393  0.00  0.00     0.028 H 
ATOM     23  H17 <0> d           2.857  -3.407   0.934  0.00  0.00     0.028 H 
ENDBRANCH   9  20
BRANCH   1  24
ATOM     24  C1  <0> d          -0.019   1.526   0.010  0.00  0.00    -0.048 C 
ATOM     25  H3  <0> d           0.975   1.904  -0.232  0.00  0.00     0.031 H 
ATOM     26  H4  <0> d          -0.734   1.883  -0.730  0.00  0.00     0.031 H 
ATOM     27  H5  <0> d          -0.311   1.880   0.999  0.00  0.00     0.031 H 
ENDBRANCH   1  24
BRANCH   1  28
ATOM     28  O1  <0> d          -1.329  -0.520   0.074  0.00  0.00    -0.390 OA
ATOM     29  H18 <0> d          -1.900  -0.237  -0.653  0.00  0.00     0.210 HD
ENDBRANCH   1  28
TORSDOF 4
