REMARK  1 active torsions:
REMARK  status: ('A' for Active; 'I' for Inactive)
REMARK    1  A    between atoms: C2_2  and  C5_6 
ROOT
ATOM      1  C1  <0> d          -0.013   1.086   0.008  0.00  0.00     0.003 C 
ATOM      2  C2  <0> d          -0.962   1.696  -1.037  0.00  0.00     0.043 C 
ATOM      3  C3  <0> d          -1.358   2.717   0.044  0.00  0.00     0.003 C 
ATOM      4  C4  <0> d          -0.928   1.676   1.062  0.00  0.00     0.128 C 
ATOM      5  O1  <0> d          -1.198   1.426   2.212  0.00  0.00    -0.298 OA
ATOM      6  H1  <0> d           0.058   0.098   0.143  0.00  0.00     0.045 H 
ATOM      7  H2  <0> d           0.986   1.523   0.001  0.00  0.00     0.045 H 
ATOM      8  H3  <0> d          -1.775   1.032  -1.330  0.00  0.00     0.057 H 
ATOM      9  H4  <0> d          -0.844   3.563  -0.093  0.00  0.00     0.045 H 
ATOM     10  H5  <0> d          -2.425   2.939   0.066  0.00  0.00     0.045 H 
ENDROOT
BRANCH   2  11
ATOM     11  C5  <0> d          -0.250   2.309  -2.216  0.00  0.00     0.177 C 
ATOM     12  O2  <0> d           0.957   2.288  -2.270  0.00  0.00    -0.648 OA
ATOM     13  O3  <0> d          -0.957   2.879  -3.205  0.00  0.00    -0.648 OA
ENDBRANCH   2  11
TORSDOF 1
