REMARK  5 active torsions:
REMARK  status: ('A' for Active; 'I' for Inactive)
REMARK    1  A    between atoms: C1_1  and  C2_2 
REMARK    2  A    between atoms: C2_2  and  C4_4 
REMARK    3  A    between atoms: C5_5  and  C6_6 
REMARK    4  A    between atoms: C6_6  and  O2_8 
REMARK    5  A    between atoms: O2_8  and  C7_9 
ROOT
ATOM      1  C4  <0> d          -0.000  -0.713  -1.242  0.00  0.00    -0.062 C 
ATOM      2  C5  <0> d          -0.002  -1.295  -2.262  0.00  0.00     0.007 C 
ENDROOT
BRANCH   1   3
ATOM      3  C2  <0> d           0.002  -0.004   0.002  0.00  0.00    -0.017 C 
ATOM      4  C3  <0> d           0.022  -0.677   1.154  0.00  0.00    -0.108 C 
ATOM      5  H4  <0> d           0.024  -0.142   2.092  0.00  0.00     0.068 H 
ATOM      6  H5  <0> d           0.037  -1.757   1.148  0.00  0.00     0.068 H 
BRANCH   3   7
ATOM      7  C1  <0> d          -0.018   1.503   0.010  0.00  0.00    -0.045 C 
ATOM      8  H1  <0> d           1.004   1.880   0.003  0.00  0.00     0.034 H 
ATOM      9  H2  <0> d          -0.545   1.864  -0.873  0.00  0.00     0.034 H 
ATOM     10  H3  <0> d          -0.529   1.854   0.907  0.00  0.00     0.034 H 
ENDBRANCH   3   7
ENDBRANCH   1   3
BRANCH   2  11
ATOM     11  C6  <0> d          -0.004  -2.004  -3.506  0.00  0.00     0.339 C 
ATOM     12  O1  <0> d           0.013  -3.220  -3.513  0.00  0.00    -0.249 OA
BRANCH  11  13
ATOM     13  O2  <0> d          -0.024  -1.323  -4.671  0.00  0.00    -0.316 OA
BRANCH  13  14
ATOM     14  C7  <0> d          -0.025  -2.095  -5.873  0.00  0.00     0.014 C 
ATOM     15  H6  <0> d           0.873  -2.712  -5.910  0.00  0.00     0.067 H 
ATOM     16  H7  <0> d          -0.907  -2.736  -5.893  0.00  0.00     0.067 H 
ATOM     17  H8  <0> d          -0.042  -1.426  -6.734  0.00  0.00     0.067 H 
ENDBRANCH  13  14
ENDBRANCH  11  13
ENDBRANCH   2  11
TORSDOF 5
