REMARK  0 active torsions:
REMARK  status: ('A' for Active; 'I' for Inactive)
ROOT
ATOM      1  C1  <0> d           1.222  -0.698  -0.013  0.00  0.00    -0.080 A 
ATOM      2  C2  <0> d           0.002  -0.004   0.002  0.00  0.00    -0.068 A 
ATOM      3  C3  <0> d          -0.016   1.345   0.009  0.00  0.00    -0.015 A 
ATOM      4  N1  <0> d           1.150   2.061   0.002  0.00  0.00    -0.331 N 
ATOM      5  C4  <0> d           1.385   3.409   0.008  0.00  0.00    -0.014 A 
ATOM      6  C5  <0> d           2.712   3.636  -0.004  0.00  0.00    -0.045 A 
ATOM      7  C6  <0> d           3.366   2.380  -0.017  0.00  0.00     0.073 A 
ATOM      8  C7  <0> d           2.354   1.404  -0.013  0.00  0.00     0.059 A 
ATOM      9  C8  <0> d           2.392   0.002  -0.021  0.00  0.00    -0.055 A 
ATOM     10  C9  <0> d           4.779   2.149  -0.032  0.00  0.00     0.102 C 
ATOM     11  N2  <0> d           5.900   1.966  -0.044  0.00  0.00    -0.191 NA
ATOM     12  H1  <0> d           1.234  -1.778  -0.020  0.00  0.00     0.083 H 
ATOM     13  H2  <0> d          -0.928  -0.553   0.008  0.00  0.00     0.085 H 
ATOM     14  H3  <0> d          -0.962   1.867   0.017  0.00  0.00     0.112 H 
ATOM     15  H4  <0> d           0.622   4.174   0.019  0.00  0.00     0.112 H 
ATOM     16  H5  <0> d           3.192   4.603  -0.002  0.00  0.00     0.088 H 
ATOM     17  H6  <0> d           3.338  -0.518  -0.033  0.00  0.00     0.087 H 
ENDROOT
TORSDOF 0
