REMARK  5 active torsions:
REMARK  status: ('A' for Active; 'I' for Inactive)
REMARK    1  A    between atoms: C1_1  and  C2_2 
REMARK    2  A    between atoms: C2_2  and  C3_3 
REMARK    3  A    between atoms: C2_2  and  N1_4 
REMARK    4  A    between atoms: N1_4  and  C4_5 
REMARK    5  A    between atoms: C8_9  and  O1_11 
ROOT
ATOM      1  C4  <0> d           2.103  -0.604   1.173  0.00  0.00     0.030 A 
ATOM      2  C5  <0> d           2.816  -0.263   0.030  0.00  0.00    -0.057 A 
ATOM      3  C6  <0> d           4.193  -0.372   0.016  0.00  0.00    -0.078 A 
ATOM      4  C7  <0> d           4.864  -0.829   1.135  0.00  0.00    -0.051 A 
ATOM      5  C8  <0> d           4.156  -1.176   2.277  0.00  0.00     0.067 A 
ATOM      6  C9  <0> d           2.775  -1.063   2.297  0.00  0.00    -0.026 A 
ATOM      7  H9  <0> d           2.294   0.091  -0.847  0.00  0.00     0.086 H 
ATOM      8  H10 <0> d           4.746  -0.103  -0.871  0.00  0.00     0.083 H 
ATOM      9  H11 <0> d           5.940  -0.917   1.119  0.00  0.00     0.087 H 
ATOM     10  H12 <0> d           2.223  -1.333   3.185  0.00  0.00     0.091 H 
ENDROOT
BRANCH   1  11
ATOM     11  N1  <0> d           0.711  -0.489   1.189  0.00  0.00    -0.386 N 
ATOM     12  H8  <0> d           0.213  -0.731   1.986  0.00  0.00     0.160 HD
BRANCH  11  13
ATOM     13  C2  <0> d           0.002  -0.004   0.002  0.00  0.00     0.003 C 
ATOM     14  H4  <0> d           0.512  -0.356  -0.895  0.00  0.00     0.071 H 
BRANCH  13  15
ATOM     15  C1  <0> d          -0.019   1.526   0.010  0.00  0.00    -0.058 C 
ATOM     16  H1  <0> d           1.004   1.903   0.003  0.00  0.00     0.030 H 
ATOM     17  H2  <0> d          -0.546   1.887  -0.873  0.00  0.00     0.030 H 
ATOM     18  H3  <0> d          -0.529   1.877   0.907  0.00  0.00     0.030 H 
ENDBRANCH  13  15
BRANCH  13  19
ATOM     19  C3  <0> d          -1.433  -0.534   0.013  0.00  0.00    -0.058 C 
ATOM     20  H5  <0> d          -1.960  -0.173  -0.870  0.00  0.00     0.030 H 
ATOM     21  H6  <0> d          -1.419  -1.623   0.007  0.00  0.00     0.030 H 
ATOM     22  H7  <0> d          -1.944  -0.182   0.910  0.00  0.00     0.030 H 
ENDBRANCH  13  19
ENDBRANCH  11  13
ENDBRANCH   1  11
BRANCH   5  23
ATOM     23  O1  <0> d           4.817  -1.626   3.376  0.00  0.00    -0.361 OA
ATOM     24  H13 <0> d           4.937  -2.586   3.397  0.00  0.00     0.217 HD
ENDBRANCH   5  23
TORSDOF 5
