REMARK  3 active torsions:
REMARK  status: ('A' for Active; 'I' for Inactive)
REMARK    1  A    between atoms: C1_1  and  N1_2 
REMARK    2  A    between atoms: N1_2  and  C2_3 
REMARK    3  A    between atoms: C3_4  and  C7_9 
ROOT
ATOM      1  C2  <0> d           0.226   3.792   0.041  0.00  0.00     0.139 A 
ATOM      2  C3  <0> d          -1.090   3.297   0.041  0.00  0.00     0.086 A 
ATOM      3  C4  <0> d          -1.290   1.912   0.008  0.00  0.00    -0.061 A 
ATOM      4  C5  <0> d          -0.178   1.088  -0.011  0.00  0.00    -0.065 A 
ATOM      5  C6  <0> d           1.086   1.650  -0.009  0.00  0.00     0.004 A 
ATOM      6  N2  <0> d           1.254   2.957   0.016  0.00  0.00    -0.243 NA
ATOM      7  H5  <0> d          -2.286   1.496   0.003  0.00  0.00     0.085 H 
ATOM      8  H6  <0> d          -0.297   0.015  -0.032  0.00  0.00     0.085 H 
ATOM      9  H7  <0> d           1.952   1.005  -0.029  0.00  0.00     0.114 H 
ENDROOT
BRANCH   1  10
ATOM     10  N1  <0> d           0.448   5.156   0.067  0.00  0.00    -0.378 N 
ATOM     11  H4  <0> d          -0.300   5.770   0.004  0.00  0.00     0.160 HD
BRANCH  10  12
ATOM     12  C1  <0> d           1.813   5.673   0.188  0.00  0.00    -0.020 C 
ATOM     13  H1  <0> d           2.256   5.317   1.118  0.00  0.00     0.056 H 
ATOM     14  H2  <0> d           2.410   5.325  -0.655  0.00  0.00     0.056 H 
ATOM     15  H3  <0> d           1.790   6.763   0.191  0.00  0.00     0.056 H 
ENDBRANCH  10  12
ENDBRANCH   1  10
BRANCH   2  16
ATOM     16  C7  <0> d          -2.238   4.220   0.068  0.00  0.00     0.213 C 
ATOM     17  O1  <0> d          -2.056   5.419  -0.007  0.00  0.00    -0.644 OA
ATOM     18  O2  <0> d          -3.490   3.734   0.176  0.00  0.00    -0.644 OA
ENDBRANCH   2  16
TORSDOF 3
