REMARK  2 active torsions:
REMARK  status: ('A' for Active; 'I' for Inactive)
REMARK    1  A    between atoms: C1_1  and  C2_2 
REMARK    2  A    between atoms: C3_3  and  C4_7 
ROOT
ATOM      1  C2  <0> d           0.002  -0.004   0.002  0.00  0.00     0.114 A 
ATOM      2  C3  <0> d           0.024  -0.849   1.083  0.00  0.00     0.188 A 
ATOM      3  N1  <0> d           0.035  -2.088   0.533  0.00  0.00    -0.116 NA
ATOM      4  N2  <0> d           0.021  -1.971  -0.695  0.00  0.00    -0.017 NA
ATOM      5  O1  <0> d          -0.003  -0.818  -1.063  0.00  0.00    -0.198 OA
ENDROOT
BRANCH   1   6
ATOM      6  C1  <0> d          -0.018   1.503   0.010  0.00  0.00    -0.027 C 
ATOM      7  H1  <0> d           1.004   1.880   0.003  0.00  0.00     0.036 H 
ATOM      8  H2  <0> d          -0.545   1.864  -0.873  0.00  0.00     0.036 H 
ATOM      9  H3  <0> d          -0.529   1.854   0.907  0.00  0.00     0.036 H 
ENDBRANCH   1   6
BRANCH   2  10
ATOM     10  C4  <0> d           0.033  -0.491   2.512  0.00  0.00     0.233 C 
ATOM     11  O2  <0> d           0.021   0.677   2.846  0.00  0.00    -0.643 OA
ATOM     12  O3  <0> d           0.055  -1.460   3.449  0.00  0.00    -0.643 OA
ENDBRANCH   2  10
TORSDOF 2
