REMARK  5 active torsions:
REMARK  status: ('A' for Active; 'I' for Inactive)
REMARK    1  A    between atoms: C1_1  and  C2_2 
REMARK    2  A    between atoms: C2_2  and  O1_3 
REMARK    3  A    between atoms: O1_3  and  C3_4 
REMARK    4  A    between atoms: C3_4  and  C4_5 
REMARK    5  A    between atoms: C4_5  and  C6_7 
ROOT
ATOM      1  C3  <0> d           0.746  -1.888  -1.280  0.00  0.00     0.039 C 
ATOM      2  H6  <0> d           1.288  -2.288  -0.423  0.00  0.00     0.081 H 
ATOM      3  H7  <0> d          -0.261  -2.304  -1.299  0.00  0.00     0.081 H 
ENDROOT
BRANCH   1   4
ATOM      4  O1  <0> d           0.671  -0.465  -1.174  0.00  0.00    -0.387 OA
BRANCH   4   5
ATOM      5  C2  <0> d           0.002  -0.004   0.002  0.00  0.00     0.017 C 
ATOM      6  H4  <0> d           0.529  -0.365   0.885  0.00  0.00     0.073 H 
ATOM      7  H5  <0> d          -1.020  -0.381   0.010  0.00  0.00     0.073 H 
BRANCH   5   8
ATOM      8  C1  <0> d          -0.019   1.526   0.010  0.00  0.00    -0.056 C 
ATOM      9  H1  <0> d           1.004   1.903   0.003  0.00  0.00     0.030 H 
ATOM     10  H2  <0> d          -0.546   1.887  -0.873  0.00  0.00     0.030 H 
ATOM     11  H3  <0> d          -0.529   1.877   0.907  0.00  0.00     0.030 H 
ENDBRANCH   5   8
ENDBRANCH   4   5
ENDBRANCH   1   4
BRANCH   1  12
ATOM     12  C4  <0> d           1.467  -2.260  -2.550  0.00  0.00    -0.070 C 
ATOM     13  C5  <0> d           1.909  -1.322  -3.350  0.00  0.00    -0.117 C 
ATOM     14  H8  <0> d           2.426  -1.589  -4.260  0.00  0.00     0.067 H 
ATOM     15  H9  <0> d           1.757  -0.282  -3.100  0.00  0.00     0.067 H 
BRANCH  12  16
ATOM     16  C6  <0> d           1.679  -3.711  -2.899  0.00  0.00    -0.053 C 
ATOM     17  H10 <0> d           1.246  -4.338  -2.120  0.00  0.00     0.033 H 
ATOM     18  H11 <0> d           1.198  -3.929  -3.852  0.00  0.00     0.033 H 
ATOM     19  H12 <0> d           2.747  -3.913  -2.976  0.00  0.00     0.033 H 
ENDBRANCH  12  16
ENDBRANCH   1  12
TORSDOF 5
