REMARK  2 active torsions:
REMARK  status: ('A' for Active; 'I' for Inactive)
REMARK    1  A    between atoms: C1_1  and  C2_2 
REMARK    2  A    between atoms: N1_5  and  C5_7 
ROOT
ATOM      1  C2  <0> d          -1.030   2.233   3.276  0.00  0.00     0.074 A 
ATOM      2  C3  <0> d          -2.252   2.223   2.597  0.00  0.00     0.077 A 
ATOM      3  C4  <0> d          -2.020   1.810   1.328  0.00  0.00     0.021 A 
ATOM      4  N1  <0> d          -0.698   1.558   1.213  0.00  0.00    -0.283 N 
ATOM      5  N2  <0> d          -0.098   1.835   2.448  0.00  0.00    -0.177 NA
ATOM      6 Cl1  <0> d          -3.794   2.668   3.260  0.00  0.00    -0.081 Cl
ATOM      7  H4  <0> d          -2.760   1.699   0.549  0.00  0.00     0.116 H 
ENDROOT
BRANCH   1   8
ATOM      8  C1  <0> d          -0.821   2.633   4.714  0.00  0.00    -0.032 C 
ATOM      9  H1  <0> d          -0.616   3.703   4.767  0.00  0.00     0.035 H 
ATOM     10  H2  <0> d          -1.720   2.407   5.288  0.00  0.00     0.035 H 
ATOM     11  H3  <0> d           0.023   2.080   5.127  0.00  0.00     0.035 H 
ENDBRANCH   1   8
BRANCH   4  12
ATOM     12  C5  <0> d          -0.013   1.086   0.008  0.00  0.00     0.002 C 
ATOM     13  H5  <0> d           0.002  -0.004   0.002  0.00  0.00     0.059 H 
ATOM     14  H6  <0> d           1.010   1.463   0.000  0.00  0.00     0.059 H 
ATOM     15  H7  <0> d          -0.540   1.447  -0.875  0.00  0.00     0.059 H 
ENDBRANCH   4  12
TORSDOF 2
