REMARK  4 active torsions:
REMARK  status: ('A' for Active; 'I' for Inactive)
REMARK    1  A    between atoms: C1_1  and  C2_2 
REMARK    2  A    between atoms: C4_4  and  C5_7 
REMARK    3  A    between atoms: C5_7  and  O3_9 
REMARK    4  A    between atoms: O3_9  and  C6_10 
ROOT
ATOM      1  C2  <0> d           1.087   1.962   0.002  0.00  0.00     0.061 A 
ATOM      2  C3  <0> d          -0.013   1.076   0.008  0.00  0.00    -0.017 A 
ATOM      3  C4  <0> d          -1.101   1.905   0.017  0.00  0.00     0.178 A 
ATOM      4  O1  <0> d          -0.614   3.161   0.025  0.00  0.00    -0.207 OA
ATOM      5  N1  <0> d           0.595   3.166   0.013  0.00  0.00    -0.133 NA
ATOM      6  H4  <0> d           0.002  -0.004   0.002  0.00  0.00     0.091 H 
ENDROOT
BRANCH   3   7
ATOM      7  C5  <0> d          -2.520   1.505   0.020  0.00  0.00     0.319 C 
ATOM      8  O2  <0> d          -2.819   0.328   0.015  0.00  0.00    -0.257 OA
BRANCH   7   9
ATOM      9  O3  <0> d          -3.485   2.446   0.029  0.00  0.00    -0.321 OA
BRANCH   9  10
ATOM     10  C6  <0> d          -4.860   1.979   0.032  0.00  0.00     0.013 C 
ATOM     11  H5  <0> d          -5.043   1.381  -0.860  0.00  0.00     0.067 H 
ATOM     12  H6  <0> d          -5.036   1.371   0.919  0.00  0.00     0.067 H 
ATOM     13  H7  <0> d          -5.535   2.836   0.039  0.00  0.00     0.067 H 
ENDBRANCH   9  10
ENDBRANCH   7   9
ENDBRANCH   3   7
BRANCH   1  14
ATOM     14  C1  <0> d           2.547   1.586  -0.013  0.00  0.00    -0.033 C 
ATOM     15  H1  <0> d           2.889   1.501  -1.045  0.00  0.00     0.035 H 
ATOM     16  H2  <0> d           3.125   2.355   0.499  0.00  0.00     0.035 H 
ATOM     17  H3  <0> d           2.681   0.631   0.494  0.00  0.00     0.035 H 
ENDBRANCH   1  14
TORSDOF 4
