REMARK  4 active torsions:
REMARK  status: ('A' for Active; 'I' for Inactive)
REMARK    1  A    between atoms: C1_1  and  C2_2 
REMARK    2  A    between atoms: C4_5  and  O1_12 
REMARK    3  A    between atoms: C6_8  and  C8_10 
REMARK    4  A    between atoms: C6_8  and  C9_11 
ROOT
ATOM      1  C2  <0> d           0.011   1.072   2.506  0.00  0.00    -0.055 C 
ATOM      2  H1  <0> d           0.026  -0.018   2.500  0.00  0.00     0.039 H 
ATOM      3  C3  <0> d          -0.729   1.579   1.267  0.00  0.00    -0.038 C 
ATOM      4  C4  <0> d          -0.013   1.086   0.008  0.00  0.00     0.036 C 
ATOM      5  H2  <0> d           0.002  -0.004   0.002  0.00  0.00     0.083 H 
ATOM      6  C5  <0> d           1.423   1.615  -0.003  0.00  0.00    -0.035 C 
ATOM      7  C6  <0> d           2.163   1.109   1.237  0.00  0.00    -0.045 C 
ATOM      8  C7  <0> d           1.446   1.602   2.495  0.00  0.00    -0.056 C 
ATOM      9  H6  <0> d          -0.744   2.669   1.273  0.00  0.00     0.037 H 
ATOM     10  H7  <0> d          -1.751   1.202   1.275  0.00  0.00     0.037 H 
ATOM     11  H8  <0> d           1.933   1.264  -0.900  0.00  0.00     0.037 H 
ATOM     12  H9  <0> d           1.408   2.705   0.003  0.00  0.00     0.037 H 
ATOM     13  H10 <0> d           1.974   1.241   3.378  0.00  0.00     0.034 H 
ATOM     14  H11 <0> d           1.432   2.692   2.502  0.00  0.00     0.034 H 
ENDROOT
BRANCH   7  15
ATOM     15  C8  <0> d           2.183  -0.421   1.228  0.00  0.00    -0.069 C 
ATOM     16  H12 <0> d           2.694  -0.773   0.332  0.00  0.00     0.028 H 
ATOM     17  H13 <0> d           2.711  -0.782   2.111  0.00  0.00     0.028 H 
ATOM     18  H14 <0> d           1.161  -0.799   1.236  0.00  0.00     0.028 H 
ENDBRANCH   7  15
BRANCH   7  19
ATOM     19  C9  <0> d           3.598   1.638   1.226  0.00  0.00    -0.069 C 
ATOM     20  H15 <0> d           3.583   2.728   1.232  0.00  0.00     0.028 H 
ATOM     21  H16 <0> d           4.125   1.277   2.109  0.00  0.00     0.028 H 
ATOM     22  H17 <0> d           4.108   1.287   0.329  0.00  0.00     0.028 H 
ENDBRANCH   7  19
BRANCH   4  23
ATOM     23  O1  <0> d          -0.704   1.559  -1.150  0.00  0.00    -0.396 OA
ATOM     24  H18 <0> d          -1.622   1.262  -1.209  0.00  0.00     0.210 HD
ENDBRANCH   4  23
BRANCH   1  25
ATOM     25  C1  <0> d          -0.705   1.566   3.765  0.00  0.00    -0.073 C 
ATOM     26  H3  <0> d          -0.720   2.656   3.771  0.00  0.00     0.028 H 
ATOM     27  H4  <0> d          -1.728   1.188   3.773  0.00  0.00     0.028 H 
ATOM     28  H5  <0> d          -0.178   1.205   4.648  0.00  0.00     0.028 H 
ENDBRANCH   1  25
TORSDOF 4
