REMARK  3 active torsions:
REMARK  status: ('A' for Active; 'I' for Inactive)
REMARK    1  A    between atoms: C1_1  and  C2_2 
REMARK    2  A    between atoms: C4_4  and  C6_8 
REMARK    3  A    between atoms: N1_5  and  C5_7 
ROOT
ATOM      1  C6  <0> d          -3.051   1.654   0.241  0.00  0.00     0.054 C 
ATOM      2  C7  <0> d          -3.258   2.949  -0.427  0.00  0.00     0.065 C 
ATOM      3  N3  <0> d          -3.418   3.949  -0.943  0.00  0.00    -0.197 NA
ATOM      4  H8  <0> d          -2.701   0.914  -0.494  0.00  0.00     0.064 H 
ATOM      5  H9  <0> d          -4.000   1.313   0.682  0.00  0.00     0.064 H 
ENDROOT
BRANCH   1   6
ATOM      6  C4  <0> d          -2.019   1.810   1.328  0.00  0.00     0.045 A 
ATOM      7  C3  <0> d          -2.252   2.222   2.596  0.00  0.00    -0.034 A 
ATOM      8  C2  <0> d          -1.030   2.233   3.276  0.00  0.00     0.053 A 
ATOM      9  H4  <0> d          -3.211   2.499   3.008  0.00  0.00     0.089 H 
ATOM     10  N2  <0> d          -0.098   1.835   2.448  0.00  0.00    -0.178 NA
ATOM     11  N1  <0> d          -0.698   1.558   1.213  0.00  0.00    -0.277 N 
BRANCH   8  12
ATOM     12  C1  <0> d          -0.822   2.633   4.714  0.00  0.00    -0.034 C 
ATOM     13  H1  <0> d          -1.787   2.920   5.158  0.00  0.00     0.035 H 
ATOM     14  H2  <0> d          -0.129   3.485   4.761  0.00  0.00     0.035 H 
ATOM     15  H3  <0> d          -0.400   1.785   5.273  0.00  0.00     0.035 H 
ENDBRANCH   8  12
BRANCH  11  16
ATOM     16  C5  <0> d          -0.013   1.086   0.008  0.00  0.00     0.003 C 
ATOM     17  H5  <0> d           1.061   0.972   0.218  0.00  0.00     0.059 H 
ATOM     18  H6  <0> d          -0.153   1.815  -0.803  0.00  0.00     0.059 H 
ATOM     19  H7  <0> d          -0.432   0.115  -0.295  0.00  0.00     0.059 H 
ENDBRANCH  11  16
ENDBRANCH   1   6
TORSDOF 3
