REMARK  1 active torsions:
REMARK  status: ('A' for Active; 'I' for Inactive)
REMARK    1  A    between atoms: C1_1  and  C2_2 
ROOT
ATOM      1  C2  <0> d          -1.385   5.767   0.046  0.00  0.00     0.072 A 
ATOM      2  N1  <0> d          -0.201   5.223   0.032  0.00  0.00    -0.245 NA
ATOM      3  C3  <0> d          -0.017   3.886   0.023  0.00  0.00     0.074 A 
ATOM      4  C4  <0> d           1.190   3.152   0.007  0.00  0.00    -0.054 A 
ATOM      5  C5  <0> d           1.176   1.792   0.001  0.00  0.00    -0.081 A 
ATOM      6  C6  <0> d          -0.013   1.076   0.008  0.00  0.00    -0.082 A 
ATOM      7  C7  <0> d          -1.215   1.757   0.017  0.00  0.00    -0.064 A 
ATOM      8  C8  <0> d          -1.212   3.130   0.030  0.00  0.00     0.035 A 
ATOM      9  S1  <0> d          -2.454   4.399   0.049  0.00  0.00    -0.073 SA
ATOM     10  H4  <0> d           2.134   3.677   0.001  0.00  0.00     0.087 H 
ATOM     11  H5  <0> d           2.114   1.256  -0.011  0.00  0.00     0.083 H 
ATOM     12  H6  <0> d           0.002  -0.004   0.002  0.00  0.00     0.083 H 
ATOM     13  H7  <0> d          -2.149   1.214   0.019  0.00  0.00     0.085 H 
ENDROOT
BRANCH   1  14
ATOM     14  C1  <0> d          -1.740   7.231   0.057  0.00  0.00    -0.029 C 
ATOM     15  H1  <0> d          -1.836   7.589  -0.969  0.00  0.00     0.036 H 
ATOM     16  H2  <0> d          -2.686   7.372   0.580  0.00  0.00     0.036 H 
ATOM     17  H3  <0> d          -0.956   7.792   0.566  0.00  0.00     0.036 H 
ENDBRANCH   1  14
TORSDOF 1
