REMARK  2 active torsions:
REMARK  status: ('A' for Active; 'I' for Inactive)
REMARK    1  A    between atoms: C1_1  and  O1_2 
REMARK    2  A    between atoms: O1_2  and  C2_3 
ROOT
ATOM      1  C2  <0> d           0.652  -0.570  -1.138  0.00  0.00     0.137 C 
ATOM      2  H1  <0> d           1.657  -0.159  -1.231  0.00  0.00     0.129 H 
ATOM      3  C3  <0> d           0.727  -2.102  -0.987  0.00  0.00     0.030 C 
ATOM      4  H2  <0> d           1.696  -2.533  -1.239  0.00  0.00     0.052 H 
ATOM      5  C4  <0> d           0.198  -2.483   0.420  0.00  0.00     0.026 C 
ATOM      6  C5  <0> d          -1.304  -2.339   0.262  0.00  0.00     0.259 C 
ATOM      7  O2  <0> d          -2.089  -2.179   1.167  0.00  0.00    -0.265 OA
ATOM      8  O3  <0> d          -1.625  -2.417  -1.036  0.00  0.00    -0.313 OA
ATOM      9  C6  <0> d          -0.464  -2.585  -1.882  0.00  0.00     0.077 C 
ATOM     10  H3  <0> d          -0.344  -3.601  -2.258  0.00  0.00     0.088 H 
ATOM     11  C7  <0> d          -0.460  -1.500  -2.984  0.00  0.00     0.048 C 
ATOM     12  O4  <0> d          -0.102  -0.279  -2.320  0.00  0.00    -0.358 OA
ATOM     13  H7  <0> d           0.464  -3.511   0.667  0.00  0.00     0.049 H 
ATOM     14  H8  <0> d           0.575  -1.793   1.174  0.00  0.00     0.049 H 
ATOM     15  H9  <0> d           0.277  -1.742  -3.750  0.00  0.00     0.078 H 
ATOM     16  H10 <0> d          -1.452  -1.411  -3.429  0.00  0.00     0.078 H 
ENDROOT
BRANCH   1  17
ATOM     17  O1  <0> d           0.002  -0.004   0.002  0.00  0.00    -0.366 OA
BRANCH  17  18
ATOM     18  C1  <0> d          -0.017   1.425   0.010  0.00  0.00     0.007 C 
ATOM     19  H4  <0> d           1.005   1.802   0.002  0.00  0.00     0.066 H 
ATOM     20  H5  <0> d          -0.544   1.786  -0.873  0.00  0.00     0.066 H 
ATOM     21  H6  <0> d          -0.527   1.776   0.907  0.00  0.00     0.066 H 
ENDBRANCH  17  18
ENDBRANCH   1  17
TORSDOF 2
