REMARK  0 active torsions:
REMARK  status: ('A' for Active; 'I' for Inactive)
ROOT
ATOM      1  C1  <0> d          -1.234   2.116   0.019  0.00  0.00    -0.060 A 
ATOM      2  C2  <0> d          -1.250   3.491   0.028  0.00  0.00    -0.049 A 
ATOM      3  C3  <0> d          -0.056   4.213   0.016  0.00  0.00     0.075 A 
ATOM      4  C4  <0> d           1.152   3.522   0.008  0.00  0.00    -0.021 A 
ATOM      5  C5  <0> d           1.181   2.149   0.002  0.00  0.00    -0.054 A 
ATOM      6  C6  <0> d          -0.017   1.428   0.010  0.00  0.00     0.045 A 
ATOM      7  C7  <0> d           0.002  -0.004   0.002  0.00  0.00     0.099 C 
ATOM      8  N1  <0> d           0.018  -1.140  -0.004  0.00  0.00    -0.191 NA
ATOM      9  C8  <0> d           2.257   4.561   0.013  0.00  0.00    -0.018 C 
ATOM     10  C9  <0> d           1.491   5.839   0.429  0.00  0.00     0.030 C 
ATOM     11  O1  <0> d           0.146   5.558   0.005  0.00  0.00    -0.350 OA
ATOM     12  H1  <0> d          -2.163   1.566   0.024  0.00  0.00     0.086 H 
ATOM     13  H2  <0> d          -2.194   4.016   0.040  0.00  0.00     0.087 H 
ATOM     14  H3  <0> d           2.127   1.628  -0.008  0.00  0.00     0.086 H 
ATOM     15  H4  <0> d           3.024   4.311   0.746  0.00  0.00     0.043 H 
ATOM     16  H5  <0> d           2.691   4.674  -0.981  0.00  0.00     0.043 H 
ATOM     17  H6  <0> d           1.533   5.980   1.509  0.00  0.00     0.075 H 
ATOM     18  H7  <0> d           1.885   6.712  -0.091  0.00  0.00     0.075 H 
ENDROOT
TORSDOF 0
