REMARK  4 active torsions:
REMARK  status: ('A' for Active; 'I' for Inactive)
REMARK    1  A    between atoms: C1_1  and  C2_2 
REMARK    2  A    between atoms: C2_2  and  C3_3 
REMARK    3  A    between atoms: C6_6  and  C9_10 
REMARK    4  A    between atoms: C8_8  and  O1_9 
ROOT
ATOM      1  C3  <0> d          -2.020   2.465   3.522  0.00  0.00    -0.025 A 
ATOM      2  C4  <0> d          -2.734   2.230   2.363  0.00  0.00    -0.074 A 
ATOM      3  C5  <0> d          -2.084   1.789   1.226  0.00  0.00    -0.077 A 
ATOM      4  C6  <0> d          -0.718   1.572   1.248  0.00  0.00    -0.059 A 
ATOM      5  C7  <0> d           0.001   1.805   2.404  0.00  0.00    -0.045 A 
ATOM      6  C8  <0> d          -0.649   2.253   3.545  0.00  0.00     0.072 A 
ATOM      7  H6  <0> d          -3.801   2.396   2.344  0.00  0.00     0.084 H 
ATOM      8  H7  <0> d          -2.643   1.610   0.319  0.00  0.00     0.084 H 
ATOM      9  H8  <0> d           1.068   1.640   2.420  0.00  0.00     0.088 H 
ENDROOT
BRANCH   1  10
ATOM     10  C2  <0> d          -2.729   2.951   4.759  0.00  0.00    -0.042 C 
ATOM     11  H4  <0> d          -3.775   2.648   4.721  0.00  0.00     0.039 H 
ATOM     12  H5  <0> d          -2.257   2.519   5.642  0.00  0.00     0.039 H 
BRANCH  10  13
ATOM     13  C1  <0> d          -2.642   4.477   4.831  0.00  0.00    -0.073 C 
ATOM     14  H1  <0> d          -3.155   4.829   5.726  0.00  0.00     0.028 H 
ATOM     15  H2  <0> d          -1.596   4.780   4.869  0.00  0.00     0.028 H 
ATOM     16  H3  <0> d          -3.114   4.910   3.949  0.00  0.00     0.028 H 
ENDBRANCH  10  13
ENDBRANCH   1  10
BRANCH   6  17
ATOM     17  O1  <0> d           0.056   2.483   4.684  0.00  0.00    -0.360 OA
ATOM     18  H9  <0> d           0.394   3.386   4.762  0.00  0.00     0.217 HD
ENDBRANCH   6  17
BRANCH   4  19
ATOM     19  C9  <0> d          -0.013   1.086   0.008  0.00  0.00    -0.051 C 
ATOM     20  H10 <0> d           0.002  -0.004   0.002  0.00  0.00     0.033 H 
ATOM     21  H11 <0> d           1.010   1.463   0.000  0.00  0.00     0.033 H 
ATOM     22  H12 <0> d          -0.540   1.447  -0.875  0.00  0.00     0.033 H 
ENDBRANCH   4  19
TORSDOF 4
