REMARK  5 active torsions:
REMARK  status: ('A' for Active; 'I' for Inactive)
REMARK    1  A    between atoms: C1_1  and  C2_2 
REMARK    2  A    between atoms: C2_2  and  C3_4 
REMARK    3  A    between atoms: C2_2  and  O2_8 
REMARK    4  A    between atoms: C3_4  and  C4_5 
REMARK    5  A    between atoms: C4_5  and  C5_6 
ROOT
ATOM      1  C3  <0> d           1.423   1.615  -0.003  0.00  0.00    -0.033 C 
ATOM      2  H5  <0> d           1.905   1.339  -0.940  0.00  0.00     0.037 H 
ATOM      3  H6  <0> d           1.410   2.701   0.093  0.00  0.00     0.037 H 
ENDROOT
BRANCH   1   4
ATOM      4  C2  <0> d          -0.013   1.086   0.008  0.00  0.00     0.032 C 
ATOM      5  H1  <0> d           0.002  -0.004   0.002  0.00  0.00     0.082 H 
BRANCH   4   6
ATOM      6  C1  <0> d          -0.753   1.593  -1.232  0.00  0.00    -0.052 C 
ATOM      7  H2  <0> d          -0.242   1.241  -2.128  0.00  0.00     0.030 H 
ATOM      8  H3  <0> d          -1.775   1.215  -1.224  0.00  0.00     0.030 H 
ATOM      9  H4  <0> d          -0.767   2.683  -1.226  0.00  0.00     0.030 H 
ENDBRANCH   4   6
BRANCH   4  10
ATOM     10  O2  <0> d          -0.682   1.547   1.184  0.00  0.00    -0.396 OA
ATOM     11  H9  <0> d          -0.732   2.510   1.256  0.00  0.00     0.210 HD
ENDBRANCH   4  10
ENDBRANCH   1   4
BRANCH   1  12
ATOM     12  C4  <0> d           2.199   1.009   1.168  0.00  0.00     0.018 C 
ATOM     13  H7  <0> d           1.716   1.286   2.106  0.00  0.00     0.049 H 
ATOM     14  H8  <0> d           2.211  -0.076   1.073  0.00  0.00     0.049 H 
BRANCH  12  15
ATOM     15  C5  <0> d           3.613   1.531   1.157  0.00  0.00     0.172 C 
ATOM     16  O1  <0> d           3.963   2.308   0.301  0.00  0.00    -0.648 OA
ATOM     17  O3  <0> d           4.482   1.133   2.099  0.00  0.00    -0.648 OA
ENDBRANCH  12  15
ENDBRANCH   1  12
TORSDOF 5
