REMARK  1 active torsions:
REMARK  status: ('A' for Active; 'I' for Inactive)
REMARK    1  A    between atoms: C1_1  and  C2_2 
ROOT
ATOM      1  C2  <0> d           0.002  -0.004   0.002  0.00  0.00    -0.032 A 
ATOM      2  C3  <0> d           0.006  -0.687  -1.176  0.00  0.00    -0.010 A 
ATOM      3  C4  <0> d           0.025  -2.091  -1.169  0.00  0.00     0.247 A 
ATOM      4  N1  <0> d           0.040  -2.771  -0.009  0.00  0.00    -0.300 N 
ATOM      5  C5  <0> d           0.036  -2.119   1.181  0.00  0.00     0.203 A 
ATOM      6  C6  <0> d           0.023  -0.725   1.215  0.00  0.00     0.104 A 
ATOM      7  C7  <0> d           0.026  -0.032   2.469  0.00  0.00     0.104 C 
ATOM      8  N2  <0> d           0.029   0.517   3.463  0.00  0.00    -0.191 NA
ATOM      9  O1  <0> d           0.050  -2.820   2.333  0.00  0.00    -0.170 OA
ATOM     10  O2  <0> d           0.028  -2.700  -2.226  0.00  0.00    -0.268 OA
ATOM     11  H4  <0> d          -0.006  -0.151  -2.114  0.00  0.00     0.092 H 
ATOM     12  H5  <0> d           0.053  -3.741  -0.022  0.00  0.00     0.171 HD
ENDROOT
BRANCH   1  13
ATOM     13  C1  <0> d          -0.018   1.503   0.010  0.00  0.00    -0.049 C 
ATOM     14  H1  <0> d           1.004   1.880   0.003  0.00  0.00     0.033 H 
ATOM     15  H2  <0> d          -0.545   1.864  -0.873  0.00  0.00     0.033 H 
ATOM     16  H3  <0> d          -0.529   1.854   0.907  0.00  0.00     0.033 H 
ENDBRANCH   1  13
TORSDOF 1
