REMARK  1 active torsions:
REMARK  status: ('A' for Active; 'I' for Inactive)
REMARK    1  A    between atoms: C1_1  and  C2_2 
ROOT
ATOM      1  C2  <0> d           0.697   3.200   0.023  0.00  0.00     0.021 C 
ATOM      2  H1  <0> d           1.304   3.748   0.744  0.00  0.00     0.054 H 
ATOM      3  C3  <0> d          -0.786   3.189   0.462  0.00  0.00    -0.039 C 
ATOM      4  C4  <0> d          -1.234   1.777   0.017  0.00  0.00    -0.004 C 
ATOM      5  N1  <0> d          -0.011   0.966   0.007  0.00  0.00    -0.361 N 
ATOM      6  C5  <0> d           1.088   1.739   0.001  0.00  0.00     0.221 C 
ATOM      7  O1  <0> d           2.228   1.326  -0.019  0.00  0.00    -0.273 OA
ATOM      8  H5  <0> d          -0.873   3.308   1.542  0.00  0.00     0.036 H 
ATOM      9  H6  <0> d          -1.354   3.959  -0.060  0.00  0.00     0.036 H 
ATOM     10  H7  <0> d          -1.670   1.815  -0.981  0.00  0.00     0.064 H 
ATOM     11  H8  <0> d          -1.952   1.369   0.728  0.00  0.00     0.064 H 
ATOM     12  H9  <0> d           0.002  -0.004   0.002  0.00  0.00     0.162 HD
ENDROOT
BRANCH   1  13
ATOM     13  C1  <0> d           0.840   3.814  -1.371  0.00  0.00    -0.065 C 
ATOM     14  H2  <0> d           0.212   3.268  -2.075  0.00  0.00     0.028 H 
ATOM     15  H3  <0> d           0.529   4.858  -1.343  0.00  0.00     0.028 H 
ATOM     16  H4  <0> d           1.880   3.753  -1.690  0.00  0.00     0.028 H 
ENDBRANCH   1  13
TORSDOF 1
