REMARK  3 active torsions:
REMARK  status: ('A' for Active; 'I' for Inactive)
REMARK    1  A    between atoms: C1_1  and  C2_2 
REMARK    2  A    between atoms: C5_5  and  C7_8 
REMARK    3  A    between atoms: C7_8  and  C8_10 
ROOT
ATOM      1  C2  <0> d           0.002  -0.004   0.002  0.00  0.00    -0.044 A 
ATOM      2  C3  <0> d           0.006  -0.697  -1.199  0.00  0.00    -0.073 A 
ATOM      3  C4  <0> d           0.025  -2.082  -1.163  0.00  0.00    -0.051 A 
ATOM      4  C5  <0> d           0.039  -2.727   0.074  0.00  0.00     0.101 A 
ATOM      5  N1  <0> d           0.035  -2.025   1.202  0.00  0.00    -0.257 NA
ATOM      6  C6  <0> d           0.023  -0.710   1.195  0.00  0.00     0.009 A 
ATOM      7  H4  <0> d          -0.006  -0.169  -2.141  0.00  0.00     0.084 H 
ATOM      8  H5  <0> d           0.028  -2.654  -2.079  0.00  0.00     0.087 H 
ATOM      9  H6  <0> d           0.025  -0.173   2.132  0.00  0.00     0.115 H 
ENDROOT
BRANCH   4  10
ATOM     10  C7  <0> d           0.059  -4.202   0.131  0.00  0.00     0.174 C 
ATOM     11  O1  <0> d           0.063  -4.848  -0.895  0.00  0.00    -0.291 OA
BRANCH  10  12
ATOM     12  C8  <0> d           0.075  -4.905   1.464  0.00  0.00    -0.015 C 
ATOM     13  H7  <0> d          -0.816  -4.631   2.029  0.00  0.00     0.038 H 
ATOM     14  H8  <0> d           0.088  -5.983   1.306  0.00  0.00     0.038 H 
ATOM     15  H9  <0> d           0.964  -4.608   2.021  0.00  0.00     0.038 H 
ENDBRANCH  10  12
ENDBRANCH   4  10
BRANCH   1  16
ATOM     16  C1  <0> d          -0.018   1.503   0.010  0.00  0.00    -0.050 C 
ATOM     17  H1  <0> d           1.004   1.880   0.003  0.00  0.00     0.033 H 
ATOM     18  H2  <0> d          -0.545   1.864  -0.873  0.00  0.00     0.033 H 
ATOM     19  H3  <0> d          -0.529   1.854   0.907  0.00  0.00     0.033 H 
ENDBRANCH   1  16
TORSDOF 3
