REMARK  4 active torsions:
REMARK  status: ('A' for Active; 'I' for Inactive)
REMARK    1  A    between atoms: C4_5  and  C6_8 
REMARK    2  A    between atoms: C6_8  and  C7_9 
REMARK    3  A    between atoms: C7_9  and  C8_10 
REMARK    4  A    between atoms: C8_10  and  O2_11 
ROOT
ATOM      1  C1  <0> d          -0.017   1.411   0.010  0.00  0.00    -0.019 A 
ATOM      2  C2  <0> d          -1.205   2.054   0.019  0.00  0.00    -0.020 A 
ATOM      3  N1  <0> d          -2.369   1.359   0.021  0.00  0.00    -0.374 N 
ATOM      4  C3  <0> d          -2.384   0.004   0.013  0.00  0.00    -0.013 A 
ATOM      5  C4  <0> d          -1.230  -0.699   0.004  0.00  0.00     0.007 A 
ATOM      6  C5  <0> d           0.002  -0.004   0.002  0.00  0.00     0.180 A 
ATOM      7  O1  <0> d           1.062  -0.613  -0.011  0.00  0.00    -0.288 OA
ATOM      8  H1  <0> d           0.907   1.969   0.004  0.00  0.00     0.091 H 
ATOM      9  H2  <0> d          -1.227   3.134   0.025  0.00  0.00     0.111 H 
ATOM     10  H3  <0> d          -3.329  -0.520   0.015  0.00  0.00     0.112 H 
ATOM     11  H4  <0> d          -3.210   1.843   0.028  0.00  0.00     0.164 HD
ENDROOT
BRANCH   5  12
ATOM     12  C6  <0> d          -1.256  -2.206  -0.003  0.00  0.00    -0.034 C 
ATOM     13  H5  <0> d          -0.417  -2.586   0.581  0.00  0.00     0.040 H 
ATOM     14  H6  <0> d          -2.191  -2.556   0.434  0.00  0.00     0.040 H 
BRANCH  12  15
ATOM     15  C7  <0> d          -1.145  -2.711  -1.443  0.00  0.00    -0.042 C 
ATOM     16  H7  <0> d          -1.983  -2.330  -2.027  0.00  0.00     0.036 H 
ATOM     17  H8  <0> d          -0.210  -2.361  -1.880  0.00  0.00     0.036 H 
BRANCH  15  18
ATOM     18  C8  <0> d          -1.171  -4.240  -1.451  0.00  0.00     0.017 C 
ATOM     19  H9  <0> d          -0.332  -4.621  -0.867  0.00  0.00     0.073 H 
ATOM     20  H10 <0> d          -2.106  -4.590  -1.014  0.00  0.00     0.073 H 
BRANCH  18  21
ATOM     21  O2  <0> d          -1.067  -4.712  -2.796  0.00  0.00    -0.401 OA
ATOM     22  H11 <0> d          -1.077  -5.675  -2.877  0.00  0.00     0.209 HD
ENDBRANCH  18  21
ENDBRANCH  15  18
ENDBRANCH  12  15
ENDBRANCH   5  12
TORSDOF 4
