REMARK  1 active torsions:
REMARK  status: ('A' for Active; 'I' for Inactive)
REMARK    1  A    between atoms: C4_4  and  C7_7 
ROOT
ATOM      1  C1  <0> d           4.751   5.264  -0.017  0.00  0.00    -0.083 A 
ATOM      2  C2  <0> d           4.777   3.881  -0.024  0.00  0.00    -0.082 A 
ATOM      3  C3  <0> d           3.596   3.167  -0.016  0.00  0.00    -0.071 A 
ATOM      4  C4  <0> d           2.376   3.841  -0.001  0.00  0.00    -0.006 A 
ATOM      5  C5  <0> d           2.357   5.235   0.001  0.00  0.00    -0.071 A 
ATOM      6  C6  <0> d           3.544   5.939  -0.002  0.00  0.00    -0.082 A 
ATOM      7  H1  <0> d           5.678   5.819  -0.023  0.00  0.00     0.083 H 
ATOM      8  H2  <0> d           5.722   3.359  -0.036  0.00  0.00     0.083 H 
ATOM      9  H3  <0> d           3.616   2.087  -0.021  0.00  0.00     0.084 H 
ATOM     10  H4  <0> d           1.415   5.763   0.007  0.00  0.00     0.084 H 
ATOM     11  H5  <0> d           3.530   7.019   0.004  0.00  0.00     0.083 H 
ENDROOT
BRANCH   4  12
ATOM     12  C7  <0> d           1.104   3.079   0.008  0.00  0.00     0.084 A 
ATOM     13  N2  <0> d           1.123   1.750   0.001  0.00  0.00    -0.257 NA
ATOM     14  C10 <0> d          -0.013   1.076   0.008  0.00  0.00     0.020 A 
ATOM     15  C9  <0> d          -1.221   1.750   0.017  0.00  0.00     0.019 A 
ATOM     16  H8  <0> d           0.002  -0.004   0.002  0.00  0.00     0.117 H 
ATOM     17  N1  <0> d          -1.246   3.072   0.030  0.00  0.00    -0.269 NA
ATOM     18  H7  <0> d          -2.147   1.194   0.019  0.00  0.00     0.117 H 
ATOM     19  C8  <0> d          -0.117   3.755   0.022  0.00  0.00     0.030 A 
ATOM     20  H6  <0> d          -0.137   4.835   0.028  0.00  0.00     0.118 H 
ENDBRANCH   4  12
TORSDOF 1
