REMARK  4 active torsions:
REMARK  status: ('A' for Active; 'I' for Inactive)
REMARK    1  A    between atoms: C1_1  and  C2_2 
REMARK    2  A    between atoms: C2_2  and  C3_3 
REMARK       I    between atoms: C3_3  and  N1_5 
REMARK    3  A    between atoms: N1_5  and  C4_6 
REMARK    4  A    between atoms: C4_6  and  C5_7 
ROOT
ATOM      1  C3  <0> d          -0.014   1.209   0.009  0.00  0.00     0.217 C 
ATOM      2  O1  <0> d           0.002  -0.004   0.002  0.00  0.00    -0.274 OA
ATOM      3  N1  <0> d           1.143   1.898   0.001  0.00  0.00    -0.351 N 
ATOM      4  H6  <0> d           1.130   2.868   0.007  0.00  0.00     0.163 HD
ENDROOT
BRANCH   1   5
ATOM      5  C2  <0> d          -1.330   1.944   0.019  0.00  0.00     0.006 C 
ATOM      6  H4  <0> d          -1.392   2.565   0.913  0.00  0.00     0.046 H 
ATOM      7  H5  <0> d          -1.400   2.575  -0.867  0.00  0.00     0.046 H 
BRANCH   5   8
ATOM      8  C1  <0> d          -2.479   0.934   0.019  0.00  0.00    -0.068 C 
ATOM      9  H1  <0> d          -2.417   0.313  -0.875  0.00  0.00     0.028 H 
ATOM     10  H2  <0> d          -2.408   0.304   0.905  0.00  0.00     0.028 H 
ATOM     11  H3  <0> d          -3.430   1.466   0.026  0.00  0.00     0.028 H 
ENDBRANCH   5   8
ENDBRANCH   1   5
BRANCH   3  12
ATOM     12  C4  <0> d           2.422   1.183  -0.015  0.00  0.00     0.075 C 
ATOM     13  H7  <0> d           2.497   0.553   0.871  0.00  0.00     0.080 H 
ATOM     14  H8  <0> d           2.480   0.562  -0.909  0.00  0.00     0.080 H 
BRANCH  12  15
ATOM     15  C5  <0> d           3.554   2.178  -0.020  0.00  0.00     0.191 C 
ATOM     16  O2  <0> d           3.317   3.363  -0.012  0.00  0.00    -0.647 OA
ATOM     17  O3  <0> d           4.825   1.748  -0.035  0.00  0.00    -0.647 OA
ENDBRANCH  12  15
ENDBRANCH   3  12
TORSDOF 4
