REMARK  2 active torsions:
REMARK  status: ('A' for Active; 'I' for Inactive)
REMARK    1  A    between atoms: C1_1  and  C2_2 
REMARK    2  A    between atoms: C2_2  and  N1_3 
ROOT
ATOM      1  N1  <0> d           1.060   1.886   0.002  0.00  0.00    -0.280 N 
ATOM      2  C3  <0> d          -0.013   1.076   0.008  0.00  0.00     0.020 A 
ATOM      3  C4  <0> d          -1.136   1.878   0.017  0.00  0.00     0.080 A 
ATOM      4  C5  <0> d          -0.692   3.219   0.026  0.00  0.00     0.043 A 
ATOM      5  N2  <0> d           0.613   3.212   0.013  0.00  0.00    -0.184 NA
ATOM      6  C6  <0> d          -2.497   1.433   0.019  0.00  0.00     0.102 C 
ATOM      7  N3  <0> d          -3.577   1.081   0.021  0.00  0.00    -0.191 NA
ATOM      8  H6  <0> d           0.002  -0.004   0.002  0.00  0.00     0.116 H 
ATOM      9  H7  <0> d          -1.322   4.096   0.036  0.00  0.00     0.119 H 
ENDROOT
BRANCH   1  10
ATOM     10  C2  <0> d           2.460   1.454  -0.014  0.00  0.00     0.013 C 
ATOM     11  H4  <0> d           2.944   1.757   0.914  0.00  0.00     0.066 H 
ATOM     12  H5  <0> d           2.504   0.369  -0.111  0.00  0.00     0.066 H 
BRANCH  10  13
ATOM     13  C1  <0> d           3.179   2.101  -1.199  0.00  0.00    -0.059 C 
ATOM     14  H1  <0> d           3.135   3.186  -1.103  0.00  0.00     0.029 H 
ATOM     15  H2  <0> d           4.221   1.780  -1.212  0.00  0.00     0.029 H 
ATOM     16  H3  <0> d           2.695   1.799  -2.128  0.00  0.00     0.029 H 
ENDBRANCH  10  13
ENDBRANCH   1  10
TORSDOF 2
