REMARK  2 active torsions:
REMARK  status: ('A' for Active; 'I' for Inactive)
REMARK    1  A    between atoms: C1_1  and  C2_2 
REMARK    2  A    between atoms: C4_5  and  C8_11 
ROOT
ATOM      1  C2  <0> d           0.002  -0.004   0.002  0.00  0.00    -0.051 C 
ATOM      2  H1  <0> d           0.512  -0.356  -0.895  0.00  0.00     0.040 H 
ATOM      3  C3  <0> d          -1.433  -0.534   0.014  0.00  0.00    -0.058 C 
ATOM      4  C4  <0> d          -1.423  -2.060  -0.085  0.00  0.00    -0.051 C 
ATOM      5  H2  <0> d          -0.879  -2.364  -0.979  0.00  0.00     0.040 H 
ATOM      6  C5  <0> d          -0.736  -2.646   1.154  0.00  0.00    -0.007 C 
ATOM      7  C6  <0> d           0.635  -2.020   1.284  0.00  0.00     0.127 C 
ATOM      8  O1  <0> d           1.619  -2.708   1.417  0.00  0.00    -0.298 OA
ATOM      9  C7  <0> d           0.743  -0.512   1.244  0.00  0.00    -0.007 C 
ATOM     10  H6  <0> d          -1.922  -0.234   0.940  0.00  0.00     0.034 H 
ATOM     11  H7  <0> d          -1.979  -0.120  -0.834  0.00  0.00     0.034 H 
ATOM     12  H8  <0> d          -1.327  -2.420   2.042  0.00  0.00     0.044 H 
ATOM     13  H9  <0> d          -0.637  -3.725   1.042  0.00  0.00     0.044 H 
ATOM     14  H10 <0> d           1.792  -0.221   1.189  0.00  0.00     0.044 H 
ATOM     15  H11 <0> d           0.288  -0.088   2.139  0.00  0.00     0.044 H 
ENDROOT
BRANCH   1  16
ATOM     16  C1  <0> d          -0.019   1.526   0.010  0.00  0.00    -0.072 C 
ATOM     17  H3  <0> d           1.004   1.903   0.003  0.00  0.00     0.028 H 
ATOM     18  H4  <0> d          -0.546   1.887  -0.873  0.00  0.00     0.028 H 
ATOM     19  H5  <0> d          -0.529   1.877   0.907  0.00  0.00     0.028 H 
ENDBRANCH   1  16
BRANCH   4  20
ATOM     20  C8  <0> d          -2.861  -2.576  -0.163  0.00  0.00    -0.072 C 
ATOM     21  H12 <0> d          -3.350  -2.159  -1.043  0.00  0.00     0.028 H 
ATOM     22  H13 <0> d          -2.854  -3.664  -0.233  0.00  0.00     0.028 H 
ATOM     23  H14 <0> d          -3.405  -2.273   0.732  0.00  0.00     0.028 H 
ENDBRANCH   4  20
TORSDOF 2
