REMARK  2 active torsions:
REMARK  status: ('A' for Active; 'I' for Inactive)
REMARK    1  A    between atoms: C5_5  and  N2_8 
REMARK    2  A    between atoms: C6_6  and  N1_7 
ROOT
ATOM      1  C1  <0> d          -1.226   2.021   0.019  0.00  0.00    -0.018 A 
ATOM      2  C2  <0> d          -0.016   1.347   0.009  0.00  0.00     0.121 A 
ATOM      3  C3  <0> d           1.174   2.054   0.002  0.00  0.00    -0.006 A 
ATOM      4  C4  <0> d           1.160   3.438   0.009  0.00  0.00     0.147 A 
ATOM      5  C5  <0> d          -0.048   4.120   0.024  0.00  0.00     0.091 A 
ATOM      6  C6  <0> d          -1.246   3.408   0.031  0.00  0.00     0.058 A 
ATOM      7  F1  <0> d           2.324   4.125   0.001  0.00  0.00    -0.204 F 
ATOM      8  F2  <0> d           0.002  -0.004   0.002  0.00  0.00    -0.206 F 
ATOM      9  H1  <0> d          -2.152   1.467   0.020  0.00  0.00     0.091 H 
ATOM     10  H2  <0> d           2.115   1.524  -0.009  0.00  0.00     0.093 H 
ENDROOT
BRANCH   5  11
ATOM     11  N2  <0> d          -0.064   5.524   0.031  0.00  0.00    -0.395 N 
ATOM     12  H5  <0> d           0.770   6.018   0.026  0.00  0.00     0.156 HD
ATOM     13  H6  <0> d          -0.910   5.999   0.042  0.00  0.00     0.156 HD
ENDBRANCH   5  11
BRANCH   6  14
ATOM     14  N1  <0> d          -2.469   4.091   0.046  0.00  0.00    -0.397 N 
ATOM     15  H3  <0> d          -2.482   5.061   0.050  0.00  0.00     0.156 HD
ATOM     16  H4  <0> d          -3.302   3.594   0.051  0.00  0.00     0.156 HD
ENDBRANCH   6  14
TORSDOF 2
