REMARK  1 active torsions:
REMARK  status: ('A' for Active; 'I' for Inactive)
REMARK    1  A    between atoms: C1_1  and  C2_2 
ROOT
ATOM      1  C2  <0> d          -0.742   1.585  -1.213  0.00  0.00     0.105 A 
ATOM      2  N1  <0> d          -1.225   0.717  -2.057  0.00  0.00    -0.215 NA
ATOM      3  C3  <0> d          -1.882   1.109  -3.158  0.00  0.00     0.165 A 
ATOM      4  C4  <0> d          -2.054   2.474  -3.409  0.00  0.00     0.171 A 
ATOM      5  C5  <0> d          -1.522   3.404  -2.481  0.00  0.00     0.279 A 
ATOM      6  N2  <0> d          -0.878   2.923  -1.394  0.00  0.00    -0.310 N 
ATOM      7  O1  <0> d          -1.645   4.604  -2.656  0.00  0.00    -0.265 OA
ATOM      8  N3  <0> d          -2.741   2.586  -4.570  0.00  0.00    -0.234 NA
ATOM      9  H1  <0> d          -2.536  -0.508  -4.313  0.00  0.00     0.168 HD
ATOM     10  C6  <0> d          -2.996   1.397  -5.036  0.00  0.00     0.066 A 
ATOM     11  N4  <0> d          -2.484   0.453  -4.196  0.00  0.00    -0.333 N 
ATOM     12  H5  <0> d          -0.508   3.538  -0.742  0.00  0.00     0.170 HD
ATOM     13  H6  <0> d          -3.532   1.190  -5.950  0.00  0.00     0.143 H 
ENDROOT
BRANCH   1  14
ATOM     14  C1  <0> d          -0.013   1.086   0.008  0.00  0.00    -0.021 C 
ATOM     15  H2  <0> d           0.002  -0.004   0.002  0.00  0.00     0.037 H 
ATOM     16  H3  <0> d           1.010   1.463   0.000  0.00  0.00     0.037 H 
ATOM     17  H4  <0> d          -0.523   1.437   0.905  0.00  0.00     0.037 H 
ENDBRANCH   1  14
TORSDOF 1
