REMARK  1 active torsions:
REMARK  status: ('A' for Active; 'I' for Inactive)
REMARK    1  A    between atoms: C6_6  and  O1_7 
ROOT
ATOM      1  C1  <0> d           1.176   1.778   0.000  0.00  0.00    -0.050 A 
ATOM      2  C2  <0> d          -0.013   1.076   0.008  0.00  0.00    -0.072 A 
ATOM      3  C3  <0> d          -1.224   1.748   0.017  0.00  0.00    -0.032 A 
ATOM      4  C4  <0> d          -1.238   3.135   0.034  0.00  0.00     0.036 A 
ATOM      5  C5  <0> d          -0.044   3.844   0.025  0.00  0.00    -0.025 A 
ATOM      6  C6  <0> d           1.164   3.166   0.008  0.00  0.00     0.067 A 
ATOM      7  N1  <0> d          -2.447   3.839   0.057  0.00  0.00    -0.389 N 
ATOM      8  C7  <0> d          -3.695   3.118  -0.232  0.00  0.00    -0.007 C 
ATOM      9  C8  <0> d          -3.662   1.794   0.542  0.00  0.00    -0.047 C 
ATOM     10  C9  <0> d          -2.500   0.948   0.023  0.00  0.00    -0.037 C 
ATOM     11  H1  <0> d           2.116   1.247  -0.012  0.00  0.00     0.087 H 
ATOM     12  H2  <0> d           0.002  -0.004   0.002  0.00  0.00     0.084 H 
ATOM     13  H3  <0> d          -0.057   4.924   0.032  0.00  0.00     0.091 H 
ATOM     14  H5  <0> d          -2.462   4.787   0.260  0.00  0.00     0.159 HD
ATOM     15  H6  <0> d          -4.549   3.714   0.091  0.00  0.00     0.064 H 
ATOM     16  H7  <0> d          -3.767   2.920  -1.302  0.00  0.00     0.064 H 
ATOM     17  H8  <0> d          -3.522   1.996   1.604  0.00  0.00     0.035 H 
ATOM     18  H9  <0> d          -4.599   1.259   0.391  0.00  0.00     0.035 H 
ATOM     19  H10 <0> d          -2.377   0.074   0.663  0.00  0.00     0.040 H 
ATOM     20  H11 <0> d          -2.719   0.619  -0.993  0.00  0.00     0.040 H 
ENDROOT
BRANCH   6  21
ATOM     21  O1  <0> d           2.334   3.858  -0.002  0.00  0.00    -0.361 OA
ATOM     22  H4  <0> d           2.662   4.062  -0.888  0.00  0.00     0.217 HD
ENDBRANCH   6  21
TORSDOF 1
