REMARK  2 active torsions:
REMARK  status: ('A' for Active; 'I' for Inactive)
REMARK    1  A    between atoms: C5_7  and  C8_10 
REMARK    2  A    between atoms: C8_10  and  O1_11 
ROOT
ATOM      1  C1  <0> d          -0.016   1.355   0.009  0.00  0.00    -0.079 A 
ATOM      2  C2  <0> d           1.196   2.070   0.002  0.00  0.00    -0.068 A 
ATOM      3  C3  <0> d           2.376   1.421  -0.013  0.00  0.00    -0.014 A 
ATOM      4  N1  <0> d           2.417   0.051  -0.021  0.00  0.00    -0.315 N 
ATOM      5  C4  <0> d           3.430  -0.842  -0.036  0.00  0.00     0.070 A 
ATOM      6  N2  <0> d           2.939  -2.055  -0.038  0.00  0.00    -0.243 NA
ATOM      7  C5  <0> d           1.607  -2.005  -0.024  0.00  0.00     0.086 A 
ATOM      8  C6  <0> d           1.242  -0.674  -0.013  0.00  0.00     0.066 A 
ATOM      9  C7  <0> d           0.002  -0.004   0.002  0.00  0.00    -0.055 A 
ATOM     10  H1  <0> d          -0.958   1.884   0.026  0.00  0.00     0.083 H 
ATOM     11  H2  <0> d           1.180   3.150   0.008  0.00  0.00     0.085 H 
ATOM     12  H3  <0> d           3.297   1.984  -0.020  0.00  0.00     0.112 H 
ATOM     13  H4  <0> d           4.481  -0.593  -0.045  0.00  0.00     0.144 H 
ATOM     14  H5  <0> d          -0.922  -0.563   0.008  0.00  0.00     0.087 H 
ENDROOT
BRANCH   7  15
ATOM     15  C8  <0> d           0.670  -3.186  -0.022  0.00  0.00     0.059 C 
ATOM     16  H6  <0> d          -0.258  -2.915  -0.525  0.00  0.00     0.083 H 
ATOM     17  H7  <0> d           1.137  -4.021  -0.545  0.00  0.00     0.083 H 
BRANCH  15  18
ATOM     18  O1  <0> d           0.387  -3.567   1.326  0.00  0.00    -0.395 OA
ATOM     19  H8  <0> d          -0.211  -4.322   1.404  0.00  0.00     0.209 HD
ENDBRANCH  15  18
ENDBRANCH   7  15
TORSDOF 2
