REMARK  5 active torsions:
REMARK  status: ('A' for Active; 'I' for Inactive)
REMARK    1  A    between atoms: C1_1  and  C2_2 
REMARK    2  A    between atoms: C2_2  and  O1_3 
REMARK    3  A    between atoms: O1_3  and  C3_4 
REMARK    4  A    between atoms: C3_4  and  C4_6 
REMARK    5  A    between atoms: C6_9  and  N3_12 
ROOT
ATOM      1  C4  <0> d          -0.017   1.414   0.010  0.00  0.00     0.142 A 
ATOM      2  C5  <0> d           1.074   2.256   0.004  0.00  0.00     0.053 A 
ATOM      3  N1  <0> d           0.622   3.509   0.015  0.00  0.00    -0.075 NA
ATOM      4  C6  <0> d          -0.696   3.509   0.028  0.00  0.00     0.698 A 
ATOM      5  N2  <0> d          -1.140   2.233   0.019  0.00  0.00    -0.183 N 
ATOM      6  H1  <0> d          -2.095   1.936   0.019  0.00  0.00     0.184 HD
ATOM      7  H7  <0> d           2.111   1.954  -0.007  0.00  0.00     0.119 H 
ENDROOT
BRANCH   1   8
ATOM      8  C3  <0> d           0.002  -0.004   0.002  0.00  0.00     0.312 C 
ATOM      9  O2  <0> d           1.064  -0.598  -0.011  0.00  0.00    -0.258 OA
BRANCH   8  10
ATOM     10  O1  <0> d          -1.157  -0.695   0.009  0.00  0.00    -0.317 OA
BRANCH  10  11
ATOM     11  C2  <0> d          -1.063  -2.120   0.000  0.00  0.00     0.026 C 
ATOM     12  H5  <0> d          -0.535  -2.444  -0.896  0.00  0.00     0.074 H 
ATOM     13  H6  <0> d          -0.518  -2.454   0.884  0.00  0.00     0.074 H 
BRANCH  11  14
ATOM     14  C1  <0> d          -2.469  -2.724   0.010  0.00  0.00    -0.056 C 
ATOM     15  H2  <0> d          -3.014  -2.391  -0.873  0.00  0.00     0.030 H 
ATOM     16  H3  <0> d          -2.397  -3.812   0.003  0.00  0.00     0.030 H 
ATOM     17  H4  <0> d          -2.997  -2.401   0.906  0.00  0.00     0.030 H 
ENDBRANCH  11  14
ENDBRANCH  10  11
ENDBRANCH   8  10
ENDBRANCH   1   8
BRANCH   4  18
ATOM     18  N3  <0> d          -1.492   4.631   0.041  0.00  0.00    -0.233 N 
ATOM     19  H8  <0> d          -1.088   5.513   0.042  0.00  0.00     0.174 HD
ATOM     20  H9  <0> d          -2.458   4.540   0.050  0.00  0.00     0.174 HD
ENDBRANCH   4  18
TORSDOF 5
