REMARK  5 active torsions:
REMARK  status: ('A' for Active; 'I' for Inactive)
REMARK    1  A    between atoms: C1_1  and  C2_2 
REMARK    2  A    between atoms: C2_2  and  O1_3 
REMARK    3  A    between atoms: O1_3  and  C3_4 
REMARK    4  A    between atoms: C3_4  and  C4_6 
REMARK    5  A    between atoms: C3_4  and  C5_7 
ROOT
ATOM      1  C3  <0> d           0.002  -0.004   0.002  0.00  0.00     0.060 C 
ATOM      2  H1  <0> d           0.969  -0.352  -0.361  0.00  0.00     0.090 H 
ENDROOT
BRANCH   1   3
ATOM      3  O1  <0> d          -1.032  -0.490  -0.857  0.00  0.00    -0.382 OA
BRANCH   3   4
ATOM      4  C2  <0> d          -0.732  -1.742  -1.476  0.00  0.00     0.017 C 
ATOM      5  H5  <0> d           0.169  -1.641  -2.082  0.00  0.00     0.073 H 
ATOM      6  H6  <0> d          -0.570  -2.498  -0.708  0.00  0.00     0.073 H 
BRANCH   4   7
ATOM      7  C1  <0> d          -1.902  -2.163  -2.368  0.00  0.00    -0.056 C 
ATOM      8  H2  <0> d          -2.803  -2.264  -1.762  0.00  0.00     0.030 H 
ATOM      9  H3  <0> d          -2.063  -1.407  -3.136  0.00  0.00     0.030 H 
ATOM     10  H4  <0> d          -1.673  -3.118  -2.841  0.00  0.00     0.030 H 
ENDBRANCH   4   7
ENDBRANCH   3   4
ENDBRANCH   1   3
BRANCH   1  11
ATOM     11  C4  <0> d          -0.228  -0.525   1.422  0.00  0.00    -0.048 C 
ATOM     12  H7  <0> d           0.561  -0.155   2.077  0.00  0.00     0.031 H 
ATOM     13  H8  <0> d          -1.195  -0.177   1.785  0.00  0.00     0.031 H 
ATOM     14  H9  <0> d          -0.213  -1.615   1.416  0.00  0.00     0.031 H 
ENDBRANCH   1  11
BRANCH   1  15
ATOM     15  C5  <0> d          -0.018   1.503   0.010  0.00  0.00    -0.030 A 
ATOM     16  C10 <0> d           1.169   2.210   0.003  0.00  0.00    -0.074 A 
ATOM     17  C9  <0> d           1.151   3.592   0.010  0.00  0.00    -0.082 A 
ATOM     18  H14 <0> d           2.112   1.683  -0.009  0.00  0.00     0.084 H 
ATOM     19  C8  <0> d          -0.056   4.267   0.025  0.00  0.00    -0.083 A 
ATOM     20  H13 <0> d           2.078   4.145   0.005  0.00  0.00     0.083 H 
ATOM     21  C7  <0> d          -1.244   3.560   0.032  0.00  0.00    -0.082 A 
ATOM     22  H12 <0> d          -0.070   5.347   0.032  0.00  0.00     0.083 H 
ATOM     23  C6  <0> d          -1.225   2.178   0.020  0.00  0.00    -0.074 A 
ATOM     24  H11 <0> d          -2.186   4.087   0.044  0.00  0.00     0.083 H 
ATOM     25  H10 <0> d          -2.153   1.625   0.021  0.00  0.00     0.084 H 
ENDBRANCH   1  15
TORSDOF 5
