REMARK  3 active torsions:
REMARK  status: ('A' for Active; 'I' for Inactive)
REMARK    1  A    between atoms: C1_1  and  N1_2 
REMARK       I    between atoms: N1_2  and  C2_3 
REMARK    2  A    between atoms: C2_3  and  C3_5 
REMARK    3  A    between atoms: C3_5  and  N2_6 
REMARK       I    between atoms: N2_6  and  C4_7 
REMARK       I    between atoms: C4_7  and  N3_9 
ROOT
ATOM      1  C3  <0> d           2.462   0.920  -0.017  0.00  0.00     0.070 C 
ATOM      2  H5  <0> d           2.537   0.289   0.869  0.00  0.00     0.078 H 
ATOM      3  H6  <0> d           2.520   0.299  -0.910  0.00  0.00     0.078 H 
ENDROOT
BRANCH   1   4
ATOM      4  C2  <0> d           1.147   1.655  -0.000  0.00  0.00     0.234 C 
ATOM      5  N1  <0> d          -0.011   0.966   0.007  0.00  0.00    -0.364 N 
ATOM      6  H4  <0> d           0.002  -0.004   0.002  0.00  0.00     0.161 HD
ATOM      7  O1  <0> d           1.130   2.868   0.007  0.00  0.00    -0.272 OA
BRANCH   5   8
ATOM      8  C1  <0> d          -1.290   1.681   0.017  0.00  0.00    -0.018 C 
ATOM      9  H1  <0> d          -1.352   2.302   0.911  0.00  0.00     0.056 H 
ATOM     10  H2  <0> d          -1.360   2.312  -0.869  0.00  0.00     0.056 H 
ATOM     11  H3  <0> d          -2.108   0.962   0.017  0.00  0.00     0.056 H 
ENDBRANCH   5   8
ENDBRANCH   1   4
BRANCH   1  12
ATOM     12  N2  <0> d           3.562   1.887  -0.022  0.00  0.00    -0.335 N 
ATOM     13  C4  <0> d           4.839   1.455  -0.036  0.00  0.00     0.314 C 
ATOM     14  O2  <0> d           5.077   0.263  -0.045  0.00  0.00    -0.248 OA
ATOM     15  N3  <0> d           5.851   2.345  -0.041  0.00  0.00    -0.352 N 
ATOM     16  H8  <0> d           5.661   3.296  -0.034  0.00  0.00     0.160 HD
ATOM     17  H9  <0> d           6.770   2.034  -0.052  0.00  0.00     0.160 HD
ATOM     18  H7  <0> d           3.372   2.838  -0.015  0.00  0.00     0.164 HD
ENDBRANCH   1  12
TORSDOF 3
