REMARK  1 active torsions:
REMARK  status: ('A' for Active; 'I' for Inactive)
REMARK    1  A    between atoms: C2_2  and  C4_7 
ROOT
ATOM      1  C1  <0> d           2.381   3.839  -0.000  0.00  0.00     0.014 A 
ATOM      2  C2  <0> d           1.238   3.063   0.007  0.00  0.00     0.076 A 
ATOM      3  C3  <0> d           0.134   3.945   0.016  0.00  0.00     0.039 A 
ATOM      4  N1  <0> d           0.594   5.166   0.023  0.00  0.00    -0.187 NA
ATOM      5  N2  <0> d           1.993   5.124   0.010  0.00  0.00    -0.289 N 
ATOM      6  H1  <0> d           2.601   5.918   0.009  0.00  0.00     0.188 HD
ATOM      7  H2  <0> d           3.399   3.479  -0.011  0.00  0.00     0.115 H 
ATOM      8  H3  <0> d          -0.907   3.659   0.019  0.00  0.00     0.119 H 
ENDROOT
BRANCH   2   9
ATOM      9  C4  <0> d           1.181   1.591  -0.001  0.00  0.00     0.212 C 
ATOM     10  O1  <0> d           2.209   0.943  -0.014  0.00  0.00    -0.644 OA
ATOM     11  O2  <0> d          -0.011   0.963   0.007  0.00  0.00    -0.644 OA
ENDBRANCH   2   9
TORSDOF 1
