REMARK  5 active torsions:
REMARK  status: ('A' for Active; 'I' for Inactive)
REMARK    1  A    between atoms: C1_1  and  O1_2 
REMARK    2  A    between atoms: O1_2  and  C2_3 
REMARK    3  A    between atoms: C4_5  and  O3_11 
REMARK    4  A    between atoms: C6_8  and  O2_9 
REMARK    5  A    between atoms: O2_9  and  C7_10 
ROOT
ATOM      1  C2  <0> d          -1.201  -0.638   0.010  0.00  0.00     0.123 A 
ATOM      2  C3  <0> d          -2.381   0.092   0.019  0.00  0.00    -0.013 A 
ATOM      3  C4  <0> d          -3.588  -0.600   0.028  0.00  0.00     0.086 A 
ATOM      4  C5  <0> d          -3.573  -1.985   0.026  0.00  0.00     0.037 A 
ATOM      5  N1  <0> d          -2.433  -2.650   0.017  0.00  0.00    -0.232 NA
ATOM      6  C6  <0> d          -1.266  -2.030   0.003  0.00  0.00     0.198 A 
ATOM      7  H4  <0> d          -2.363   1.172   0.021  0.00  0.00     0.092 H 
ATOM      8  H5  <0> d          -4.507  -2.528   0.033  0.00  0.00     0.119 H 
ENDROOT
BRANCH   1   9
ATOM      9  O1  <0> d           0.002  -0.004   0.002  0.00  0.00    -0.352 OA
BRANCH   9  10
ATOM     10  C1  <0> d          -0.017   1.425   0.010  0.00  0.00     0.011 C 
ATOM     11  H1  <0> d           1.005   1.802   0.002  0.00  0.00     0.067 H 
ATOM     12  H2  <0> d          -0.544   1.786  -0.873  0.00  0.00     0.067 H 
ATOM     13  H3  <0> d          -0.527   1.776   0.907  0.00  0.00     0.067 H 
ENDBRANCH   9  10
ENDBRANCH   1   9
BRANCH   6  14
ATOM     14  O2  <0> d          -0.119  -2.756  -0.012  0.00  0.00    -0.337 OA
BRANCH  14  15
ATOM     15  C7  <0> d          -0.252  -4.179  -0.018  0.00  0.00     0.012 C 
ATOM     16  H6  <0> d          -0.788  -4.498   0.875  0.00  0.00     0.067 H 
ATOM     17  H7  <0> d          -0.806  -4.488  -0.905  0.00  0.00     0.067 H 
ATOM     18  H8  <0> d           0.738  -4.636  -0.031  0.00  0.00     0.067 H 
ENDBRANCH  14  15
ENDBRANCH   6  14
BRANCH   3  19
ATOM     19  O3  <0> d          -4.769   0.075   0.037  0.00  0.00    -0.359 OA
ATOM     20  H9  <0> d          -5.117   0.272  -0.843  0.00  0.00     0.217 HD
ENDBRANCH   3  19
TORSDOF 5
