REMARK  4 active torsions:
REMARK  status: ('A' for Active; 'I' for Inactive)
REMARK    1  A    between atoms: C1_1  and  C2_2 
REMARK    2  A    between atoms: C2_2  and  C3_4 
REMARK    3  A    between atoms: C2_2  and  N1_6 
REMARK    4  A    between atoms: C3_4  and  O1_5 
ROOT
ATOM      1  C2  <0> d          -0.019   1.526   0.010  0.00  0.00     0.052 C 
ATOM      2  H1  <0> d           1.005   1.927   0.041  0.00  0.00     0.078 H 
ENDROOT
BRANCH   1   3
ATOM      3  C1  <0> d          -0.759   2.033  -1.229  0.00  0.00    -0.053 C 
ATOM      4  H2  <0> d          -0.774   3.132  -1.223  0.00  0.00     0.030 H 
ATOM      5  H3  <0> d          -1.791   1.652  -1.221  0.00  0.00     0.030 H 
ATOM      6  H4  <0> d          -0.244   1.678  -2.134  0.00  0.00     0.030 H 
ENDBRANCH   1   3
BRANCH   1   7
ATOM      7  C3  <0> d           0.002  -0.004   0.002  0.00  0.00     0.037 C 
ATOM      8  H5  <0> d           0.454  -0.370   0.936  0.00  0.00     0.077 H 
ATOM      9  H6  <0> d          -1.027  -0.384  -0.081  0.00  0.00     0.077 H 
BRANCH   7  10
ATOM     10  O1  <0> d           0.771  -0.464  -1.111  0.00  0.00    -0.399 OA
ATOM     11  H7  <0> d           0.899  -1.543  -1.283  0.00  0.00     0.209 HD
ENDBRANCH   7  10
ENDBRANCH   1   7
BRANCH   1  12
ATOM     12  N1  <0> d          -0.704   1.998   1.216  0.00  0.00    -0.256 N 
ATOM     13  N3  <0> d          -0.108   2.373   2.431  0.00  0.00    -0.164 NA
ATOM     14  C5  <0> d          -1.077   2.729   3.233  0.00  0.00     0.107 A 
ATOM     15  N2  <0> d          -2.239   2.599   2.593  0.00  0.00    -0.234 NA
ATOM     16  H9  <0> d          -0.956   3.072   4.250  0.00  0.00     0.149 H 
ATOM     17  C4  <0> d          -2.029   2.165   1.376  0.00  0.00     0.084 A 
ATOM     18  H8  <0> d          -2.787   1.972   0.632  0.00  0.00     0.146 H 
ENDBRANCH   1  12
TORSDOF 4
