REMARK  5 active torsions:
REMARK  status: ('A' for Active; 'I' for Inactive)
REMARK    1  A    between atoms: C1_1  and  C2_2 
REMARK    2  A    between atoms: C2_2  and  O1_3 
REMARK    3  A    between atoms: O1_3  and  C3_4 
REMARK    4  A    between atoms: C3_4  and  C4_6 
REMARK    5  A    between atoms: C5_7  and  N3_12 
ROOT
ATOM      1  C4  <0> d          -2.841  -2.416   0.016  0.00  0.00     0.153 A 
ATOM      2  C5  <0> d          -3.172  -3.769   0.018  0.00  0.00     0.080 A 
ATOM      3  C6  <0> d          -4.576  -3.803   0.029  0.00  0.00     0.049 A 
ATOM      4  N1  <0> d          -5.009  -2.570   0.033  0.00  0.00    -0.184 NA
ATOM      5  N2  <0> d          -4.034  -1.734   0.032  0.00  0.00    -0.271 N 
ATOM      6  H1  <0> d          -4.125  -0.769   0.038  0.00  0.00     0.189 HD
ATOM      7  H7  <0> d          -5.190  -4.691   0.033  0.00  0.00     0.121 H 
ENDROOT
BRANCH   1   8
ATOM      8  C3  <0> d          -1.497  -1.839   0.006  0.00  0.00     0.313 C 
ATOM      9  O2  <0> d          -0.522  -2.566  -0.007  0.00  0.00    -0.257 OA
BRANCH   8  10
ATOM     10  O1  <0> d          -1.339  -0.499   0.012  0.00  0.00    -0.317 OA
BRANCH  10  11
ATOM     11  C2  <0> d           0.002  -0.004   0.002  0.00  0.00     0.026 C 
ATOM     12  H5  <0> d           0.512  -0.356  -0.895  0.00  0.00     0.074 H 
ATOM     13  H6  <0> d           0.529  -0.365   0.885  0.00  0.00     0.074 H 
BRANCH  11  14
ATOM     14  C1  <0> d          -0.019   1.526   0.010  0.00  0.00    -0.056 C 
ATOM     15  H2  <0> d           1.004   1.903   0.003  0.00  0.00     0.030 H 
ATOM     16  H3  <0> d          -0.546   1.887  -0.873  0.00  0.00     0.030 H 
ATOM     17  H4  <0> d          -0.529   1.877   0.907  0.00  0.00     0.030 H 
ENDBRANCH  11  14
ENDBRANCH  10  11
ENDBRANCH   8  10
ENDBRANCH   1   8
BRANCH   2  18
ATOM     18  N3  <0> d          -2.299  -4.854   0.010  0.00  0.00    -0.396 N 
ATOM     19  H8  <0> d          -1.341  -4.706   0.002  0.00  0.00     0.156 HD
ATOM     20  H9  <0> d          -2.650  -5.759   0.012  0.00  0.00     0.156 HD
ENDBRANCH   2  18
TORSDOF 5
