REMARK  4 active torsions:
REMARK  status: ('A' for Active; 'I' for Inactive)
REMARK    1  A    between atoms: C1_1  and  C2_2 
REMARK    2  A    between atoms: C3_5  and  C6_10 
REMARK    3  A    between atoms: C6_10  and  O2_11 
REMARK    4  A    between atoms: O2_11  and  C7_12 
ROOT
ATOM      1  C2  <0> d          -0.016   1.341   0.011  0.00  0.00     0.103 A 
ATOM      2  N1  <0> d           0.002  -0.004   0.003  0.00  0.00    -0.238 NA
ATOM      3  H1  <0> d           1.044   3.138   0.017  0.00  0.00     0.170 HD
ATOM      4  C3  <0> d           1.183  -0.682  -0.013  0.00  0.00     0.065 A 
ATOM      5  C4  <0> d           2.344   0.013  -0.009  0.00  0.00     0.009 A 
ATOM      6  C5  <0> d           2.286   1.429  -0.001  0.00  0.00     0.248 A 
ATOM      7  O1  <0> d           3.314   2.088  -0.002  0.00  0.00    -0.268 OA
ATOM      8  N2  <0> d           1.088   2.039   0.009  0.00  0.00    -0.312 N 
ATOM      9  H5  <0> d           3.218  -0.473  -0.017  0.00  0.00     0.095 H 
ENDROOT
BRANCH   4  10
ATOM     10  C6  <0> d           1.197  -2.189  -0.023  0.00  0.00     0.059 C 
ATOM     11  H6  <0> d           0.674  -2.555  -0.918  0.00  0.00     0.084 H 
ATOM     12  H7  <0> d           0.691  -2.566   0.878  0.00  0.00     0.084 H 
BRANCH  10  13
ATOM     13  O2  <0> d           2.549  -2.653  -0.038  0.00  0.00    -0.390 OA
BRANCH  13  14
ATOM     14  C7  <0> d           2.675  -4.076  -0.048  0.00  0.00     0.004 C 
ATOM     15  H8  <0> d           3.740  -4.350  -0.060  0.00  0.00     0.066 H 
ATOM     16  H9  <0> d           2.182  -4.482  -0.944  0.00  0.00     0.066 H 
ATOM     17  H10 <0> d           2.199  -4.493   0.852  0.00  0.00     0.066 H 
ENDBRANCH  13  14
ENDBRANCH  10  13
ENDBRANCH   4  10
BRANCH   1  18
ATOM     18  C1  <0> d          -1.341   2.060   0.021  0.00  0.00    -0.021 C 
ATOM     19  H2  <0> d          -1.169   3.146   0.027  0.00  0.00     0.037 H 
ATOM     20  H3  <0> d          -1.906   1.773   0.921  0.00  0.00     0.037 H 
ATOM     21  H4  <0> d          -1.915   1.784  -0.875  0.00  0.00     0.037 H 
ENDBRANCH   1  18
TORSDOF 4
