REMARK  7 active torsions:
REMARK  status: ('A' for Active; 'I' for Inactive)
REMARK    1  A    between atoms: C1_1  and  C2_2 
REMARK    2  A    between atoms: C2_2  and  C3_3 
REMARK    3  A    between atoms: C2_2  and  C4_5 
REMARK    4  A    between atoms: C2_2  and  N1_9 
REMARK    5  A    between atoms: C3_3  and  O1_4 
REMARK    6  A    between atoms: C4_5  and  O3_7 
REMARK    7  A    between atoms: O3_7  and  C5_8 
ROOT
ATOM      1  C2  <0> d           0.002  -0.004   0.002  0.00  0.00     0.258 C 
ENDROOT
BRANCH   1   2
ATOM      2  C1  <0> d          -0.019   1.526   0.010  0.00  0.00    -0.032 C 
ATOM      3  H1  <0> d           1.004   1.903   0.003  0.00  0.00     0.031 H 
ATOM      4  H2  <0> d          -0.546   1.887  -0.873  0.00  0.00     0.031 H 
ATOM      5  H3  <0> d          -0.529   1.877   0.907  0.00  0.00     0.031 H 
ENDBRANCH   1   2
BRANCH   1   6
ATOM      6  C3  <0> d           0.742  -0.511   1.242  0.00  0.00     0.059 C 
ATOM      7  H4  <0> d           0.835  -1.596   1.191  0.00  0.00     0.078 H 
ATOM      8  H5  <0> d           1.735  -0.063   1.280  0.00  0.00     0.078 H 
BRANCH   6   9
ATOM      9  O1  <0> d           0.010  -0.149   2.414  0.00  0.00    -0.398 OA
ATOM     10  H6  <0> d           0.422  -0.439   3.240  0.00  0.00     0.209 HD
ENDBRANCH   6   9
ENDBRANCH   1   6
BRANCH   1  11
ATOM     11  C4  <0> d           0.707  -0.490  -1.238  0.00  0.00     0.299 C 
ATOM     12  O2  <0> d           1.884  -0.762  -1.196  0.00  0.00    -0.262 OA
BRANCH  11  13
ATOM     13  O3  <0> d           0.029  -0.621  -2.388  0.00  0.00    -0.324 OA
BRANCH  13  14
ATOM     14  C5  <0> d           0.760  -1.087  -3.524  0.00  0.00     0.013 C 
ATOM     15  H7  <0> d           1.574  -0.394  -3.741  0.00  0.00     0.067 H 
ATOM     16  H8  <0> d           1.171  -2.074  -3.312  0.00  0.00     0.067 H 
ATOM     17  H9  <0> d           0.095  -1.147  -4.385  0.00  0.00     0.067 H 
ENDBRANCH  13  14
ENDBRANCH  11  13
ENDBRANCH   1  11
BRANCH   1  18
ATOM     18  N1  <0> d          -1.376  -0.512   0.012  0.00  0.00     0.099 N 
ATOM     19  H10 <0> d          -1.905  -0.140  -0.762  0.00  0.00     0.314 HD
ATOM     20  H11 <0> d          -1.389  -1.521   0.007  0.00  0.00     0.314 HD
ENDBRANCH   1  18
TORSDOF 7
