REMARK  3 active torsions:
REMARK  status: ('A' for Active; 'I' for Inactive)
REMARK    1  A    between atoms: C1_1  and  C2_2 
REMARK    2  A    between atoms: C1_1  and  C3_6 
REMARK    3  A    between atoms: C2_2  and  S1_3 
ROOT
ATOM      1  C2  <0> d          -2.479   0.930   0.019  0.00  0.00     0.054 C 
ATOM      2  H3  <0> d          -2.417   0.309  -0.875  0.00  0.00     0.061 H 
ATOM      3  H4  <0> d          -2.408   0.299   0.905  0.00  0.00     0.061 H 
ENDROOT
BRANCH   1   4
ATOM      4  C1  <0> d          -1.329   1.940   0.019  0.00  0.00     0.030 C 
ATOM      5  H1  <0> d          -1.391   2.561   0.913  0.00  0.00     0.050 H 
ATOM      6  H2  <0> d          -1.400   2.570  -0.867  0.00  0.00     0.050 H 
BRANCH   4   7
ATOM      7  C3  <0> d          -0.014   1.204   0.009  0.00  0.00     0.173 C 
ATOM      8  O3  <0> d           0.002  -0.004   0.002  0.00  0.00    -0.648 OA
ATOM      9  O5  <0> d           1.139   1.891   0.001  0.00  0.00    -0.648 OA
ENDBRANCH   4   7
ENDBRANCH   1   4
BRANCH   1  10
ATOM     10  S1  <0> d          -4.062   1.815   0.031  0.00  0.00     0.102 S 
ATOM     11  O1  <0> d          -4.237   2.489   1.270  0.00  0.00    -0.595 OA
ATOM     12  O2  <0> d          -4.248   2.502  -1.199  0.00  0.00    -0.595 OA
ATOM     13  O4  <0> d          -5.121   0.723   0.030  0.00  0.00    -0.595 OA
ENDBRANCH   1  10
TORSDOF 3
