REMARK  8 active torsions:
REMARK  status: ('A' for Active; 'I' for Inactive)
REMARK    1  A    between atoms: C1_1  and  C2_2 
REMARK    2  A    between atoms: C2_2  and  C3_3 
REMARK    3  A    between atoms: C2_2  and  C4_4 
REMARK    4  A    between atoms: C4_4  and  C5_5 
REMARK    5  A    between atoms: C5_5  and  C6_6 
REMARK    6  A    between atoms: C6_6  and  C7_8 
REMARK    7  A    between atoms: C6_6  and  N1_9 
REMARK       I    between atoms: N1_9  and  C8_10 
REMARK    8  A    between atoms: C8_10  and  C9_12 
ROOT
ATOM      1  C5  <0> d           0.848  -0.509   1.173  0.00  0.00    -0.046 C 
ATOM      2  H11 <0> d           1.865  -0.131   1.076  0.00  0.00     0.035 H 
ATOM      3  H12 <0> d           0.417  -0.157   2.110  0.00  0.00     0.035 H 
ENDROOT
BRANCH   1   4
ATOM      4  C4  <0> d           0.002  -0.004   0.002  0.00  0.00    -0.061 C 
ATOM      5  H9  <0> d          -1.016  -0.382   0.099  0.00  0.00     0.033 H 
ATOM      6  H10 <0> d           0.432  -0.356  -0.935  0.00  0.00     0.033 H 
BRANCH   4   7
ATOM      7  C2  <0> d          -0.019   1.526   0.010  0.00  0.00    -0.061 C 
ATOM      8  H5  <0> d           1.004   1.903   0.003  0.00  0.00     0.038 H 
BRANCH   7   9
ATOM      9  C1  <0> d          -0.759   2.033  -1.229  0.00  0.00    -0.073 C 
ATOM     10  H2  <0> d          -1.781   1.655  -1.221  0.00  0.00     0.028 H 
ATOM     11  H3  <0> d          -0.773   3.123  -1.223  0.00  0.00     0.028 H 
ATOM     12  H4  <0> d          -0.248   1.681  -2.126  0.00  0.00     0.028 H 
ENDBRANCH   7   9
BRANCH   7  13
ATOM     13  C3  <0> d          -0.735   2.019   1.269  0.00  0.00    -0.073 C 
ATOM     14  H6  <0> d          -0.208   1.658   2.152  0.00  0.00     0.028 H 
ATOM     15  H7  <0> d          -0.750   3.109   1.275  0.00  0.00     0.028 H 
ATOM     16  H8  <0> d          -1.757   1.642   1.277  0.00  0.00     0.028 H 
ENDBRANCH   7  13
ENDBRANCH   4   7
ENDBRANCH   1   4
BRANCH   1  17
ATOM     17  C6  <0> d           0.868  -2.039   1.165  0.00  0.00     0.009 C 
ATOM     18  H1  <0> d          -0.154  -2.416   1.172  0.00  0.00     0.071 H 
BRANCH  17  19
ATOM     19  C7  <0> d           1.608  -2.546   2.404  0.00  0.00    -0.057 C 
ATOM     20  H13 <0> d           1.098  -2.194   3.301  0.00  0.00     0.030 H 
ATOM     21  H14 <0> d           1.623  -3.636   2.398  0.00  0.00     0.030 H 
ATOM     22  H15 <0> d           2.631  -2.168   2.396  0.00  0.00     0.030 H 
ENDBRANCH  17  19
BRANCH  17  23
ATOM     23  N1  <0> d           1.554  -2.511  -0.041  0.00  0.00    -0.357 N 
ATOM     24  C8  <0> d           1.280  -3.735  -0.536  0.00  0.00     0.213 C 
ATOM     25  O1  <0> d           0.466  -4.444   0.016  0.00  0.00    -0.274 OA
ATOM     26  H16 <0> d           2.205  -1.944  -0.482  0.00  0.00     0.162 HD
BRANCH  24  27
ATOM     27  C9  <0> d           1.986  -4.221  -1.776  0.00  0.00    -0.003 C 
ATOM     28  H17 <0> d           2.901  -4.740  -1.493  0.00  0.00     0.040 H 
ATOM     29  H18 <0> d           1.333  -4.903  -2.321  0.00  0.00     0.040 H 
ATOM     30  H19 <0> d           2.232  -3.369  -2.411  0.00  0.00     0.040 H 
ENDBRANCH  24  27
ENDBRANCH  17  23
ENDBRANCH   1  17
TORSDOF 8
