REMARK  4 active torsions:
REMARK  status: ('A' for Active; 'I' for Inactive)
REMARK    1  A    between atoms: C1_1  and  O1_2 
REMARK    2  A    between atoms: O1_2  and  C2_3 
REMARK    3  A    between atoms: C2_3  and  C3_5 
REMARK    4  A    between atoms: C4_6  and  C5_7 
ROOT
ATOM      1  C3  <0> d           0.018  -1.178  -0.004  0.00  0.00     0.003 C 
ATOM      2  C4  <0> d           0.002  -0.004   0.002  0.00  0.00    -0.091 C 
ENDROOT
BRANCH   2   3
ATOM      3  C5  <0> d          -0.018   1.468   0.010  0.00  0.00     0.006 A 
ATOM      4  C7  <0> d          -1.155   2.163  -0.741  0.00  0.00    -0.051 A 
ATOM      5  C6  <0> d          -1.141   2.155   0.790  0.00  0.00    -0.051 A 
ATOM      6  H7  <0> d          -0.927   3.104  -1.241  0.00  0.00     0.035 H 
ATOM      7  H8  <0> d          -1.889   1.530  -1.241  0.00  0.00     0.035 H 
ATOM      8  H5  <0> d          -1.865   1.517   1.297  0.00  0.00     0.035 H 
ATOM      9  H6  <0> d          -0.903   3.090   1.296  0.00  0.00     0.035 H 
ATOM     10  H4  <0> d           0.959   1.951   0.003  0.00  0.00     0.059 H 
ENDBRANCH   2   3
BRANCH   1  11
ATOM     11  C2  <0> d           0.037  -2.610  -0.012  0.00  0.00     0.338 C 
ATOM     12  O2  <0> d          -1.007  -3.232  -0.006  0.00  0.00    -0.249 OA
BRANCH  11  13
ATOM     13  O1  <0> d           1.214  -3.268  -0.027  0.00  0.00    -0.316 OA
BRANCH  13  14
ATOM     14  C1  <0> d           1.157  -4.719  -0.034  0.00  0.00     0.014 C 
ATOM     15  H1  <0> d           2.170  -5.122  -0.046  0.00  0.00     0.067 H 
ATOM     16  H2  <0> d           0.638  -5.067   0.859  0.00  0.00     0.067 H 
ATOM     17  H3  <0> d           0.622  -5.057  -0.921  0.00  0.00     0.067 H 
ENDBRANCH  13  14
ENDBRANCH  11  13
ENDBRANCH   1  11
TORSDOF 4
