REMARK  1 active torsions:
REMARK  status: ('A' for Active; 'I' for Inactive)
REMARK    1  A    between atoms: C4_5  and  C5_7 
ROOT
ATOM      1  C5  <0> d          -1.250  -0.569   0.675  0.00  0.00     0.020 C 
ATOM      2  C6  <0> d          -1.258  -2.035   0.545  0.00  0.00     0.059 C 
ATOM      3  N1  <0> d          -1.264  -3.167   0.444  0.00  0.00    -0.197 NA
ATOM      4  H8  <0> d          -1.249  -0.298   1.731  0.00  0.00     0.055 H 
ATOM      5  H9  <0> d          -2.138  -0.157   0.195  0.00  0.00     0.055 H 
ENDROOT
BRANCH   1   6
ATOM      6  C4  <0> d           0.002  -0.004   0.002  0.00  0.00    -0.020 C 
ATOM      7  C1  <0> d          -0.019   1.549   0.011  0.00  0.00    -0.039 C 
ATOM      8  C2  <0> d           1.498   1.864  -0.002  0.00  0.00     0.020 C 
ATOM      9  H2  <0> d          -0.492   1.930   0.916  0.00  0.00     0.036 H 
ATOM     10  H3  <0> d          -0.509   1.940  -0.881  0.00  0.00     0.036 H 
ATOM     11  O1  <0> d           2.100   0.843   0.810  0.00  0.00    -0.391 OA
ATOM     12  H4  <0> d           1.886   1.815  -1.020  0.00  0.00     0.074 H 
ATOM     13  H5  <0> d           1.684   2.848   0.427  0.00  0.00     0.074 H 
ATOM     14  C3  <0> d           1.263  -0.319   0.835  0.00  0.00     0.024 C 
ATOM     15  H6  <0> d           1.793  -1.165   0.398  0.00  0.00     0.074 H 
ATOM     16  H7  <0> d           0.980  -0.549   1.862  0.00  0.00     0.074 H 
ATOM     17  H1  <0> d           0.103  -0.385  -1.014  0.00  0.00     0.044 H 
ENDBRANCH   1   6
TORSDOF 1
