REMARK  2 active torsions:
REMARK  status: ('A' for Active; 'I' for Inactive)
REMARK    1  A    between atoms: C1_1  and  N1_2 
REMARK    2  A    between atoms: C2_3  and  C5_9 
ROOT
ATOM      1  N1  <0> d           0.002  -0.004   0.002  0.00  0.00    -0.297 N 
ATOM      2  C2  <0> d          -1.116  -0.846   0.003  0.00  0.00     0.131 A 
ATOM      3  C3  <0> d          -0.656  -2.121  -0.006  0.00  0.00     0.014 A 
ATOM      4  N2  <0> d           0.710  -2.074  -0.013  0.00  0.00    -0.316 N 
ATOM      5  H1  <0> d           1.302  -2.842  -0.020  0.00  0.00     0.170 HD
ATOM      6  C4  <0> d           1.100  -0.785  -0.013  0.00  0.00     0.326 A 
ATOM      7  O1  <0> d           2.252  -0.392  -0.023  0.00  0.00    -0.246 OA
ATOM      8  H5  <0> d          -1.261  -3.015  -0.009  0.00  0.00     0.115 H 
ENDROOT
BRANCH   1   9
ATOM      9  C1  <0> d          -0.018   1.461   0.010  0.00  0.00    -0.009 C 
ATOM     10  H2  <0> d           1.005   1.838   0.002  0.00  0.00     0.057 H 
ATOM     11  H3  <0> d          -0.545   1.822  -0.873  0.00  0.00     0.057 H 
ATOM     12  H4  <0> d          -0.528   1.812   0.907  0.00  0.00     0.057 H 
ENDBRANCH   1   9
BRANCH   2  13
ATOM     13  C5  <0> d          -2.516  -0.429   0.012  0.00  0.00     0.228 C 
ATOM     14  O2  <0> d          -3.406  -1.271   0.011  0.00  0.00    -0.643 OA
ATOM     15  O3  <0> d          -2.800   0.762   0.020  0.00  0.00    -0.643 OA
ENDBRANCH   2  13
TORSDOF 2
