REMARK  1 active torsions:
REMARK  status: ('A' for Active; 'I' for Inactive)
REMARK    1  A    between atoms: C1_1  and  C2_2 
ROOT
ATOM      1  C2  <0> d           0.002  -0.004   0.002  0.00  0.00     0.054 A 
ATOM      2  C3  <0> d           0.008  -0.817  -1.139  0.00  0.00    -0.014 A 
ATOM      3  C4  <0> d           0.028  -2.103  -0.724  0.00  0.00     0.121 A 
ATOM      4  N1  <0> d           0.032  -2.104   0.635  0.00  0.00    -0.254 N 
ATOM      5  N2  <0> d           0.023  -0.777   1.061  0.00  0.00    -0.176 NA
ATOM      6  C5  <0> d           0.049  -3.323   1.448  0.00  0.00     0.020 C 
ATOM      7  C6  <0> d          -0.421  -4.501   0.587  0.00  0.00    -0.034 C 
ATOM      8  C7  <0> d           0.352  -4.519  -0.737  0.00  0.00    -0.004 C 
ATOM      9  N3  <0> d           0.043  -3.280  -1.476  0.00  0.00    -0.375 N 
ATOM     10  H4  <0> d          -0.002  -0.478  -2.164  0.00  0.00     0.092 H 
ATOM     11  H5  <0> d           1.062  -3.511   1.804  0.00  0.00     0.067 H 
ATOM     12  H6  <0> d          -0.622  -3.203   2.299  0.00  0.00     0.067 H 
ATOM     13  H7  <0> d          -0.244  -5.434   1.123  0.00  0.00     0.037 H 
ATOM     14  H8  <0> d          -1.486  -4.399   0.383  0.00  0.00     0.037 H 
ATOM     15  H9  <0> d           1.422  -4.569  -0.535  0.00  0.00     0.064 H 
ATOM     16  H10 <0> d           0.047  -5.383  -1.327  0.00  0.00     0.064 H 
ATOM     17  H11 <0> d          -0.139  -3.282  -2.429  0.00  0.00     0.161 HD
ENDROOT
BRANCH   1  18
ATOM     18  C1  <0> d          -0.018   1.503   0.010  0.00  0.00    -0.034 C 
ATOM     19  H1  <0> d           1.004   1.880   0.003  0.00  0.00     0.035 H 
ATOM     20  H2  <0> d          -0.545   1.864  -0.873  0.00  0.00     0.035 H 
ATOM     21  H3  <0> d          -0.529   1.854   0.907  0.00  0.00     0.035 H 
ENDBRANCH   1  18
TORSDOF 1
