REMARK  5 active torsions:
REMARK  status: ('A' for Active; 'I' for Inactive)
REMARK    1  A    between atoms: C1_1  and  C2_2 
REMARK    2  A    between atoms: C2_2  and  O3_10 
REMARK    3  A    between atoms: C5_5  and  O2_8 
REMARK    4  A    between atoms: O2_8  and  C6_9 
REMARK    5  A    between atoms: O3_10  and  C7_11 
ROOT
ATOM      1  C2  <0> d           0.002  -0.004   0.002  0.00  0.00     0.163 C 
ATOM      2  C3  <0> d           0.785  -0.524  -1.229  0.00  0.00    -0.009 C 
ATOM      3  C4  <0> d           1.233  -1.923  -0.725  0.00  0.00    -0.014 C 
ATOM      4  C5  <0> d           1.465  -1.670   0.781  0.00  0.00     0.134 C 
ATOM      5  H1  <0> d           2.526  -1.508   0.969  0.00  0.00     0.129 H 
ATOM      6  O1  <0> d           0.723  -0.499   1.142  0.00  0.00    -0.326 OA
ATOM      7  H5  <0> d           0.136  -0.610  -2.100  0.00  0.00     0.041 H 
ATOM      8  H6  <0> d           1.646   0.109  -1.444  0.00  0.00     0.041 H 
ATOM      9  H7  <0> d           0.445  -2.661  -0.877  0.00  0.00     0.040 H 
ATOM     10  H8  <0> d           2.156  -2.235  -1.212  0.00  0.00     0.040 H 
ENDROOT
BRANCH   1  11
ATOM     11  C1  <0> d          -0.019   1.526   0.010  0.00  0.00    -0.025 C 
ATOM     12  H2  <0> d           1.004   1.903   0.003  0.00  0.00     0.035 H 
ATOM     13  H3  <0> d          -0.546   1.887  -0.873  0.00  0.00     0.035 H 
ATOM     14  H4  <0> d          -0.529   1.877   0.907  0.00  0.00     0.035 H 
ENDBRANCH   1  11
BRANCH   1  15
ATOM     15  O3  <0> d          -1.331  -0.517  -0.003  0.00  0.00    -0.360 OA
BRANCH  15  16
ATOM     16  C7  <0> d          -2.115  -0.110   1.121  0.00  0.00     0.007 C 
ATOM     17  H12 <0> d          -1.641  -0.456   2.039  0.00  0.00     0.066 H 
ATOM     18  H13 <0> d          -2.189   0.977   1.137  0.00  0.00     0.066 H 
ATOM     19  H14 <0> d          -3.113  -0.541   1.043  0.00  0.00     0.066 H 
ENDBRANCH  15  16
ENDBRANCH   1  15
BRANCH   4  20
ATOM     20  O2  <0> d           1.004  -2.791   1.538  0.00  0.00    -0.366 OA
BRANCH  20  21
ATOM     21  C6  <0> d           1.279  -2.699   2.937  0.00  0.00     0.007 C 
ATOM     22  H9  <0> d           2.355  -2.627   3.092  0.00  0.00     0.066 H 
ATOM     23  H10 <0> d           0.792  -1.814   3.346  0.00  0.00     0.066 H 
ATOM     24  H11 <0> d           0.898  -3.588   3.441  0.00  0.00     0.066 H 
ENDBRANCH  20  21
ENDBRANCH   4  20
TORSDOF 5
