REMARK  3 active torsions:
REMARK  status: ('A' for Active; 'I' for Inactive)
REMARK    1  A    between atoms: C1_1  and  O1_2 
REMARK    2  A    between atoms: O1_2  and  C2_3 
REMARK    3  A    between atoms: C6_7  and  N1_10 
ROOT
ATOM      1  C2  <0> d          -3.636   1.621   0.028  0.00  0.00     0.109 A 
ATOM      2  C3  <0> d          -3.650   3.008   0.036  0.00  0.00    -0.045 A 
ATOM      3  C4  <0> d          -2.461   3.714   0.034  0.00  0.00    -0.041 A 
ATOM      4  C5  <0> d          -1.253   3.039   0.030  0.00  0.00     0.145 A 
ATOM      5  C6  <0> d          -1.233   1.649   0.017  0.00  0.00     0.106 A 
ATOM      6  C7  <0> d          -2.427   0.940   0.019  0.00  0.00     0.178 A 
ATOM      7  F1  <0> d          -2.412  -0.411   0.012  0.00  0.00    -0.201 F 
ATOM      8  F2  <0> d          -0.093   3.732   0.034  0.00  0.00    -0.204 F 
ATOM      9  H4  <0> d          -4.591   3.538   0.043  0.00  0.00     0.088 H 
ATOM     10  H5  <0> d          -2.475   4.794   0.041  0.00  0.00     0.088 H 
ENDROOT
BRANCH   1  11
ATOM     11  O1  <0> d          -4.806   0.929   0.029  0.00  0.00    -0.353 OA
BRANCH  11  12
ATOM     12  C1  <0> d          -6.013   1.695   0.039  0.00  0.00     0.011 C 
ATOM     13  H1  <0> d          -6.048   2.329  -0.847  0.00  0.00     0.066 H 
ATOM     14  H2  <0> d          -6.870   1.022   0.039  0.00  0.00     0.066 H 
ATOM     15  H3  <0> d          -6.040   2.318   0.933  0.00  0.00     0.066 H 
ENDBRANCH  11  12
ENDBRANCH   1  11
BRANCH   5  16
ATOM     16  N1  <0> d          -0.011   0.966   0.007  0.00  0.00    -0.394 N 
ATOM     17  H6  <0> d           0.002  -0.004   0.002  0.00  0.00     0.156 HD
ATOM     18  H7  <0> d           0.822   1.462   0.002  0.00  0.00     0.156 HD
ENDBRANCH   5  16
TORSDOF 3
