REMARK  1 active torsions:
REMARK  status: ('A' for Active; 'I' for Inactive)
REMARK    1  A    between atoms: C2_2  and  N4_9 
ROOT
ATOM      1  C1  <0> d          -1.195   2.884   0.029  0.00  0.00     0.065 A 
ATOM      2  C2  <0> d           0.007   3.630   0.021  0.00  0.00     0.146 A 
ATOM      3  N1  <0> d           1.163   2.975   0.007  0.00  0.00    -0.174 NA
ATOM      4  C3  <0> d           1.153   1.640  -0.000  0.00  0.00     0.364 A 
ATOM      5  O1  <0> d           2.208   1.026  -0.014  0.00  0.00    -0.243 OA
ATOM      6  N2  <0> d          -0.011   0.966   0.007  0.00  0.00    -0.227 N 
ATOM      7  H1  <0> d          -0.010  -0.134   0.006  0.00  0.00     0.194 HD
ATOM      8  N3  <0> d          -1.142   1.580   0.016  0.00  0.00    -0.179 NA
ATOM      9  H2  <0> d          -2.150   3.389   0.041  0.00  0.00     0.123 H 
ENDROOT
BRANCH   2  10
ATOM     10  N4  <0> d          -0.020   5.005   0.029  0.00  0.00    -0.383 N 
ATOM     11  H3  <0> d           0.921   5.574   0.023  0.00  0.00     0.157 HD
ATOM     12  H4  <0> d          -0.984   5.535   0.040  0.00  0.00     0.157 HD
ENDBRANCH   2  10
TORSDOF 1
