REMARK  0 active torsions:
REMARK  status: ('A' for Active; 'I' for Inactive)
ROOT
ATOM      1  C1  <0> d           1.877   2.155  -1.457  0.00  0.00    -0.049 C 
ATOM      2  C2  <0> d           1.458   0.935  -2.283  0.00  0.00    -0.009 C 
ATOM      3  C3  <0> d           1.868  -0.328  -1.554  0.00  0.00     0.131 C 
ATOM      4  O1  <0> d           2.460  -1.220  -2.114  0.00  0.00    -0.298 OA
ATOM      5  C4  <0> d           1.494  -0.415  -0.077  0.00  0.00     0.011 C 
ATOM      6  H1  <0> d           1.721  -1.325   0.271  0.00  0.00     0.052 H 
ATOM      7  C5  <0> d           2.217   0.787   0.595  0.00  0.00    -0.045 C 
ATOM      8  C6  <0> d           1.426   1.980  -0.001  0.00  0.00     0.005 C 
ATOM      9  H2  <0> d           1.562   2.838   0.495  0.00  0.00     0.051 H 
ATOM     10  C7  <0> d          -0.018   1.511   0.010  0.00  0.00     0.131 C 
ATOM     11  O2  <0> d          -1.000   2.214   0.019  0.00  0.00    -0.298 OA
ATOM     12  C8  <0> d           0.002  -0.004   0.002  0.00  0.00     0.000 C 
ATOM     13  H3  <0> d           1.415   3.050  -1.874  0.00  0.00     0.034 H 
ATOM     14  H4  <0> d           2.961   2.260  -1.490  0.00  0.00     0.034 H 
ATOM     15  H5  <0> d           0.466   0.942  -2.408  0.00  0.00     0.044 H 
ATOM     16  H6  <0> d           1.948   0.970  -3.256  0.00  0.00     0.044 H 
ATOM     17  H7  <0> d           2.114   0.751   1.679  0.00  0.00     0.035 H 
ATOM     18  H8  <0> d           3.267   0.827   0.303  0.00  0.00     0.035 H 
ATOM     19  H9  <0> d          -0.404  -0.380   0.835  0.00  0.00     0.045 H 
ATOM     20  H10 <0> d          -0.537  -0.382  -0.867  0.00  0.00     0.045 H 
ENDROOT
TORSDOF 0
