REMARK  5 active torsions:
REMARK  status: ('A' for Active; 'I' for Inactive)
REMARK    1  A    between atoms: C1_1  and  C2_2 
REMARK    2  A    between atoms: C5_5  and  C8_8 
REMARK    3  A    between atoms: C5_5  and  O1_11 
REMARK    4  A    between atoms: C8_8  and  C9_9 
REMARK    5  A    between atoms: C8_8  and  C10_10 
ROOT
ATOM      1  C2  <0> d           3.758   2.963   0.758  0.00  0.00    -0.087 C 
ATOM      2  C3  <0> d           2.788   3.673   0.277  0.00  0.00    -0.098 C 
ATOM      3  C4  <0> d           1.407   3.145   0.016  0.00  0.00    -0.021 C 
ATOM      4  C5  <0> d           1.423   1.615  -0.003  0.00  0.00     0.064 C 
ATOM      5  C6  <0> d           2.165   1.118   1.244  0.00  0.00    -0.032 C 
ATOM      6  C7  <0> d           3.639   1.511   1.118  0.00  0.00    -0.042 C 
ATOM      7  H4  <0> d           2.986   4.709   0.046  0.00  0.00     0.077 H 
ATOM      8  H5  <0> d           1.051   3.515  -0.946  0.00  0.00     0.043 H 
ATOM      9  H6  <0> d           0.736   3.490   0.804  0.00  0.00     0.043 H 
ATOM     10  H7  <0> d           1.737   1.580   2.134  0.00  0.00     0.037 H 
ATOM     11  H8  <0> d           2.080   0.034   1.313  0.00  0.00     0.037 H 
ATOM     12  H9  <0> d           4.143   1.332   2.068  0.00  0.00     0.039 H 
ATOM     13  H10 <0> d           4.109   0.907   0.343  0.00  0.00     0.039 H 
ENDROOT
BRANCH   4  14
ATOM     14  C8  <0> d          -0.013   1.086   0.008  0.00  0.00    -0.031 C 
ATOM     15  H11 <0> d           0.002  -0.004   0.002  0.00  0.00     0.043 H 
BRANCH  14  16
ATOM     16  C9  <0> d          -0.753   1.593  -1.232  0.00  0.00    -0.070 C 
ATOM     17  H12 <0> d          -0.242   1.241  -2.128  0.00  0.00     0.028 H 
ATOM     18  H13 <0> d          -1.775   1.215  -1.224  0.00  0.00     0.028 H 
ATOM     19  H14 <0> d          -0.767   2.683  -1.226  0.00  0.00     0.028 H 
ENDBRANCH  14  16
BRANCH  14  20
ATOM     20  C10 <0> d          -0.729   1.579   1.267  0.00  0.00    -0.070 C 
ATOM     21  H15 <0> d          -0.744   2.669   1.273  0.00  0.00     0.028 H 
ATOM     22  H16 <0> d          -1.751   1.202   1.275  0.00  0.00     0.028 H 
ATOM     23  H17 <0> d          -0.202   1.218   2.150  0.00  0.00     0.028 H 
ENDBRANCH  14  20
ENDBRANCH   4  14
BRANCH   4  24
ATOM     24  O1  <0> d           2.095   1.157  -1.177  0.00  0.00    -0.389 OA
ATOM     25  H18 <0> d           3.012   1.456  -1.248  0.00  0.00     0.210 HD
ENDBRANCH   4  24
BRANCH   1  26
ATOM     26  C1  <0> d           5.089   3.637   0.971  0.00  0.00    -0.055 C 
ATOM     27  H1  <0> d           5.693   3.540   0.069  0.00  0.00     0.033 H 
ATOM     28  H2  <0> d           4.931   4.693   1.190  0.00  0.00     0.033 H 
ATOM     29  H3  <0> d           5.606   3.165   1.807  0.00  0.00     0.033 H 
ENDBRANCH   1  26
TORSDOF 5
