REMARK  5 active torsions:
REMARK  status: ('A' for Active; 'I' for Inactive)
REMARK    1  A    between atoms: C1_1  and  C2_2 
REMARK    2  A    between atoms: C2_2  and  C3_3 
REMARK    3  A    between atoms: C4_4  and  C8_10 
REMARK    4  A    between atoms: C5_5  and  C7_9 
REMARK    5  A    between atoms: C8_10  and  C9_12 
ROOT
ATOM      1  C3  <0> d          -1.412  -0.526   0.013  0.00  0.00     0.023 A 
ATOM      2  C4  <0> d          -2.215  -0.714  -1.096  0.00  0.00     0.039 A 
ATOM      3  C5  <0> d          -3.490  -1.233  -0.585  0.00  0.00    -0.031 A 
ATOM      4  C6  <0> d          -3.358  -1.314   0.750  0.00  0.00    -0.016 A 
ATOM      5  N1  <0> d          -2.109  -0.894   1.102  0.00  0.00    -0.368 N 
ATOM      6  H1  <0> d          -1.771  -0.864   2.011  0.00  0.00     0.165 HD
ATOM      7  H7  <0> d          -4.119  -1.660   1.434  0.00  0.00     0.112 H 
ENDROOT
BRANCH   1   8
ATOM      8  C2  <0> d           0.002  -0.004   0.002  0.00  0.00    -0.029 C 
ATOM      9  H5  <0> d           0.512  -0.356  -0.895  0.00  0.00     0.041 H 
ATOM     10  H6  <0> d           0.529  -0.365   0.885  0.00  0.00     0.041 H 
BRANCH   8  11
ATOM     11  C1  <0> d          -0.019   1.526   0.010  0.00  0.00    -0.071 C 
ATOM     12  H2  <0> d           1.004   1.903   0.003  0.00  0.00     0.028 H 
ATOM     13  H3  <0> d          -0.546   1.887  -0.873  0.00  0.00     0.028 H 
ATOM     14  H4  <0> d          -0.529   1.877   0.907  0.00  0.00     0.028 H 
ENDBRANCH   8  11
ENDBRANCH   1   8
BRANCH   2  15
ATOM     15  C8  <0> d          -1.866  -0.450  -2.494  0.00  0.00     0.158 C 
ATOM     16  O1  <0> d          -0.768  -0.017  -2.774  0.00  0.00    -0.293 OA
BRANCH  15  17
ATOM     17  C9  <0> d          -2.872  -0.714  -3.584  0.00  0.00    -0.017 C 
ATOM     18  H11 <0> d          -3.760  -0.106  -3.415  0.00  0.00     0.038 H 
ATOM     19  H12 <0> d          -2.436  -0.460  -4.550  0.00  0.00     0.038 H 
ATOM     20  H13 <0> d          -3.147  -1.769  -3.577  0.00  0.00     0.038 H 
ENDBRANCH  15  17
ENDBRANCH   2  15
BRANCH   3  21
ATOM     21  C7  <0> d          -4.706  -1.602  -1.396  0.00  0.00    -0.049 C 
ATOM     22  H8  <0> d          -4.645  -2.651  -1.685  0.00  0.00     0.033 H 
ATOM     23  H9  <0> d          -5.604  -1.440  -0.800  0.00  0.00     0.033 H 
ATOM     24  H10 <0> d          -4.748  -0.980  -2.291  0.00  0.00     0.033 H 
ENDBRANCH   3  21
TORSDOF 5
