REMARK  2 active torsions:
REMARK  status: ('A' for Active; 'I' for Inactive)
REMARK    1  A    between atoms: C1_1  and  C2_2 
REMARK    2  A    between atoms: C5_7  and  C7_12 
ROOT
ATOM      1  C2  <0> d           0.002  -0.004   0.002  0.00  0.00     0.058 C 
ATOM      2  H1  <0> d           0.460  -0.396  -0.918  0.00  0.00     0.086 H 
ATOM      3  C3  <0> d           0.742  -0.509   1.241  0.00  0.00     0.043 C 
ATOM      4  O1  <0> d           0.451  -1.897   1.432  0.00  0.00    -0.386 OA
ATOM      5  C4  <0> d           1.122  -2.757   0.505  0.00  0.00     0.043 C 
ATOM      6  C5  <0> d           0.449  -2.648  -0.863  0.00  0.00     0.058 C 
ATOM      7  H2  <0> d           0.677  -1.683  -1.339  0.00  0.00     0.086 H 
ATOM      8  O2  <0> d          -0.969  -2.674  -0.708  0.00  0.00    -0.360 OA
ATOM      9  C6  <0> d          -1.610  -1.437  -1.041  0.00  0.00     0.104 C 
ATOM     10  O3  <0> d          -1.338  -0.497   0.004  0.00  0.00    -0.360 OA
ATOM     11  H6  <0> d           1.825  -0.375   1.101  0.00  0.00     0.078 H 
ATOM     12  H7  <0> d           0.412   0.061   2.122  0.00  0.00     0.078 H 
ATOM     13  H8  <0> d           2.176  -2.454   0.422  0.00  0.00     0.078 H 
ATOM     14  H9  <0> d           1.066  -3.796   0.862  0.00  0.00     0.078 H 
ATOM     15  H10 <0> d          -1.214  -1.065  -1.997  0.00  0.00     0.117 H 
ATOM     16  H11 <0> d          -2.694  -1.599  -1.131  0.00  0.00     0.117 H 
ENDROOT
BRANCH   1  17
ATOM     17  C1  <0> d          -0.019   1.526   0.010  0.00  0.00    -0.050 C 
ATOM     18  H3  <0> d           1.013   1.907   0.009  0.00  0.00     0.031 H 
ATOM     19  H4  <0> d          -0.539   1.881   0.912  0.00  0.00     0.031 H 
ATOM     20  H5  <0> d          -0.545   1.890  -0.884  0.00  0.00     0.031 H 
ENDBRANCH   1  17
BRANCH   6  21
ATOM     21  C7  <0> d           0.887  -3.824  -1.739  0.00  0.00    -0.050 C 
ATOM     22  H12 <0> d           0.403  -3.747  -2.724  0.00  0.00     0.031 H 
ATOM     23  H13 <0> d           0.592  -4.769  -1.259  0.00  0.00     0.031 H 
ATOM     24  H14 <0> d           1.979  -3.801  -1.865  0.00  0.00     0.031 H 
ENDBRANCH   6  21
TORSDOF 2
