REMARK  1 active torsions:
REMARK  status: ('A' for Active; 'I' for Inactive)
REMARK    1  A    between atoms: C7_7  and  O1_11 
ROOT
ATOM      1  C1  <0> d          -0.016   1.361   0.009  0.00  0.00    -0.082 A 
ATOM      2  C2  <0> d           1.170   2.085   0.002  0.00  0.00    -0.081 A 
ATOM      3  C3  <0> d           2.378   1.448  -0.013  0.00  0.00    -0.055 A 
ATOM      4  C4  <0> d           2.428   0.056  -0.021  0.00  0.00     0.064 A 
ATOM      5  C5  <0> d           1.227  -0.679  -0.013  0.00  0.00     0.046 A 
ATOM      6  C6  <0> d           0.002  -0.004   0.002  0.00  0.00    -0.067 A 
ATOM      7  C7  <0> d           1.609  -2.091  -0.025  0.00  0.00     0.194 A 
ATOM      8  N1  <0> d           2.913  -2.148  -0.038  0.00  0.00    -0.148 NA
ATOM      9  N2  <0> d           3.450  -0.857  -0.036  0.00  0.00    -0.275 N 
ATOM     10  H1  <0> d           4.396  -0.641  -0.045  0.00  0.00     0.189 HD
ATOM     11  H2  <0> d          -0.962   1.883   0.026  0.00  0.00     0.083 H 
ATOM     12  H3  <0> d           1.136   3.164   0.008  0.00  0.00     0.083 H 
ATOM     13  H4  <0> d           3.292   2.022  -0.020  0.00  0.00     0.087 H 
ATOM     14  H5  <0> d          -0.924  -0.560   0.007  0.00  0.00     0.085 H 
ENDROOT
BRANCH   7  15
ATOM     15  O1  <0> d           0.759  -3.152  -0.022  0.00  0.00    -0.343 OA
ATOM     16  H6  <0> d           0.505  -3.454  -0.904  0.00  0.00     0.219 HD
ENDBRANCH   7  15
TORSDOF 1
