REMARK  2 active torsions:
REMARK  status: ('A' for Active; 'I' for Inactive)
REMARK    1  A    between atoms: C4_7  and  N6_12 
REMARK    2  A    between atoms: C5_9  and  N5_11 
ROOT
ATOM      1  C1  <0> d          -0.016   1.297   0.009  0.00  0.00     0.066 A 
ATOM      2  N1  <0> d           1.260   1.780  -0.000  0.00  0.00    -0.333 N 
ATOM      3  H1  <0> d           1.520   2.714   0.002  0.00  0.00     0.168 HD
ATOM      4  C2  <0> d           2.108   0.701  -0.014  0.00  0.00     0.180 A 
ATOM      5  C3  <0> d           1.286  -0.438  -0.013  0.00  0.00     0.150 A 
ATOM      6  N2  <0> d           0.002  -0.004   0.002  0.00  0.00    -0.236 NA
ATOM      7  C4  <0> d           1.900  -1.702  -0.025  0.00  0.00     0.173 A 
ATOM      8  N3  <0> d           3.227  -1.764  -0.037  0.00  0.00    -0.043 NA
ATOM      9  C5  <0> d           3.965  -0.662  -0.039  0.00  0.00     0.724 A 
ATOM     10  N4  <0> d           3.429   0.548  -0.028  0.00  0.00    -0.043 NA
ATOM     11  H2  <0> d          -0.908   1.904   0.025  0.00  0.00     0.143 H 
ENDROOT
BRANCH   7  12
ATOM     12  N6  <0> d           1.139  -2.857  -0.023  0.00  0.00    -0.381 N 
ATOM     13  H5  <0> d           0.171  -2.800  -0.014  0.00  0.00     0.157 HD
ATOM     14  H6  <0> d           1.573  -3.725  -0.032  0.00  0.00     0.157 HD
ENDBRANCH   7  12
BRANCH   9  15
ATOM     15  N5  <0> d           5.345  -0.781  -0.052  0.00  0.00    -0.231 N 
ATOM     16  H3  <0> d           5.756  -1.659  -0.060  0.00  0.00     0.174 HD
ATOM     17  H4  <0> d           5.901   0.014  -0.053  0.00  0.00     0.174 HD
ENDBRANCH   9  15
TORSDOF 2
