REMARK  3 active torsions:
REMARK  status: ('A' for Active; 'I' for Inactive)
REMARK    1  A    between atoms: C1_1  and  C2_2 
REMARK    2  A    between atoms: N1_6  and  C6_9 
REMARK    3  A    between atoms: N2_7  and  C5_8 
ROOT
ATOM      1  C2  <0> d           1.068   1.882   0.002  0.00  0.00     0.029 A 
ATOM      2  C3  <0> d          -0.013   1.076   0.008  0.00  0.00     0.007 A 
ATOM      3  C4  <0> d          -1.169   1.891   0.017  0.00  0.00     0.263 A 
ATOM      4  O1  <0> d          -2.323   1.502   0.020  0.00  0.00    -0.267 OA
ATOM      5  N1  <0> d          -0.762   3.177   0.026  0.00  0.00    -0.260 N 
ATOM      6  N2  <0> d           0.639   3.179   0.013  0.00  0.00    -0.296 N 
ATOM      7  H4  <0> d           0.002  -0.004   0.002  0.00  0.00     0.095 H 
ENDROOT
BRANCH   1   8
ATOM      8  C1  <0> d           2.505   1.429  -0.014  0.00  0.00    -0.036 C 
ATOM      9  H1  <0> d           2.543   0.340  -0.020  0.00  0.00     0.035 H 
ATOM     10  H2  <0> d           2.998   1.815  -0.907  0.00  0.00     0.035 H 
ATOM     11  H3  <0> d           3.015   1.806   0.873  0.00  0.00     0.035 H 
ENDBRANCH   1   8
BRANCH   6  12
ATOM     12  C5  <0> d           1.496   4.367   0.011  0.00  0.00     0.001 C 
ATOM     13  H5  <0> d           1.699   4.667  -1.018  0.00  0.00     0.059 H 
ATOM     14  H6  <0> d           0.992   5.180   0.533  0.00  0.00     0.059 H 
ATOM     15  H7  <0> d           2.436   4.139   0.514  0.00  0.00     0.059 H 
ENDBRANCH   6  12
BRANCH   5  16
ATOM     16  C6  <0> d          -1.628   4.358   0.040  0.00  0.00     0.004 C 
ATOM     17  H8  <0> d          -1.853   4.656  -0.985  0.00  0.00     0.059 H 
ATOM     18  H9  <0> d          -2.556   4.122   0.561  0.00  0.00     0.059 H 
ATOM     19  H10 <0> d          -1.121   5.175   0.553  0.00  0.00     0.059 H 
ENDBRANCH   5  16
TORSDOF 3
