REMARK  3 active torsions:
REMARK  status: ('A' for Active; 'I' for Inactive)
REMARK    1  A    between atoms: C1_1  and  C2_2 
REMARK    2  A    between atoms: C6_7  and  C8_11 
REMARK    3  A    between atoms: C7_9  and  O1_10 
ROOT
ATOM      1  C2  <0> d          -0.729   1.579   1.267  0.00  0.00    -0.032 C 
ATOM      2  H1  <0> d          -0.202   1.218   2.150  0.00  0.00     0.043 H 
ATOM      3  C3  <0> d          -2.164   1.050   1.278  0.00  0.00    -0.060 C 
ATOM      4  C4  <0> d          -2.904   1.556   0.038  0.00  0.00    -0.064 C 
ATOM      5  C5  <0> d          -2.188   1.063  -1.221  0.00  0.00    -0.060 C 
ATOM      6  C6  <0> d          -0.753   1.593  -1.232  0.00  0.00    -0.032 C 
ATOM      7  H2  <0> d          -0.767   2.683  -1.226  0.00  0.00     0.043 H 
ATOM      8  C7  <0> d          -0.013   1.086   0.008  0.00  0.00     0.042 C 
ATOM      9  H6  <0> d          -2.674   1.401   2.175  0.00  0.00     0.033 H 
ATOM     10  H7  <0> d          -2.149  -0.040   1.272  0.00  0.00     0.033 H 
ATOM     11  H8  <0> d          -2.919   2.646   0.044  0.00  0.00     0.033 H 
ATOM     12  H9  <0> d          -3.927   1.179   0.046  0.00  0.00     0.033 H 
ATOM     13  H10 <0> d          -2.715   1.424  -2.104  0.00  0.00     0.033 H 
ATOM     14  H11 <0> d          -2.173  -0.027  -1.227  0.00  0.00     0.033 H 
ATOM     15  H12 <0> d           0.002  -0.004   0.002  0.00  0.00     0.084 H 
ENDROOT
BRANCH   1  16
ATOM     16  C1  <0> d          -0.750   3.109   1.275  0.00  0.00    -0.071 C 
ATOM     17  H3  <0> d          -1.277   3.470   0.392  0.00  0.00     0.028 H 
ATOM     18  H4  <0> d          -1.260   3.461   2.172  0.00  0.00     0.028 H 
ATOM     19  H5  <0> d           0.273   3.486   1.268  0.00  0.00     0.028 H 
ENDBRANCH   1  16
BRANCH   8  20
ATOM     20  O1  <0> d           1.328   1.580  -0.002  0.00  0.00    -0.395 OA
ATOM     21  H13 <0> d           1.857   1.298   0.756  0.00  0.00     0.210 HD
ENDBRANCH   8  20
BRANCH   6  22
ATOM     22  C8  <0> d          -0.037   1.099  -2.490  0.00  0.00    -0.071 C 
ATOM     23  H14 <0> d          -0.022   0.009  -2.496  0.00  0.00     0.028 H 
ATOM     24  H15 <0> d          -0.564   1.460  -3.373  0.00  0.00     0.028 H 
ATOM     25  H16 <0> d           0.986   1.476  -2.498  0.00  0.00     0.028 H 
ENDBRANCH   6  22
TORSDOF 3
