REMARK  0 active torsions:
REMARK  status: ('A' for Active; 'I' for Inactive)
ROOT
ATOM      1  C1  <0> d          -2.161   1.050   1.277  0.00  0.00    -0.064 C 
ATOM      2  C2  <0> d          -0.726   1.578   1.269  0.00  0.00    -0.063 C 
ATOM      3  C3  <0> d          -0.013   1.086   0.008  0.00  0.00    -0.040 C 
ATOM      4  C4  <0> d          -0.748   1.590  -1.231  0.00  0.00     0.046 C 
ATOM      5  H1  <0> d          -0.243   1.222  -2.124  0.00  0.00     0.084 H 
ATOM      6  C5  <0> d          -2.196   1.091  -1.225  0.00  0.00    -0.008 C 
ATOM      7  H2  <0> d          -2.215   0.003  -1.278  0.00  0.00     0.047 H 
ATOM      8  C6  <0> d          -2.899   1.576   0.045  0.00  0.00    -0.058 C 
ATOM      9  C7  <0> d          -2.912   1.675  -2.451  0.00  0.00     0.028 C 
ATOM     10  O1  <0> d          -2.793   3.100  -2.400  0.00  0.00    -0.366 OA
ATOM     11  C8  <0> d          -1.443   3.570  -2.379  0.00  0.00     0.103 C 
ATOM     12  O2  <0> d          -0.759   3.019  -1.250  0.00  0.00    -0.361 OA
ATOM     13  H3  <0> d          -2.669   1.391   2.179  0.00  0.00     0.033 H 
ATOM     14  H4  <0> d          -2.149  -0.040   1.256  0.00  0.00     0.033 H 
ATOM     15  H5  <0> d          -0.200   1.211   2.151  0.00  0.00     0.033 H 
ATOM     16  H6  <0> d          -0.738   2.668   1.278  0.00  0.00     0.033 H 
ATOM     17  H7  <0> d           0.002  -0.004   0.002  0.00  0.00     0.036 H 
ATOM     18  H8  <0> d           1.010   1.462   0.000  0.00  0.00     0.036 H 
ATOM     19  H9  <0> d          -2.904   2.666   0.064  0.00  0.00     0.033 H 
ATOM     20  H10 <0> d          -3.926   1.210   0.054  0.00  0.00     0.033 H 
ATOM     21  H11 <0> d          -3.965   1.395  -2.426  0.00  0.00     0.075 H 
ATOM     22  H12 <0> d          -2.453   1.302  -3.366  0.00  0.00     0.075 H 
ATOM     23  H13 <0> d          -1.439   4.658  -2.311  0.00  0.00     0.117 H 
ATOM     24  H14 <0> d          -0.938   3.263  -3.295  0.00  0.00     0.117 H 
ENDROOT
TORSDOF 0
