REMARK  5 active torsions:
REMARK  status: ('A' for Active; 'I' for Inactive)
REMARK    1  A    between atoms: C1_1  and  C2_2 
REMARK    2  A    between atoms: C4_4  and  O1_10 
REMARK    3  A    between atoms: C5_6  and  N3_8 
REMARK    4  A    between atoms: N3_8  and  C6_9 
REMARK    5  A    between atoms: O1_10  and  C7_11 
ROOT
ATOM      1  C2  <0> d          -0.403   1.360   4.756  0.00  0.00     0.054 A 
ATOM      2  C3  <0> d           0.731   0.581   4.891  0.00  0.00    -0.007 A 
ATOM      3  C4  <0> d           1.375   0.137   3.737  0.00  0.00     0.184 A 
ATOM      4  N1  <0> d           0.880   0.475   2.552  0.00  0.00    -0.039 NA
ATOM      5  C5  <0> d          -0.209   1.224   2.464  0.00  0.00     0.724 A 
ATOM      6  N2  <0> d          -0.839   1.664   3.543  0.00  0.00    -0.068 NA
ATOM      7  H4  <0> d           1.109   0.322   5.869  0.00  0.00     0.093 H 
ENDROOT
BRANCH   5   8
ATOM      8  N3  <0> d          -0.698   1.558   1.213  0.00  0.00    -0.227 N 
ATOM      9  H5  <0> d          -1.495   2.106   1.135  0.00  0.00     0.177 HD
BRANCH   8  10
ATOM     10  C6  <0> d          -0.013   1.086   0.008  0.00  0.00    -0.005 C 
ATOM     11  H6  <0> d           0.002  -0.004   0.002  0.00  0.00     0.057 H 
ATOM     12  H7  <0> d           1.010   1.463   0.000  0.00  0.00     0.057 H 
ATOM     13  H8  <0> d          -0.540   1.447  -0.875  0.00  0.00     0.057 H 
ENDBRANCH   8  10
ENDBRANCH   5   8
BRANCH   3  14
ATOM     14  O1  <0> d           2.490  -0.628   3.823  0.00  0.00    -0.339 OA
BRANCH  14  15
ATOM     15  C7  <0> d           3.090  -1.041   2.594  0.00  0.00     0.012 C 
ATOM     16  H9  <0> d           3.971  -1.646   2.805  0.00  0.00     0.067 H 
ATOM     17  H10 <0> d           2.374  -1.630   2.020  0.00  0.00     0.067 H 
ATOM     18  H11 <0> d           3.381  -0.162   2.019  0.00  0.00     0.067 H 
ENDBRANCH  14  15
ENDBRANCH   3  14
BRANCH   1  19
ATOM     19  C1  <0> d          -1.132   1.862   5.976  0.00  0.00    -0.035 C 
ATOM     20  H1  <0> d          -0.726   2.830   6.269  0.00  0.00     0.035 H 
ATOM     21  H2  <0> d          -2.192   1.967   5.748  0.00  0.00     0.035 H 
ATOM     22  H3  <0> d          -1.004   1.153   6.793  0.00  0.00     0.035 H 
ENDBRANCH   1  19
TORSDOF 5
