REMARK  2 active torsions:
REMARK  status: ('A' for Active; 'I' for Inactive)
REMARK    1  A    between atoms: C1_1  and  C2_2 
REMARK    2  A    between atoms: C4_4  and  C7_9 
ROOT
ATOM      1  C2  <0> d           2.390   0.015  -0.021  0.00  0.00    -0.057 A 
ATOM      2  C3  <0> d           1.198  -0.695  -0.013  0.00  0.00    -0.054 A 
ATOM      3  C4  <0> d           0.002  -0.004   0.002  0.00  0.00     0.033 A 
ATOM      4  N1  <0> d          -0.016   1.315   0.009  0.00  0.00    -0.242 NA
ATOM      5  C5  <0> d           1.097   2.023   0.003  0.00  0.00     0.126 A 
ATOM      6  C6  <0> d           2.333   1.400  -0.013  0.00  0.00    -0.038 A 
ATOM      7 Cl1  <0> d           1.011   3.757   0.012  0.00  0.00    -0.062 Cl
ATOM      8  H4  <0> d           1.206  -1.775  -0.019  0.00  0.00     0.087 H 
ATOM      9  H5  <0> d           3.240   1.985  -0.019  0.00  0.00     0.089 H 
ENDROOT
BRANCH   1  10
ATOM     10  C1  <0> d           3.715  -0.702  -0.038  0.00  0.00    -0.051 C 
ATOM     11  H1  <0> d           4.025  -0.869  -1.069  0.00  0.00     0.033 H 
ATOM     12  H2  <0> d           4.463  -0.095   0.472  0.00  0.00     0.033 H 
ATOM     13  H3  <0> d           3.616  -1.660   0.472  0.00  0.00     0.033 H 
ENDBRANCH   1  10
BRANCH   3  14
ATOM     14  C7  <0> d          -1.298  -0.766   0.011  0.00  0.00    -0.035 C 
ATOM     15  H6  <0> d          -1.621  -0.945  -1.015  0.00  0.00     0.035 H 
ATOM     16  H7  <0> d          -1.156  -1.721   0.518  0.00  0.00     0.035 H 
ATOM     17  H8  <0> d          -2.056  -0.185   0.535  0.00  0.00     0.035 H 
ENDBRANCH   3  14
TORSDOF 2
