REMARK  2 active torsions:
REMARK  status: ('A' for Active; 'I' for Inactive)
REMARK    1  A    between atoms: C3_3  and  N2_11 
REMARK    2  A    between atoms: C6_6  and  C7_7 
ROOT
ATOM      1  C7  <0> d          -2.556   3.865   0.045  0.00  0.00     0.038 C 
ATOM      2  C8  <0> d          -2.998   4.110  -1.338  0.00  0.00     0.063 C 
ATOM      3  N1  <0> d          -3.338   4.299  -2.405  0.00  0.00    -0.197 NA
ATOM      4  H4  <0> d          -3.302   3.261   0.562  0.00  0.00     0.062 H 
ATOM      5  H5  <0> d          -2.437   4.817   0.562  0.00  0.00     0.062 H 
ENDROOT
BRANCH   1   6
ATOM      6  C6  <0> d          -1.239   3.133   0.029  0.00  0.00    -0.042 A 
ATOM      7  C1  <0> d          -1.218   1.751   0.017  0.00  0.00    -0.074 A 
ATOM      8  C2  <0> d          -0.013   1.076   0.008  0.00  0.00    -0.054 A 
ATOM      9  H1  <0> d          -2.146   1.198   0.019  0.00  0.00     0.084 H 
ATOM     10  C3  <0> d           1.179   1.787   0.000  0.00  0.00     0.064 A 
ATOM     11  H2  <0> d           0.002  -0.004   0.002  0.00  0.00     0.087 H 
ATOM     12  C4  <0> d           1.156   3.178   0.008  0.00  0.00     0.143 A 
ATOM     13  C5  <0> d          -0.054   3.846   0.022  0.00  0.00    -0.036 A 
ATOM     14  F1  <0> d           2.314   3.874  -0.000  0.00  0.00    -0.204 F 
ATOM     15  H3  <0> d          -0.073   4.926   0.028  0.00  0.00     0.089 H 
BRANCH  10  16
ATOM     16  N2  <0> d           2.401   1.106  -0.015  0.00  0.00    -0.397 N 
ATOM     17  H6  <0> d           2.416   0.136  -0.020  0.00  0.00     0.156 HD
ATOM     18  H7  <0> d           3.234   1.604  -0.020  0.00  0.00     0.156 HD
ENDBRANCH  10  16
ENDBRANCH   1   6
TORSDOF 2
