REMARK  4 active torsions:
REMARK  status: ('A' for Active; 'I' for Inactive)
REMARK    1  A    between atoms: C1_1  and  O1_2 
REMARK    2  A    between atoms: O1_2  and  C2_3 
REMARK    3  A    between atoms: C5_7  and  O3_10 
REMARK    4  A    between atoms: O3_10  and  C6_11 
ROOT
ATOM      1  C2  <0> d          -0.013   1.086   0.008  0.00  0.00     0.133 C 
ATOM      2  H1  <0> d           0.002  -0.004   0.002  0.00  0.00     0.129 H 
ATOM      3  C3  <0> d           1.432   1.629  -0.003  0.00  0.00    -0.015 C 
ATOM      4  C4  <0> d           1.651   1.955  -1.506  0.00  0.00    -0.015 C 
ATOM      5  C5  <0> d           0.228   2.410  -1.917  0.00  0.00     0.133 C 
ATOM      6  H2  <0> d           0.074   3.456  -1.652  0.00  0.00     0.129 H 
ATOM      7  O2  <0> d          -0.666   1.569  -1.171  0.00  0.00    -0.332 OA
ATOM      8  H6  <0> d           1.512   2.530   0.605  0.00  0.00     0.040 H 
ATOM      9  H7  <0> d           2.135   0.868   0.335  0.00  0.00     0.040 H 
ATOM     10  H8  <0> d           2.373   2.761  -1.632  0.00  0.00     0.040 H 
ATOM     11  H9  <0> d           1.955   1.067  -2.060  0.00  0.00     0.040 H 
ENDROOT
BRANCH   1  12
ATOM     12  O1  <0> d          -0.698   1.555   1.171  0.00  0.00    -0.366 OA
BRANCH  12  13
ATOM     13  C1  <0> d          -1.966   0.933   1.389  0.00  0.00     0.007 C 
ATOM     14  H3  <0> d          -2.422   1.343   2.290  0.00  0.00     0.066 H 
ATOM     15  H4  <0> d          -2.615   1.122   0.534  0.00  0.00     0.066 H 
ATOM     16  H5  <0> d          -1.828  -0.142   1.508  0.00  0.00     0.066 H 
ENDBRANCH  12  13
ENDBRANCH   1  12
BRANCH   5  17
ATOM     17  O3  <0> d           0.034   2.223  -3.321  0.00  0.00    -0.366 OA
BRANCH  17  18
ATOM     18  C6  <0> d          -1.161   2.821  -3.828  0.00  0.00     0.007 C 
ATOM     19  H10 <0> d          -1.235   2.634  -4.899  0.00  0.00     0.066 H 
ATOM     20  H11 <0> d          -2.025   2.390  -3.323  0.00  0.00     0.066 H 
ATOM     21  H12 <0> d          -1.133   3.896  -3.648  0.00  0.00     0.066 H 
ENDBRANCH  17  18
ENDBRANCH   5  17
TORSDOF 4
