REMARK  0 active torsions:
REMARK  status: ('A' for Active; 'I' for Inactive)
ROOT
ATOM      1  C1  <0> d          -0.016   1.313   0.009  0.00  0.00     0.065 A 
ATOM      2  N1  <0> d           0.002  -0.004   0.002  0.00  0.00    -0.152 NA
ATOM      3  N2  <0> d           1.114  -0.604  -0.012  0.00  0.00    -0.114 NA
ATOM      4  C2  <0> d           2.258   0.050  -0.019  0.00  0.00     0.263 A 
ATOM      5  S1  <0> d           1.739   1.654  -0.006  0.00  0.00    -0.031 SA
ATOM      6  O1  <0> d           3.522  -0.440  -0.034  0.00  0.00    -0.160 OA
ATOM      7  H1  <0> d          -0.854   1.995   0.017  0.00  0.00     0.129 H 
ENDROOT
TORSDOF 0
