REMARK  1 active torsions:
REMARK  status: ('A' for Active; 'I' for Inactive)
REMARK    1  A    between atoms: C1_1  and  C2_2 
ROOT
ATOM      1  C2  <0> d           0.002  -0.004   0.002  0.00  0.00    -0.008 A 
ATOM      2  C3  <0> d           0.006  -0.717  -1.200  0.00  0.00     0.020 A 
ATOM      3  C4  <0> d          -0.006  -0.337  -2.613  0.00  0.00    -0.054 A 
ATOM      4  C5  <0> d           0.006  -1.476  -3.323  0.00  0.00    -0.020 A 
ATOM      5  N1  <0> d           0.025  -2.553  -2.477  0.00  0.00    -0.350 N 
ATOM      6  H1  <0> d           0.037  -3.481  -2.759  0.00  0.00     0.166 HD
ATOM      7  C6  <0> d           0.026  -2.124  -1.171  0.00  0.00     0.138 A 
ATOM      8  N2  <0> d           0.041  -2.761  -0.007  0.00  0.00    -0.239 NA
ATOM      9  C7  <0> d           0.038  -2.111   1.137  0.00  0.00     0.042 A 
ATOM     10  C8  <0> d           0.023  -0.723   1.184  0.00  0.00     0.140 A 
ATOM     11  F1  <0> d           0.026  -0.081   2.373  0.00  0.00    -0.204 F 
ATOM     12  H5  <0> d          -0.022   0.668  -3.009  0.00  0.00     0.087 H 
ATOM     13  H6  <0> d           0.001  -1.535  -4.402  0.00  0.00     0.111 H 
ATOM     14  H7  <0> d           0.050  -2.669   2.061  0.00  0.00     0.119 H 
ENDROOT
BRANCH   1  15
ATOM     15  C1  <0> d          -0.018   1.503   0.010  0.00  0.00    -0.047 C 
ATOM     16  H2  <0> d           1.004   1.880   0.003  0.00  0.00     0.033 H 
ATOM     17  H3  <0> d          -0.545   1.864  -0.873  0.00  0.00     0.033 H 
ATOM     18  H4  <0> d          -0.529   1.854   0.907  0.00  0.00     0.033 H 
ENDBRANCH   1  15
TORSDOF 1
