REMARK  2 active torsions:
REMARK  status: ('A' for Active; 'I' for Inactive)
REMARK    1  A    between atoms: C1_1  and  C2_2 
REMARK    2  A    between atoms: C5_6  and  N3_8 
ROOT
ATOM      1  C2  <0> d          -0.718   1.572   1.248  0.00  0.00     0.051 A 
ATOM      2  C3  <0> d          -0.005   1.809   2.413  0.00  0.00    -0.041 A 
ATOM      3  C4  <0> d          -0.693   2.256   3.531  0.00  0.00     0.023 A 
ATOM      4  N1  <0> d          -2.000   2.442   3.453  0.00  0.00    -0.075 NA
ATOM      5  C5  <0> d          -2.651   2.205   2.324  0.00  0.00     0.720 A 
ATOM      6  N2  <0> d          -2.024   1.782   1.236  0.00  0.00    -0.068 NA
ATOM      7  H4  <0> d           1.062   1.649   2.449  0.00  0.00     0.088 H 
ATOM      8  H5  <0> d          -0.167   2.450   4.454  0.00  0.00     0.115 H 
ENDROOT
BRANCH   1   9
ATOM      9  C1  <0> d          -0.013   1.086   0.008  0.00  0.00    -0.035 C 
ATOM     10  H1  <0> d           0.002  -0.004   0.002  0.00  0.00     0.035 H 
ATOM     11  H2  <0> d           1.010   1.463   0.000  0.00  0.00     0.035 H 
ATOM     12  H3  <0> d          -0.540   1.447  -0.875  0.00  0.00     0.035 H 
ENDBRANCH   1   9
BRANCH   5  13
ATOM     13  N3  <0> d          -4.019   2.411   2.277  0.00  0.00    -0.231 N 
ATOM     14  H6  <0> d          -4.490   2.724   3.066  0.00  0.00     0.174 HD
ATOM     15  H7  <0> d          -4.508   2.242   1.456  0.00  0.00     0.174 HD
ENDBRANCH   5  13
TORSDOF 2
