REMARK  3 active torsions:
REMARK  status: ('A' for Active; 'I' for Inactive)
REMARK    1  A    between atoms: C1_1  and  C2_2 
REMARK    2  A    between atoms: C2_2  and  C3_4 
REMARK    3  A    between atoms: C2_2  and  O1_12 
ROOT
ATOM      1  C3  <0> d          -0.050   3.843   0.023  0.00  0.00     0.047 A 
ATOM      2  C4  <0> d           1.158   3.167   0.008  0.00  0.00     0.128 A 
ATOM      3  C5  <0> d           1.175   1.783   0.000  0.00  0.00    -0.045 A 
ATOM      4  C6  <0> d          -0.013   1.076   0.008  0.00  0.00    -0.077 A 
ATOM      5  C7  <0> d          -1.219   1.750   0.017  0.00  0.00    -0.045 A 
ATOM      6  C8  <0> d          -1.239   3.135   0.030  0.00  0.00     0.128 A 
ATOM      7  F1  <0> d          -2.418   3.793   0.044  0.00  0.00    -0.205 F 
ATOM      8  F2  <0> d           2.319   3.858   0.002  0.00  0.00    -0.205 F 
ATOM      9  H5  <0> d           2.117   1.255  -0.011  0.00  0.00     0.088 H 
ATOM     10  H6  <0> d           0.002  -0.004   0.002  0.00  0.00     0.083 H 
ATOM     11  H7  <0> d          -2.147   1.197   0.019  0.00  0.00     0.088 H 
ENDROOT
BRANCH   1  12
ATOM     12  C2  <0> d          -0.070   5.350   0.032  0.00  0.00     0.063 C 
ATOM     13  H1  <0> d           0.915   5.729  -0.241  0.00  0.00     0.090 H 
BRANCH  12  14
ATOM     14  C1  <0> d          -0.438   5.847   1.431  0.00  0.00    -0.048 C 
ATOM     15  H2  <0> d          -1.423   5.469   1.704  0.00  0.00     0.031 H 
ATOM     16  H3  <0> d           0.300   5.490   2.149  0.00  0.00     0.031 H 
ATOM     17  H4  <0> d          -0.453   6.937   1.437  0.00  0.00     0.031 H 
ENDBRANCH  12  14
BRANCH  12  18
ATOM     18  O1  <0> d          -1.038   5.819  -0.910  0.00  0.00    -0.391 OA
ATOM     19  H8  <0> d          -1.106   6.782  -0.958  0.00  0.00     0.210 HD
ENDBRANCH  12  18
ENDBRANCH   1  12
TORSDOF 3
