REMARK  1 active torsions:
REMARK  status: ('A' for Active; 'I' for Inactive)
REMARK    1  A    between atoms: C5_5  and  C7_7 
ROOT
ATOM      1  C7  <0> d           2.498   1.415  -0.015  0.00  0.00     0.040 C 
ATOM      2  C8  <0> d           2.855   1.079  -1.403  0.00  0.00     0.063 C 
ATOM      3  N1  <0> d           3.131   0.820  -2.474  0.00  0.00    -0.197 NA
ATOM      4  H5  <0> d           3.272   2.051   0.416  0.00  0.00     0.062 H 
ATOM      5  H6  <0> d           2.414   0.499   0.570  0.00  0.00     0.062 H 
ENDROOT
BRANCH   1   6
ATOM      6  C5  <0> d           1.180   2.145   0.002  0.00  0.00    -0.024 A 
ATOM      7  C4  <0> d          -0.017   1.428   0.010  0.00  0.00     0.051 A 
ATOM      8  C3  <0> d          -1.234   2.113   0.019  0.00  0.00    -0.062 A 
ATOM      9  C9  <0> d           0.002  -0.004   0.002  0.00  0.00     0.100 C 
ATOM     10  C2  <0> d          -1.246   3.492   0.032  0.00  0.00    -0.082 A 
ATOM     11  H3  <0> d          -2.164   1.564   0.021  0.00  0.00     0.085 H 
ATOM     12  C1  <0> d          -0.055   4.197   0.025  0.00  0.00    -0.082 A 
ATOM     13  H2  <0> d          -2.186   4.023   0.043  0.00  0.00     0.083 H 
ATOM     14  C6  <0> d           1.154   3.525   0.010  0.00  0.00    -0.074 A 
ATOM     15  H1  <0> d          -0.070   5.277   0.030  0.00  0.00     0.083 H 
ATOM     16  H4  <0> d           2.080   4.081   0.004  0.00  0.00     0.084 H 
ATOM     17  N2  <0> d           0.018  -1.140  -0.004  0.00  0.00    -0.191 NA
ENDBRANCH   1   6
TORSDOF 1
