REMARK  0 active torsions:
REMARK  status: ('A' for Active; 'I' for Inactive)
ROOT
ATOM      1  C1  <0> d          -0.016   1.345   0.009  0.00  0.00     0.065 A 
ATOM      2  N1  <0> d           1.208   1.802   0.000  0.00  0.00    -0.236 NA
ATOM      3  C2  <0> d           2.066   0.774  -0.013  0.00  0.00     0.159 A 
ATOM      4  C3  <0> d           1.310  -0.393  -0.013  0.00  0.00     0.138 A 
ATOM      5  N2  <0> d           0.002  -0.004   0.002  0.00  0.00    -0.344 N 
ATOM      6  C4  <0> d           2.003  -1.689  -0.027  0.00  0.00     0.289 A 
ATOM      7  O1  <0> d           1.363  -2.723  -0.027  0.00  0.00    -0.264 OA
ATOM      8  N3  <0> d           3.350  -1.726  -0.041  0.00  0.00    -0.262 N 
ATOM      9  H1  <0> d           3.800  -2.586  -0.050  0.00  0.00     0.190 HD
ATOM     10  N4  <0> d           4.114  -0.557  -0.042  0.00  0.00    -0.262 N 
ATOM     11  C5  <0> d           3.539   0.662  -0.028  0.00  0.00     0.291 A 
ATOM     12  O2  <0> d           4.229   1.663  -0.029  0.00  0.00    -0.264 OA
ATOM     13  H2  <0> d          -0.907   1.954   0.025  0.00  0.00     0.143 H 
ATOM     14  H3  <0> d          -0.771  -0.589   0.006  0.00  0.00     0.167 HD
ATOM     15  H4  <0> d           5.081  -0.624  -0.051  0.00  0.00     0.190 HD
ENDROOT
TORSDOF 0
