REMARK  1 active torsions:
REMARK  status: ('A' for Active; 'I' for Inactive)
REMARK    1  A    between atoms: C1_1  and  C2_2 
ROOT
ATOM      1  C2  <0> d           0.002  -0.004   0.002  0.00  0.00     0.118 A 
ATOM      2  C3  <0> d          -1.251  -0.764   0.004  0.00  0.00     0.275 A 
ATOM      3  N1  <0> d          -1.202  -2.113  -0.004  0.00  0.00    -0.273 N 
ATOM      4  C4  <0> d          -0.013  -2.744  -0.013  0.00  0.00     0.343 A 
ATOM      5  O1  <0> d           0.020  -3.959  -0.019  0.00  0.00    -0.245 OA
ATOM      6  N2  <0> d           1.139  -2.050  -0.015  0.00  0.00    -0.228 N 
ATOM      7  H1  <0> d           1.984  -2.526  -0.022  0.00  0.00     0.194 HD
ATOM      8  N3  <0> d           1.135  -0.650  -0.012  0.00  0.00    -0.170 NA
ATOM      9  O2  <0> d          -2.322  -0.187   0.012  0.00  0.00    -0.266 OA
ATOM     10  H5  <0> d          -2.024  -2.628  -0.002  0.00  0.00     0.173 HD
ENDROOT
BRANCH   1  11
ATOM     11  C1  <0> d          -0.018   1.503   0.010  0.00  0.00    -0.029 C 
ATOM     12  H2  <0> d           1.004   1.880   0.003  0.00  0.00     0.036 H 
ATOM     13  H3  <0> d          -0.545   1.864  -0.873  0.00  0.00     0.036 H 
ATOM     14  H4  <0> d          -0.529   1.854   0.907  0.00  0.00     0.036 H 
ENDBRANCH   1  11
TORSDOF 1
