REMARK  3 active torsions:
REMARK  status: ('A' for Active; 'I' for Inactive)
REMARK    1  A    between atoms: C1_1  and  C2_2 
REMARK    2  A    between atoms: C3_3  and  C6_9 
REMARK    3  A    between atoms: C4_4  and  C5_8 
ROOT
ATOM      1  C2  <0> d           0.002  -0.004   0.002  0.00  0.00     0.036 A 
ATOM      2  C3  <0> d           0.008  -0.805  -1.105  0.00  0.00     0.013 A 
ATOM      3  C4  <0> d           0.029  -2.143  -0.660  0.00  0.00     0.063 A 
ATOM      4  N1  <0> d           0.035  -2.136   0.647  0.00  0.00    -0.179 NA
ATOM      5  N2  <0> d           0.024  -0.806   1.085  0.00  0.00    -0.282 N 
ATOM      6  H1  <0> d           0.029  -0.513   2.010  0.00  0.00     0.189 HD
ENDROOT
BRANCH   2   7
ATOM      7  C6  <0> d          -0.005  -0.352  -2.513  0.00  0.00    -0.078 C 
ATOM      8  C7  <0> d           0.877  -0.839  -3.374  0.00  0.00    -0.120 C 
ATOM      9  H9  <0> d           1.605  -1.567  -3.047  0.00  0.00     0.066 H 
ATOM     10  H10 <0> d           0.868  -0.508  -4.402  0.00  0.00     0.066 H 
ATOM     11  H8  <0> d          -0.733   0.376  -2.839  0.00  0.00     0.083 H 
ENDBRANCH   2   7
BRANCH   1  12
ATOM     12  C1  <0> d          -0.018   1.503   0.010  0.00  0.00    -0.035 C 
ATOM     13  H2  <0> d           1.004   1.880   0.003  0.00  0.00     0.035 H 
ATOM     14  H3  <0> d          -0.545   1.864  -0.873  0.00  0.00     0.035 H 
ATOM     15  H4  <0> d          -0.529   1.854   0.907  0.00  0.00     0.035 H 
ENDBRANCH   1  12
BRANCH   3  16
ATOM     16  C5  <0> d           0.042  -3.368  -1.538  0.00  0.00    -0.033 C 
ATOM     17  H5  <0> d           1.072  -3.649  -1.754  0.00  0.00     0.035 H 
ATOM     18  H6  <0> d          -0.459  -4.189  -1.024  0.00  0.00     0.035 H 
ATOM     19  H7  <0> d          -0.480  -3.152  -2.470  0.00  0.00     0.035 H 
ENDBRANCH   3  16
TORSDOF 3
