REMARK  4 active torsions:
REMARK  status: ('A' for Active; 'I' for Inactive)
REMARK    1  A    between atoms: C1_1  and  C2_2 
REMARK    2  A    between atoms: C4_5  and  C6_8 
REMARK    3  A    between atoms: C4_5  and  C7_9 
REMARK    4  A    between atoms: C7_9  and  O3_10 
ROOT
ATOM      1  C2  <0> d          -2.057   1.142   1.256  0.00  0.00     0.127 C 
ATOM      2  O1  <0> d          -0.686   1.549   1.182  0.00  0.00    -0.361 OA
ATOM      3  C3  <0> d          -0.013   1.086   0.008  0.00  0.00     0.033 C 
ATOM      4  C4  <0> d          -0.758   1.596  -1.230  0.00  0.00     0.020 C 
ATOM      5  C5  <0> d          -2.227   1.170  -1.133  0.00  0.00     0.033 C 
ATOM      6  O2  <0> d          -2.763   1.628   0.112  0.00  0.00    -0.361 OA
ATOM      7  H4  <0> d          -2.111   0.053   1.281  0.00  0.00     0.128 H 
ATOM      8  H5  <0> d           0.002  -0.004   0.002  0.00  0.00     0.075 H 
ATOM      9  H6  <0> d           1.009   1.465   0.000  0.00  0.00     0.075 H 
ATOM     10  H7  <0> d          -2.790   1.611  -1.957  0.00  0.00     0.075 H 
ATOM     11  H8  <0> d          -2.297   0.084  -1.185  0.00  0.00     0.075 H 
ENDROOT
BRANCH   4  12
ATOM     12  C6  <0> d          -0.669   3.122  -1.290  0.00  0.00    -0.063 C 
ATOM     13  H9  <0> d           0.377   3.423  -1.347  0.00  0.00     0.028 H 
ATOM     14  H10 <0> d          -1.200   3.483  -2.171  0.00  0.00     0.028 H 
ATOM     15  H11 <0> d          -1.122   3.547  -0.394  0.00  0.00     0.028 H 
ENDBRANCH   4  12
BRANCH   4  16
ATOM     16  C7  <0> d          -0.130   0.996  -2.490  0.00  0.00     0.027 C 
ATOM     17  H12 <0> d           0.917   1.292  -2.550  0.00  0.00     0.075 H 
ATOM     18  H13 <0> d          -0.198  -0.091  -2.448  0.00  0.00     0.075 H 
BRANCH  16  19
ATOM     19  O3  <0> d          -0.827   1.473  -3.643  0.00  0.00    -0.400 OA
ATOM     20  H14 <0> d          -0.481   1.133  -4.480  0.00  0.00     0.209 HD
ENDBRANCH  16  19
ENDBRANCH   4  16
BRANCH   1  21
ATOM     21  C1  <0> d          -2.690   1.713   2.526  0.00  0.00    -0.031 C 
ATOM     22  H1  <0> d          -3.733   1.403   2.584  0.00  0.00     0.034 H 
ATOM     23  H2  <0> d          -2.152   1.342   3.399  0.00  0.00     0.034 H 
ATOM     24  H3  <0> d          -2.636   2.801   2.502  0.00  0.00     0.034 H 
ENDBRANCH   1  21
TORSDOF 4
