REMARK  2 active torsions:
REMARK  status: ('A' for Active; 'I' for Inactive)
REMARK    1  A    between atoms: C1_1  and  C2_2 
REMARK    2  A    between atoms: C5_7  and  C6_10 
ROOT
ATOM      1  C2  <0> d          -2.227   1.170  -1.133  0.00  0.00     0.040 C 
ATOM      2  H1  <0> d          -2.790   1.611  -1.957  0.00  0.00     0.083 H 
ATOM      3  C3  <0> d          -0.758   1.596  -1.230  0.00  0.00    -0.021 C 
ATOM      4  C4  <0> d          -0.013   1.086   0.008  0.00  0.00     0.025 C 
ATOM      5  O1  <0> d          -0.686   1.549   1.182  0.00  0.00    -0.362 OA
ATOM      6  C5  <0> d          -2.057   1.142   1.256  0.00  0.00     0.128 C 
ATOM      7  H2  <0> d          -2.111   0.053   1.281  0.00  0.00     0.128 H 
ATOM      8  O2  <0> d          -2.763   1.628   0.112  0.00  0.00    -0.357 OA
ATOM      9  H6  <0> d          -0.695   2.683  -1.272  0.00  0.00     0.040 H 
ATOM     10  H7  <0> d          -0.311   1.169  -2.128  0.00  0.00     0.040 H 
ATOM     11  H8  <0> d           0.002  -0.004   0.002  0.00  0.00     0.074 H 
ATOM     12  H9  <0> d           1.009   1.465   0.000  0.00  0.00     0.074 H 
ENDROOT
BRANCH   1  13
ATOM     13  C1  <0> d          -2.325  -0.355  -1.205  0.00  0.00    -0.052 C 
ATOM     14  H3  <0> d          -1.765  -0.794  -0.380  0.00  0.00     0.030 H 
ATOM     15  H4  <0> d          -3.370  -0.656  -1.137  0.00  0.00     0.030 H 
ATOM     16  H5  <0> d          -1.908  -0.702  -2.151  0.00  0.00     0.030 H 
ENDBRANCH   1  13
BRANCH   6  17
ATOM     17  C6  <0> d          -2.690   1.713   2.526  0.00  0.00    -0.031 C 
ATOM     18  H10 <0> d          -3.733   1.403   2.584  0.00  0.00     0.034 H 
ATOM     19  H11 <0> d          -2.152   1.342   3.399  0.00  0.00     0.034 H 
ATOM     20  H12 <0> d          -2.636   2.801   2.502  0.00  0.00     0.034 H 
ENDBRANCH   6  17
TORSDOF 2
