REMARK  0 active torsions:
REMARK  status: ('A' for Active; 'I' for Inactive)
ROOT
ATOM      1  C1  <0> d          -0.016   1.307   0.009  0.00  0.00     0.029 A 
ATOM      2  C2  <0> d           1.208   1.939   0.001  0.00  0.00     0.103 A 
ATOM      3  S1  <0> d           2.304   0.529  -0.017  0.00  0.00    -0.070 SA
ATOM      4  C3  <0> d           1.130  -0.677  -0.012  0.00  0.00     0.041 A 
ATOM      5  N1  <0> d           0.002  -0.004   0.002  0.00  0.00    -0.264 NA
ATOM      6  C4  <0> d           1.516   3.338   0.005  0.00  0.00     0.108 C 
ATOM      7  N2  <0> d           1.760   4.447   0.009  0.00  0.00    -0.191 NA
ATOM      8  H1  <0> d          -0.942   1.862   0.025  0.00  0.00     0.117 H 
ATOM      9  H2  <0> d           1.270  -1.748  -0.020  0.00  0.00     0.126 H 
ENDROOT
TORSDOF 0
