REMARK  1 active torsions:
REMARK  status: ('A' for Active; 'I' for Inactive)
REMARK    1  A    between atoms: C1_1  and  C2_2 
ROOT
ATOM      1  C2  <0> d           0.002  -0.004   0.002  0.00  0.00     0.025 A 
ATOM      2  C3  <0> d           1.272  -0.396  -0.012  0.00  0.00     0.003 A 
ATOM      3  N1  <0> d           2.068   0.740  -0.014  0.00  0.00    -0.317 N 
ATOM      4  H1  <0> d           3.038   0.756  -0.023  0.00  0.00     0.170 HD
ATOM      5  C4  <0> d           1.259   1.817  -0.000  0.00  0.00     0.324 A 
ATOM      6  O1  <0> d           1.618   2.981   0.002  0.00  0.00    -0.247 OA
ATOM      7  N2  <0> d          -0.017   1.383   0.010  0.00  0.00    -0.311 N 
ATOM      8  H2  <0> d          -0.809   1.942   0.017  0.00  0.00     0.170 HD
ATOM      9  H6  <0> d           1.622  -1.417  -0.021  0.00  0.00     0.114 H 
ENDROOT
BRANCH   1  10
ATOM     10  C1  <0> d          -1.204  -0.907   0.009  0.00  0.00    -0.036 C 
ATOM     11  H3  <0> d          -1.505  -1.119  -1.017  0.00  0.00     0.035 H 
ATOM     12  H4  <0> d          -0.957  -1.840   0.515  0.00  0.00     0.035 H 
ATOM     13  H5  <0> d          -2.023  -0.415   0.533  0.00  0.00     0.035 H 
ENDBRANCH   1  10
TORSDOF 1
