REMARK  6 active torsions:
REMARK  status: ('A' for Active; 'I' for Inactive)
REMARK    1  A    between atoms: C1_1  and  C2_2 
REMARK    2  A    between atoms: C2_2  and  C3_3 
REMARK    3  A    between atoms: C3_3  and  C4_4 
REMARK    4  A    between atoms: C5_5  and  C6_6 
REMARK    5  A    between atoms: C6_6  and  C7_7 
REMARK    6  A    between atoms: C7_7  and  O1_8 
ROOT
ATOM      1  C4  <0> d          -0.658   1.577   1.289  0.00  0.00    -0.106 C 
ATOM      2  C5  <0> d          -1.196   0.709   2.110  0.00  0.00    -0.105 C 
ATOM      3  H8  <0> d          -0.738   2.634   1.493  0.00  0.00     0.076 H 
ATOM      4  H9  <0> d          -1.821   1.050   2.923  0.00  0.00     0.076 H 
ENDROOT
BRANCH   1   5
ATOM      5  C3  <0> d           0.070   1.099   0.059  0.00  0.00    -0.050 C 
ATOM      6  H6  <0> d          -0.068   0.024  -0.050  0.00  0.00     0.038 H 
ATOM      7  H7  <0> d           1.133   1.320   0.158  0.00  0.00     0.038 H 
BRANCH   5   8
ATOM      8  C2  <0> d          -0.486   1.814  -1.173  0.00  0.00    -0.066 C 
ATOM      9  H4  <0> d          -1.549   1.593  -1.272  0.00  0.00     0.032 H 
ATOM     10  H5  <0> d          -0.348   2.889  -1.064  0.00  0.00     0.032 H 
BRANCH   8  11
ATOM     11  C1  <0> d           0.254   1.329  -2.422  0.00  0.00    -0.076 C 
ATOM     12  H1  <0> d           1.316   1.550  -2.323  0.00  0.00     0.027 H 
ATOM     13  H2  <0> d           0.115   0.253  -2.531  0.00  0.00     0.027 H 
ATOM     14  H3  <0> d          -0.143   1.838  -3.300  0.00  0.00     0.027 H 
ENDBRANCH   8  11
ENDBRANCH   5   8
ENDBRANCH   1   5
BRANCH   2  15
ATOM     15  C6  <0> d          -0.943  -0.764   1.921  0.00  0.00    -0.030 C 
ATOM     16  H10 <0> d          -1.874  -1.260   1.647  0.00  0.00     0.042 H 
ATOM     17  H11 <0> d          -0.208  -0.908   1.129  0.00  0.00     0.042 H 
BRANCH  15  18
ATOM     18  C7  <0> d          -0.411  -1.362   3.225  0.00  0.00     0.020 C 
ATOM     19  H12 <0> d           0.520  -0.866   3.499  0.00  0.00     0.074 H 
ATOM     20  H13 <0> d          -1.147  -1.218   4.017  0.00  0.00     0.074 H 
BRANCH  18  21
ATOM     21  O1  <0> d          -0.172  -2.759   3.046  0.00  0.00    -0.401 OA
ATOM     22  H14 <0> d           0.168  -3.205   3.834  0.00  0.00     0.209 HD
ENDBRANCH  18  21
ENDBRANCH  15  18
ENDBRANCH   2  15
TORSDOF 6
