REMARK  2 active torsions:
REMARK  status: ('A' for Active; 'I' for Inactive)
REMARK    1  A    between atoms: C3_3  and  S2_6 
REMARK    2  A    between atoms: S2_6  and  O2_8 
ROOT
ATOM      1  C1  <0> d          -3.851  -1.015  -0.779  0.00  0.00    -0.075 A 
ATOM      2  C2  <0> d          -2.537  -0.666  -1.030  0.00  0.00    -0.055 A 
ATOM      3  C3  <0> d          -1.702  -0.454   0.016  0.00  0.00     0.099 A 
ATOM      4  S1  <0> d          -2.773  -0.755   1.411  0.00  0.00    -0.090 SA
ATOM      5  C4  <0> d          -4.264  -1.135   0.506  0.00  0.00    -0.044 A 
ATOM      6  H1  <0> d          -4.537  -1.190  -1.595  0.00  0.00     0.084 H 
ATOM      7  H2  <0> d          -2.182  -0.563  -2.045  0.00  0.00     0.086 H 
ATOM      8  H3  <0> d          -5.242  -1.396   0.884  0.00  0.00     0.095 H 
ENDROOT
BRANCH   3   9
ATOM      9  S2  <0> d           0.002  -0.004   0.002  0.00  0.00     0.194 S 
ATOM     10  O1  <0> d           0.434  -0.335  -1.311  0.00  0.00    -0.222 OA
BRANCH   9  11
ATOM     11  O2  <0> d          -0.019   1.518   0.010  0.00  0.00    -0.302 OA
ATOM     12  H4  <0> d           0.926   2.081   0.004  0.00  0.00     0.230 HD
ENDBRANCH   9  11
ENDBRANCH   3   9
TORSDOF 2
