REMARK  1 active torsions:
REMARK  status: ('A' for Active; 'I' for Inactive)
REMARK    1  A    between atoms: C2_5  and  C3_7 
ROOT
ATOM      1  C3  <0> d           1.689  -1.884  -0.025  0.00  0.00     0.007 A 
ATOM      2  C4  <0> d           0.605  -2.943   0.183  0.00  0.00    -0.054 A 
ATOM      3  C5  <0> d           1.226  -2.747  -1.201  0.00  0.00    -0.054 A 
ATOM      4  H3  <0> d           2.676  -2.086   0.390  0.00  0.00     0.052 H 
ATOM      5  H4  <0> d           0.879  -3.842   0.735  0.00  0.00     0.034 H 
ATOM      6  H5  <0> d          -0.418  -2.595   0.329  0.00  0.00     0.034 H 
ATOM      7  H6  <0> d           0.613  -2.270  -1.965  0.00  0.00     0.034 H 
ATOM      8  H7  <0> d           1.910  -3.517  -1.559  0.00  0.00     0.034 H 
ENDROOT
BRANCH   1   9
ATOM      9  C2  <0> d           1.261  -0.439  -0.012  0.00  0.00     0.151 A 
ATOM     10  N2  <0> d           2.066   0.591  -0.015  0.00  0.00    -0.158 NA
ATOM     11  N1  <0> d           1.256   1.739  -0.001  0.00  0.00    -0.270 N 
ATOM     12  C1  <0> d          -0.016   1.304   0.009  0.00  0.00     0.082 A 
ATOM     13  H1  <0> d           1.556   2.661   0.002  0.00  0.00     0.190 HD
ATOM     14  N3  <0> d           0.002  -0.004   0.002  0.00  0.00    -0.225 NA
ATOM     15  H2  <0> d          -0.898   1.926   0.025  0.00  0.00     0.145 H 
ENDBRANCH   1   9
TORSDOF 1
