REMARK  1 active torsions:
REMARK  status: ('A' for Active; 'I' for Inactive)
REMARK    1  A    between atoms: C4_4  and  C7_7 
ROOT
ATOM      1  C1  <0> d           0.002  -0.004   0.002  0.00  0.00    -0.083 A 
ATOM      2  C2  <0> d          -0.017   1.379   0.010  0.00  0.00    -0.082 A 
ATOM      3  C3  <0> d           1.167   2.088   0.002  0.00  0.00    -0.069 A 
ATOM      4  C4  <0> d           2.385   1.407  -0.013  0.00  0.00     0.019 A 
ATOM      5  C5  <0> d           2.397   0.011  -0.020  0.00  0.00    -0.069 A 
ATOM      6  C6  <0> d           1.206  -0.685  -0.013  0.00  0.00    -0.082 A 
ATOM      7  H1  <0> d          -0.927  -0.554   0.008  0.00  0.00     0.083 H 
ATOM      8  H2  <0> d          -0.960   1.905   0.017  0.00  0.00     0.083 H 
ATOM      9  H3  <0> d           1.151   3.168   0.009  0.00  0.00     0.085 H 
ATOM     10  H4  <0> d           3.336  -0.522  -0.032  0.00  0.00     0.085 H 
ATOM     11  H5  <0> d           1.214  -1.766  -0.019  0.00  0.00     0.083 H 
ENDROOT
BRANCH   4  12
ATOM     12  C7  <0> d           3.657   2.160  -0.021  0.00  0.00     0.202 A 
ATOM     13  O1  <0> d           3.792   3.502  -0.015  0.00  0.00    -0.281 OA
ATOM     14  C8  <0> d           5.113   3.749  -0.026  0.00  0.00     0.127 A 
ATOM     15  N2  <0> d           5.730   2.600  -0.037  0.00  0.00    -0.136 NA
ATOM     16  H6  <0> d           5.579   4.723  -0.026  0.00  0.00     0.158 H 
ATOM     17  N1  <0> d           4.865   1.648  -0.029  0.00  0.00    -0.122 NA
ENDBRANCH   4  12
TORSDOF 1
