REMARK  9 active torsions:
REMARK  status: ('A' for Active; 'I' for Inactive)
REMARK    1  A    between atoms: C1_1  and  C2_2 
REMARK    2  A    between atoms: C2_2  and  C3_3 
REMARK    3  A    between atoms: C2_2  and  C4_4 
REMARK    4  A    between atoms: C4_4  and  C5_5 
REMARK    5  A    between atoms: C5_5  and  C6_6 
REMARK    6  A    between atoms: C6_6  and  C7_7 
REMARK    7  A    between atoms: C7_7  and  C8_8 
REMARK    8  A    between atoms: C7_7  and  C9_9 
REMARK    9  A    between atoms: C7_7  and  O1_10 
ROOT
ATOM      1  C5  <0> d           2.176   1.022  -1.195  0.00  0.00    -0.062 C 
ATOM      2  H10 <0> d           2.191  -0.065  -1.111  0.00  0.00     0.033 H 
ATOM      3  H11 <0> d           1.676   1.309  -2.120  0.00  0.00     0.033 H 
ENDROOT
BRANCH   1   4
ATOM      4  C4  <0> d           1.423   1.615  -0.003  0.00  0.00    -0.062 C 
ATOM      5  H8  <0> d           1.408   2.702  -0.086  0.00  0.00     0.033 H 
ATOM      6  H9  <0> d           1.923   1.329   0.922  0.00  0.00     0.033 H 
BRANCH   4   7
ATOM      7  C2  <0> d          -0.013   1.086   0.008  0.00  0.00    -0.061 C 
ATOM      8  H4  <0> d           0.002  -0.004   0.002  0.00  0.00     0.038 H 
BRANCH   7   9
ATOM      9  C1  <0> d          -0.753   1.593  -1.232  0.00  0.00    -0.073 C 
ATOM     10  H1  <0> d          -1.775   1.215  -1.224  0.00  0.00     0.028 H 
ATOM     11  H2  <0> d          -0.767   2.683  -1.226  0.00  0.00     0.028 H 
ATOM     12  H3  <0> d          -0.242   1.241  -2.128  0.00  0.00     0.028 H 
ENDBRANCH   7   9
BRANCH   7  13
ATOM     13  C3  <0> d          -0.729   1.579   1.267  0.00  0.00    -0.073 C 
ATOM     14  H5  <0> d          -0.744   2.669   1.273  0.00  0.00     0.028 H 
ATOM     15  H6  <0> d          -1.751   1.202   1.275  0.00  0.00     0.028 H 
ATOM     16  H7  <0> d          -0.202   1.218   2.150  0.00  0.00     0.028 H 
ENDBRANCH   7  13
ENDBRANCH   4   7
ENDBRANCH   1   4
BRANCH   1  17
ATOM     17  C6  <0> d           3.612   1.552  -1.206  0.00  0.00    -0.037 C 
ATOM     18  H12 <0> d           3.597   2.638  -1.289  0.00  0.00     0.037 H 
ATOM     19  H13 <0> d           4.112   1.265  -0.281  0.00  0.00     0.037 H 
BRANCH  17  20
ATOM     20  C7  <0> d           4.365   0.958  -2.398  0.00  0.00     0.051 C 
BRANCH  20  21
ATOM     21  C8  <0> d           5.832   1.388  -2.339  0.00  0.00    -0.048 C 
ATOM     22  H14 <0> d           6.279   1.029  -1.412  0.00  0.00     0.031 H 
ATOM     23  H15 <0> d           6.369   0.965  -3.188  0.00  0.00     0.031 H 
ATOM     24  H16 <0> d           5.894   2.476  -2.375  0.00  0.00     0.031 H 
ENDBRANCH  20  21
BRANCH  20  25
ATOM     25  C9  <0> d           4.279  -0.568  -2.347  0.00  0.00    -0.048 C 
ATOM     26  H17 <0> d           3.233  -0.875  -2.389  0.00  0.00     0.031 H 
ATOM     27  H18 <0> d           4.815  -0.991  -3.196  0.00  0.00     0.031 H 
ATOM     28  H19 <0> d           4.725  -0.927  -1.420  0.00  0.00     0.031 H 
ENDBRANCH  20  25
BRANCH  20  29
ATOM     29  O1  <0> d           3.779   1.429  -3.614  0.00  0.00    -0.391 OA
ATOM     30  H20 <0> d           4.208   1.092  -4.412  0.00  0.00     0.210 HD
ENDBRANCH  20  29
ENDBRANCH  17  20
ENDBRANCH   1  17
TORSDOF 9
