REMARK  2 active torsions:
REMARK  status: ('A' for Active; 'I' for Inactive)
REMARK    1  A    between atoms: C1_1  and  O1_2 
REMARK    2  A    between atoms: O1_2  and  C2_3 
ROOT
ATOM      1  C2  <0> d           2.597   1.352  -0.015  0.00  0.00     0.075 A 
ATOM      2  C3  <0> d           3.418   2.395  -0.017  0.00  0.00    -0.066 A 
ATOM      3  C4  <0> d           2.582   3.654  -0.003  0.00  0.00    -0.022 A 
ATOM      4  C5  <0> d           1.147   3.187   0.008  0.00  0.00    -0.042 A 
ATOM      5  C6  <0> d           1.186   1.791   0.000  0.00  0.00     0.004 A 
ATOM      6  C7  <0> d          -0.013   1.076   0.008  0.00  0.00    -0.070 A 
ATOM      7  C8  <0> d          -1.216   1.750   0.017  0.00  0.00    -0.082 A 
ATOM      8  C9  <0> d          -1.242   3.133   0.031  0.00  0.00    -0.082 A 
ATOM      9  C10 <0> d          -0.057   3.850   0.023  0.00  0.00    -0.076 A 
ATOM     10  H4  <0> d           4.497   2.351  -0.027  0.00  0.00     0.081 H 
ATOM     11  H5  <0> d           2.796   4.237   0.892  0.00  0.00     0.046 H 
ATOM     12  H6  <0> d           2.780   4.247  -0.896  0.00  0.00     0.046 H 
ATOM     13  H7  <0> d           0.002  -0.004   0.002  0.00  0.00     0.084 H 
ATOM     14  H8  <0> d          -2.143   1.196   0.019  0.00  0.00     0.083 H 
ATOM     15  H9  <0> d          -2.188   3.655   0.042  0.00  0.00     0.083 H 
ATOM     16  H10 <0> d          -0.079   4.930   0.028  0.00  0.00     0.084 H 
ENDROOT
BRANCH   1  17
ATOM     17  O1  <0> d           2.999   0.054  -0.025  0.00  0.00    -0.355 OA
BRANCH  17  18
ATOM     18  C1  <0> d           4.408  -0.188  -0.039  0.00  0.00     0.010 C 
ATOM     19  H1  <0> d           4.591  -1.262  -0.046  0.00  0.00     0.066 H 
ATOM     20  H2  <0> d           4.844   0.261  -0.931  0.00  0.00     0.066 H 
ATOM     21  H3  <0> d           4.861   0.253   0.849  0.00  0.00     0.066 H 
ENDBRANCH  17  18
ENDBRANCH   1  17
TORSDOF 2
