REMARK  3 active torsions:
REMARK  status: ('A' for Active; 'I' for Inactive)
REMARK    1  A    between atoms: C1_1  and  C2_2 
REMARK    2  A    between atoms: C7_7  and  C8_8 
REMARK    3  A    between atoms: C8_8  and  C9_10 
ROOT
ATOM      1  C2  <0> d          -2.846   2.147   2.401  0.00  0.00    -0.048 A 
ATOM      2  C3  <0> d          -4.225   2.120   2.410  0.00  0.00    -0.073 A 
ATOM      3  C4  <0> d          -4.927   1.986   1.226  0.00  0.00    -0.045 A 
ATOM      4  C5  <0> d          -4.251   1.878   0.020  0.00  0.00     0.117 A 
ATOM      5  C6  <0> d          -2.870   1.909  -0.005  0.00  0.00    -0.032 A 
ATOM      6  C7  <0> d          -2.156   2.039   1.190  0.00  0.00     0.018 A 
ATOM      7  F1  <0> d          -4.944   1.747  -1.132  0.00  0.00    -0.206 F 
ATOM      8  H4  <0> d          -4.759   2.203   3.346  0.00  0.00     0.084 H 
ATOM      9  H5  <0> d          -6.006   1.965   1.240  0.00  0.00     0.088 H 
ATOM     10  H6  <0> d          -2.344   1.829  -0.945  0.00  0.00     0.089 H 
ENDROOT
BRANCH   6  11
ATOM     11  C8  <0> d          -0.684   2.069   1.172  0.00  0.00     0.156 C 
ATOM     12  O1  <0> d          -0.070   2.291   2.193  0.00  0.00    -0.293 OA
BRANCH  11  13
ATOM     13  C9  <0> d           0.059   1.823  -0.116  0.00  0.00    -0.017 C 
ATOM     14  H7  <0> d           0.244   0.845  -0.212  0.00  0.00     0.038 H 
ATOM     15  H8  <0> d           1.001   2.372  -0.102  0.00  0.00     0.038 H 
ATOM     16  H9  <0> d          -0.547   2.163  -0.956  0.00  0.00     0.038 H 
ENDBRANCH  11  13
ENDBRANCH   6  11
BRANCH   1  17
ATOM     17  C1  <0> d          -2.085   2.294   3.693  0.00  0.00    -0.050 C 
ATOM     18  H1  <0> d          -1.820   3.340   3.842  0.00  0.00     0.033 H 
ATOM     19  H2  <0> d          -2.707   1.954   4.521  0.00  0.00     0.033 H 
ATOM     20  H3  <0> d          -1.177   1.692   3.650  0.00  0.00     0.033 H 
ENDBRANCH   1  17
TORSDOF 3
