REMARK  0 active torsions:
REMARK  status: ('A' for Active; 'I' for Inactive)
ROOT
ATOM      1  C1  <0> d           1.497  -0.370  -0.014  0.00  0.00     0.027 A 
ATOM      2  C2  <0> d           0.002  -0.004   0.002  0.00  0.00     0.051 A 
ATOM      3  N1  <0> d          -0.018   1.462   0.010  0.00  0.00    -0.077 N 
ATOM      4  C3  <0> d           1.241   1.938   0.001  0.00  0.00     0.740 A 
ATOM      5  N2  <0> d           1.145   3.257   0.009  0.00  0.00     0.065 NA
ATOM      6  N3  <0> d          -0.085   3.620   0.022  0.00  0.00    -0.008 NA
ATOM      7  N4  <0> d          -0.857   2.587   0.029  0.00  0.00    -0.030 NA
ATOM      8  N5  <0> d           2.185   0.928  -0.014  0.00  0.00    -0.220 N 
ATOM      9  H1  <0> d           1.760  -0.941   0.876  0.00  0.00     0.067 H 
ATOM     10  H2  <0> d           1.742  -0.934  -0.914  0.00  0.00     0.067 H 
ATOM     11  H3  <0> d          -0.476  -0.396   0.900  0.00  0.00     0.070 H 
ATOM     12  H4  <0> d          -0.495  -0.386  -0.890  0.00  0.00     0.070 H 
ATOM     13  H5  <0> d           3.147   1.056  -0.023  0.00  0.00     0.177 HD
ENDROOT
TORSDOF 0
