REMARK  0 active torsions:
REMARK  status: ('A' for Active; 'I' for Inactive)
ROOT
ATOM      1  C1  <0> d          -0.017   1.379   0.010  0.00  0.00    -0.035 A 
ATOM      2  C2  <0> d           1.301   1.816  -0.001  0.00  0.00     0.025 A 
ATOM      3  N1  <0> d           2.099   0.771  -0.014  0.00  0.00    -0.176 NA
ATOM      4  N2  <0> d           1.324  -0.390  -0.013  0.00  0.00    -0.190 N 
ATOM      5  C3  <0> d           0.002  -0.004   0.002  0.00  0.00     0.083 A 
ATOM      6  C4  <0> d          -0.985  -1.010   0.006  0.00  0.00     0.052 A 
ATOM      7  N3  <0> d          -0.607  -2.267  -0.005  0.00  0.00    -0.156 NA
ATOM      8  N4  <0> d           0.632  -2.604  -0.019  0.00  0.00    -0.102 NA
ATOM      9  C5  <0> d           1.607  -1.726  -0.023  0.00  0.00     0.319 A 
ATOM     10  O1  <0> d           2.893  -2.144  -0.037  0.00  0.00    -0.145 OA
ATOM     11  H1  <0> d          -0.896   2.005   0.025  0.00  0.00     0.089 H 
ATOM     12  H2  <0> d           1.619   2.848   0.002  0.00  0.00     0.117 H 
ATOM     13  H3  <0> d          -2.033  -0.751   0.017  0.00  0.00     0.121 H 
ENDROOT
TORSDOF 0
