REMARK  1 active torsions:
REMARK  status: ('A' for Active; 'I' for Inactive)
REMARK    1  A    between atoms: C3_3  and  N1_10 
ROOT
ATOM      1  C1  <0> d           1.530  -2.093  -0.024  0.00  0.00    -0.070 A 
ATOM      2  C2  <0> d           2.800  -2.574  -0.039  0.00  0.00    -0.057 A 
ATOM      3  C3  <0> d           3.902  -1.719  -0.045  0.00  0.00     0.026 A 
ATOM      4  C4  <0> d           3.697  -0.347  -0.036  0.00  0.00    -0.040 A 
ATOM      5  C5  <0> d           2.411   0.146  -0.020  0.00  0.00     0.017 A 
ATOM      6  C6  <0> d           1.281  -0.700  -0.014  0.00  0.00    -0.018 A 
ATOM      7  C7  <0> d           0.002  -0.004   0.002  0.00  0.00    -0.065 A 
ATOM      8  C8  <0> d          -0.016   1.336   0.009  0.00  0.00    -0.043 A 
ATOM      9  S1  <0> d           1.711   1.776  -0.005  0.00  0.00    -0.101 SA
ATOM     10  H1  <0> d           0.699  -2.783  -0.020  0.00  0.00     0.085 H 
ATOM     11  H2  <0> d           2.961  -3.642  -0.046  0.00  0.00     0.086 H 
ATOM     12  H3  <0> d           4.540   0.329  -0.040  0.00  0.00     0.089 H 
ATOM     13  H4  <0> d          -0.923  -0.562   0.007  0.00  0.00     0.085 H 
ATOM     14  H5  <0> d          -0.873   1.993   0.017  0.00  0.00     0.095 H 
ENDROOT
BRANCH   3  15
ATOM     15  N1  <0> d           5.199  -2.240  -0.060  0.00  0.00    -0.399 N 
ATOM     16  H6  <0> d           5.337  -3.200  -0.066  0.00  0.00     0.156 HD
ATOM     17  H7  <0> d           5.962  -1.641  -0.064  0.00  0.00     0.156 HD
ENDBRANCH   3  15
TORSDOF 1
