REMARK  2 active torsions:
REMARK  status: ('A' for Active; 'I' for Inactive)
REMARK    1  A    between atoms: C1_1  and  C2_2 
REMARK    2  A    between atoms: C2_2  and  N1_3 
ROOT
ATOM      1  N1  <0> d           0.688  -0.476  -1.203  0.00  0.00    -0.335 N 
ATOM      2  C3  <0> d          -0.087  -0.714  -2.422  0.00  0.00     0.001 C 
ATOM      3  C4  <0> d           0.812  -0.482  -3.642  0.00  0.00    -0.035 C 
ATOM      4  C5  <0> d           2.049  -1.377  -3.513  0.00  0.00    -0.002 C 
ATOM      5  N2  <0> d           2.708  -1.104  -2.234  0.00  0.00    -0.343 N 
ATOM      6  C6  <0> d           2.014  -0.678  -1.169  0.00  0.00     0.318 C 
ATOM      7  O1  <0> d           2.609  -0.471  -0.129  0.00  0.00    -0.247 OA
ATOM      8  H6  <0> d          -0.452  -1.741  -2.428  0.00  0.00     0.064 H 
ATOM      9  H7  <0> d          -0.932  -0.026  -2.457  0.00  0.00     0.064 H 
ATOM     10  H8  <0> d           0.268  -0.739  -4.551  0.00  0.00     0.037 H 
ATOM     11  H9  <0> d           1.118   0.563  -3.678  0.00  0.00     0.037 H 
ATOM     12  H10 <0> d           1.748  -2.424  -3.551  0.00  0.00     0.064 H 
ATOM     13  H11 <0> d           2.739  -1.166  -4.330  0.00  0.00     0.064 H 
ATOM     14  H12 <0> d           3.667  -1.230  -2.157  0.00  0.00     0.164 HD
ENDROOT
BRANCH   1  15
ATOM     15  C2  <0> d           0.002  -0.004   0.002  0.00  0.00    -0.004 C 
ATOM     16  H4  <0> d           0.529  -0.365   0.885  0.00  0.00     0.063 H 
ATOM     17  H5  <0> d          -1.020  -0.381   0.010  0.00  0.00     0.063 H 
BRANCH  15  18
ATOM     18  C1  <0> d          -0.019   1.526   0.010  0.00  0.00    -0.061 C 
ATOM     19  H1  <0> d           1.004   1.903   0.003  0.00  0.00     0.029 H 
ATOM     20  H2  <0> d          -0.546   1.887  -0.873  0.00  0.00     0.029 H 
ATOM     21  H3  <0> d          -0.529   1.877   0.907  0.00  0.00     0.029 H 
ENDBRANCH  15  18
ENDBRANCH   1  15
TORSDOF 2
