REMARK  6 active torsions:
REMARK  status: ('A' for Active; 'I' for Inactive)
REMARK    1  A    between atoms: C1_1  and  C2_2 
REMARK    2  A    between atoms: C2_2  and  C3_3 
REMARK    3  A    between atoms: C2_2  and  C4_4 
REMARK    4  A    between atoms: C4_4  and  C5_5 
REMARK    5  A    between atoms: C5_5  and  C6_7 
REMARK    6  A    between atoms: C5_5  and  N1_11 
ROOT
ATOM      1  C4  <0> d          -1.642  -0.652   0.062  0.00  0.00    -0.025 C 
ATOM      2  H9  <0> d          -1.642  -1.730   0.221  0.00  0.00     0.037 H 
ATOM      3  H10 <0> d          -2.351  -0.184   0.746  0.00  0.00     0.037 H 
ENDROOT
BRANCH   1   4
ATOM      4  C2  <0> d          -0.240  -0.098   0.323  0.00  0.00    -0.059 C 
ATOM      5  H5  <0> d          -0.214   0.961   0.066  0.00  0.00     0.038 H 
BRANCH   4   6
ATOM      6  C1  <0> d           0.110  -0.272   1.802  0.00  0.00    -0.073 C 
ATOM      7  H2  <0> d           1.111   0.118   1.987  0.00  0.00     0.028 H 
ATOM      8  H3  <0> d          -0.611   0.273   2.413  0.00  0.00     0.028 H 
ATOM      9  H4  <0> d           0.079  -1.330   2.061  0.00  0.00     0.028 H 
ENDBRANCH   4   6
BRANCH   4  10
ATOM     10  C3  <0> d           0.775  -0.856  -0.534  0.00  0.00    -0.073 C 
ATOM     11  H6  <0> d           0.749  -1.915  -0.276  0.00  0.00     0.028 H 
ATOM     12  H7  <0> d           0.526  -0.732  -1.588  0.00  0.00     0.028 H 
ATOM     13  H8  <0> d           1.774  -0.461  -0.348  0.00  0.00     0.028 H 
ENDBRANCH   4  10
ENDBRANCH   1   4
BRANCH   1  14
ATOM     14  C5  <0> d          -2.050  -0.348  -1.381  0.00  0.00     0.223 C 
ATOM     15  H1  <0> d          -1.292  -0.735  -2.062  0.00  0.00     0.102 H 
BRANCH  14  16
ATOM     16  C6  <0> d          -3.394  -1.015  -1.681  0.00  0.00     0.417 C 
ATOM     17  F1  <0> d          -4.367  -0.518  -0.807  0.00  0.00    -0.169 F 
ATOM     18  F2  <0> d          -3.767  -0.737  -3.001  0.00  0.00    -0.169 F 
ATOM     19  F3  <0> d          -3.277  -2.398  -1.511  0.00  0.00    -0.169 F 
ENDBRANCH  14  16
BRANCH  14  20
ATOM     20  N1  <0> d          -2.174   1.105  -1.559  0.00  0.00     0.091 N 
ATOM     21  H11 <0> d          -2.801   1.501  -0.876  0.00  0.00     0.313 HD
ATOM     22  H12 <0> d          -1.270   1.551  -1.523  0.00  0.00     0.313 HD
ENDBRANCH  14  20
ENDBRANCH   1  14
TORSDOF 6
