REMARK  2 active torsions:
REMARK  status: ('A' for Active; 'I' for Inactive)
REMARK    1  A    between atoms: C3_3  and  C5_6 
REMARK    2  A    between atoms: C7_9  and  C8_11 
ROOT
ATOM      1  C5  <0> d           2.618   3.748  -0.003  0.00  0.00     0.007 A 
ATOM      2  H1  <0> d           3.137   4.495   0.616  0.00  0.00     0.051 H 
ATOM      3  C6  <0> d           1.745   3.788  -1.258  0.00  0.00    -0.042 A 
ATOM      4  C7  <0> d           1.235   3.094   0.007  0.00  0.00     0.040 A 
ATOM      5  H2  <0> d           0.336   3.172   0.635  0.00  0.00     0.057 H 
ATOM      6  H6  <0> d           1.542   4.834  -1.531  0.00  0.00     0.035 H 
ATOM      7  H7  <0> d           2.269   3.288  -2.086  0.00  0.00     0.035 H 
ENDROOT
BRANCH   1   8
ATOM      8  C3  <0> d           3.818   2.836  -0.019  0.00  0.00     0.057 A 
ATOM      9  C2  <0> d           4.784   2.790   0.917  0.00  0.00    -0.052 A 
ATOM     10  C1  <0> d           5.706   1.800   0.506  0.00  0.00    -0.059 A 
ATOM     11  H4  <0> d           4.843   3.393   1.811  0.00  0.00     0.087 H 
ATOM     12  C4  <0> d           5.249   1.301  -0.656  0.00  0.00     0.019 A 
ATOM     13  H3  <0> d           6.605   1.503   1.025  0.00  0.00     0.086 H 
ATOM     14  O1  <0> d           4.102   1.928  -0.966  0.00  0.00    -0.327 OA
ATOM     15  H5  <0> d           5.722   0.524  -1.240  0.00  0.00     0.123 H 
ENDBRANCH   1   8
BRANCH   4  16
ATOM     16  C8  <0> d           1.177   1.588  -0.001  0.00  0.00     0.177 C 
ATOM     17  O2  <0> d           2.199   0.944  -0.014  0.00  0.00    -0.648 OA
ATOM     18  O3  <0> d          -0.011   0.963   0.007  0.00  0.00    -0.648 OA
ENDBRANCH   4  16
TORSDOF 2
