REMARK  9 active torsions:
REMARK  status: ('A' for Active; 'I' for Inactive)
REMARK    1  A    between atoms: C1_1  and  C2_2 
REMARK    2  A    between atoms: C2_2  and  C3_3 
REMARK    3  A    between atoms: C3_3  and  C4_4 
REMARK    4  A    between atoms: C4_4  and  O1_5 
REMARK    5  A    between atoms: O1_5  and  C5_6 
REMARK    6  A    between atoms: C5_6  and  C6_8 
REMARK    7  A    between atoms: C6_8  and  C7_9 
REMARK    8  A    between atoms: C7_9  and  C8_10 
REMARK    9  A    between atoms: C7_9  and  C9_11 
ROOT
ATOM      1  C5  <0> d          -0.014   1.204   0.009  0.00  0.00     0.259 C 
ATOM      2  O2  <0> d           0.002  -0.004   0.002  0.00  0.00    -0.265 OA
ENDROOT
BRANCH   1   3
ATOM      3  O1  <0> d           1.139   1.891   0.001  0.00  0.00    -0.321 OA
BRANCH   3   4
ATOM      4  C4  <0> d           2.367   1.117  -0.015  0.00  0.00     0.029 C 
ATOM      5  H8  <0> d           2.409   0.484   0.872  0.00  0.00     0.075 H 
ATOM      6  H9  <0> d           2.392   0.493  -0.908  0.00  0.00     0.075 H 
BRANCH   4   7
ATOM      7  C3  <0> d           3.568   2.065  -0.021  0.00  0.00    -0.045 C 
ATOM      8  H6  <0> d           3.526   2.698  -0.907  0.00  0.00     0.036 H 
ATOM      9  H7  <0> d           3.543   2.689   0.873  0.00  0.00     0.036 H 
BRANCH   7  10
ATOM     10  C2  <0> d           4.862   1.250  -0.038  0.00  0.00    -0.067 C 
ATOM     11  H4  <0> d           4.904   0.616   0.849  0.00  0.00     0.032 H 
ATOM     12  H5  <0> d           4.887   0.626  -0.931  0.00  0.00     0.032 H 
BRANCH  10  13
ATOM     13  C1  <0> d           6.063   2.198  -0.044  0.00  0.00    -0.076 C 
ATOM     14  H1  <0> d           6.038   2.822   0.850  0.00  0.00     0.027 H 
ATOM     15  H2  <0> d           6.985   1.617  -0.056  0.00  0.00     0.027 H 
ATOM     16  H3  <0> d           6.021   2.831  -0.930  0.00  0.00     0.027 H 
ENDBRANCH  10  13
ENDBRANCH   7  10
ENDBRANCH   4   7
ENDBRANCH   3   4
ENDBRANCH   1   3
BRANCH   1  17
ATOM     17  C6  <0> d          -1.329   1.940   0.019  0.00  0.00     0.018 C 
ATOM     18  H10 <0> d          -1.391   2.561   0.913  0.00  0.00     0.048 H 
ATOM     19  H11 <0> d          -1.400   2.570  -0.867  0.00  0.00     0.048 H 
BRANCH  17  20
ATOM     20  C7  <0> d          -2.479   0.930   0.019  0.00  0.00    -0.053 C 
ATOM     21  H12 <0> d          -2.359   0.243   0.856  0.00  0.00     0.039 H 
BRANCH  20  22
ATOM     22  C8  <0> d          -3.810   1.672   0.155  0.00  0.00    -0.073 C 
ATOM     23  H13 <0> d          -3.930   2.359  -0.683  0.00  0.00     0.028 H 
ATOM     24  H14 <0> d          -4.629   0.952   0.155  0.00  0.00     0.028 H 
ATOM     25  H15 <0> d          -3.819   2.233   1.089  0.00  0.00     0.028 H 
ENDBRANCH  20  22
BRANCH  20  26
ATOM     26  C9  <0> d          -2.466   0.142  -1.293  0.00  0.00    -0.073 C 
ATOM     27  H16 <0> d          -1.518  -0.386  -1.390  0.00  0.00     0.028 H 
ATOM     28  H17 <0> d          -3.284  -0.577  -1.293  0.00  0.00     0.028 H 
ATOM     29  H18 <0> d          -2.586   0.830  -2.130  0.00  0.00     0.028 H 
ENDBRANCH  20  26
ENDBRANCH  17  20
ENDBRANCH   1  17
TORSDOF 9
