REMARK  1 active torsions:
REMARK  status: ('A' for Active; 'I' for Inactive)
REMARK    1  A    between atoms: C2_2  and  C3_3 
ROOT
ATOM      1  C1  <0> d           0.018  -1.178  -0.004  0.00  0.00    -0.149 C 
ATOM      2  C2  <0> d           0.002  -0.004   0.002  0.00  0.00    -0.075 C 
ATOM      3  H1  <0> d           0.032  -2.228  -0.010  0.00  0.00     0.166 H 
ENDROOT
BRANCH   2   4
ATOM      4  C3  <0> d          -0.017   1.428   0.010  0.00  0.00     0.058 A 
ATOM      5  C8  <0> d           1.181   2.146   0.002  0.00  0.00     0.173 A 
ATOM      6  C7  <0> d           1.153   3.530   0.003  0.00  0.00     0.156 A 
ATOM      7  F1  <0> d           2.363   1.491  -0.012  0.00  0.00    -0.201 F 
ATOM      8  C6  <0> d          -0.058   4.199   0.025  0.00  0.00    -0.043 A 
ATOM      9  F2  <0> d           2.310   4.228  -0.011  0.00  0.00    -0.203 F 
ATOM     10  C5  <0> d          -1.247   3.491   0.038  0.00  0.00    -0.079 A 
ATOM     11  H4  <0> d          -0.076   5.279   0.030  0.00  0.00     0.088 H 
ATOM     12  C4  <0> d          -1.234   2.112   0.031  0.00  0.00    -0.062 A 
ATOM     13  H3  <0> d          -2.188   4.020   0.055  0.00  0.00     0.083 H 
ATOM     14  H2  <0> d          -2.163   1.562   0.041  0.00  0.00     0.085 H 
ENDBRANCH   2   4
TORSDOF 1
