REMARK  1 active torsions:
REMARK  status: ('A' for Active; 'I' for Inactive)
REMARK    1  A    between atoms: C3_3  and  O1_11 
ROOT
ATOM      1  C1  <0> d           1.576   4.154   0.010  0.00  0.00    -0.068 A 
ATOM      2  C2  <0> d           2.914   3.883  -0.004  0.00  0.00    -0.050 A 
ATOM      3  C3  <0> d           3.368   2.566  -0.015  0.00  0.00     0.067 A 
ATOM      4  C4  <0> d           2.471   1.514  -0.013  0.00  0.00    -0.025 A 
ATOM      5  C5  <0> d           1.105   1.772   0.001  0.00  0.00     0.044 A 
ATOM      6  C6  <0> d           0.654   3.105   0.013  0.00  0.00    -0.008 A 
ATOM      7  C7  <0> d          -0.810   3.037   0.026  0.00  0.00    -0.056 A 
ATOM      8  C8  <0> d          -1.143   1.738   0.016  0.00  0.00    -0.022 A 
ATOM      9  N1  <0> d          -0.011   0.966   0.007  0.00  0.00    -0.365 N 
ATOM     10  H1  <0> d           0.002  -0.004   0.002  0.00  0.00     0.165 HD
ATOM     11  H2  <0> d           1.231   5.177   0.018  0.00  0.00     0.085 H 
ATOM     12  H3  <0> d           3.626   4.695  -0.007  0.00  0.00     0.087 H 
ATOM     13  H4  <0> d           2.831   0.496  -0.022  0.00  0.00     0.091 H 
ATOM     14  H5  <0> d          -1.491   3.875   0.037  0.00  0.00     0.086 H 
ATOM     15  H6  <0> d          -2.153   1.356   0.018  0.00  0.00     0.111 H 
ENDROOT
BRANCH   3  16
ATOM     16  O1  <0> d           4.704   2.314  -0.030  0.00  0.00    -0.361 OA
ATOM     17  H7  <0> d           5.099   2.236   0.850  0.00  0.00     0.217 HD
ENDBRANCH   3  16
TORSDOF 1
