REMARK  2 active torsions:
REMARK  status: ('A' for Active; 'I' for Inactive)
REMARK    1  A    between atoms: C1_1  and  C2_2 
REMARK    2  A    between atoms: C2_2  and  C3_4 
ROOT
ATOM      1  C3  <0> d          -0.049   3.847   0.022  0.00  0.00     0.012 A 
ATOM      2  C4  <0> d           1.168   3.159   0.007  0.00  0.00    -0.069 A 
ATOM      3  C5  <0> d           1.178   1.781   0.000  0.00  0.00    -0.079 A 
ATOM      4  C6  <0> d          -0.013   1.076   0.008  0.00  0.00    -0.046 A 
ATOM      5  C7  <0> d          -1.224   1.749   0.017  0.00  0.00     0.117 A 
ATOM      6  C8  <0> d          -1.250   3.130   0.030  0.00  0.00    -0.032 A 
ATOM      7  F1  <0> d          -2.382   1.053   0.019  0.00  0.00    -0.206 F 
ATOM      8  H4  <0> d           2.099   3.707   0.000  0.00  0.00     0.085 H 
ATOM      9  H5  <0> d           2.118   1.249  -0.011  0.00  0.00     0.083 H 
ATOM     10  H6  <0> d           0.002  -0.004   0.002  0.00  0.00     0.088 H 
ATOM     11  H7  <0> d          -2.194   3.654   0.042  0.00  0.00     0.089 H 
ENDROOT
BRANCH   1  12
ATOM     12  C2  <0> d          -0.067   5.319   0.029  0.00  0.00     0.155 C 
ATOM     13  O1  <0> d           0.975   5.938   0.023  0.00  0.00    -0.293 OA
BRANCH  12  14
ATOM     14  C1  <0> d          -1.381   6.056   0.045  0.00  0.00    -0.017 C 
ATOM     15  H1  <0> d          -1.663   6.215   0.992  0.00  0.00     0.038 H 
ATOM     16  H2  <0> d          -1.267   7.013  -0.465  0.00  0.00     0.038 H 
ATOM     17  H3  <0> d          -2.139   5.461  -0.464  0.00  0.00     0.038 H 
ENDBRANCH  12  14
ENDBRANCH   1  12
TORSDOF 2
