REMARK  2 active torsions:
REMARK  status: ('A' for Active; 'I' for Inactive)
REMARK    1  A    between atoms: C1_1  and  C2_2 
REMARK    2  A    between atoms: N2_10  and  N3_11 
ROOT
ATOM      1  C2  <0> d          -2.074   1.762  -1.039  0.00  0.00     0.118 A 
ATOM      2  N1  <0> d          -2.440   2.211  -2.204  0.00  0.00    -0.232 NA
ATOM      3  C3  <0> d          -1.366   2.258  -3.033  0.00  0.00     0.087 A 
ATOM      4  C4  <0> d          -1.192   2.650  -4.363  0.00  0.00    -0.053 A 
ATOM      5  C5  <0> d           0.049   2.597  -4.932  0.00  0.00    -0.081 A 
ATOM      6  C6  <0> d           1.141   2.143  -4.206  0.00  0.00    -0.081 A 
ATOM      7  C7  <0> d           0.992   1.747  -2.894  0.00  0.00    -0.053 A 
ATOM      8  C8  <0> d          -0.260   1.802  -2.297  0.00  0.00     0.081 A 
ATOM      9  N2  <0> d          -0.741   1.490  -1.041  0.00  0.00    -0.264 N 
ATOM     10  H4  <0> d          -2.035   3.006  -4.937  0.00  0.00     0.087 H 
ATOM     11  H5  <0> d           0.180   2.904  -5.959  0.00  0.00     0.083 H 
ATOM     12  H6  <0> d           2.114   2.101  -4.672  0.00  0.00     0.083 H 
ATOM     13  H7  <0> d           1.846   1.395  -2.333  0.00  0.00     0.087 H 
ENDROOT
BRANCH   1  14
ATOM     14  C1  <0> d          -2.992   1.571   0.141  0.00  0.00    -0.020 C 
ATOM     15  H1  <0> d          -3.017   2.485   0.733  0.00  0.00     0.037 H 
ATOM     16  H2  <0> d          -3.996   1.340  -0.214  0.00  0.00     0.037 H 
ATOM     17  H3  <0> d          -2.626   0.749   0.756  0.00  0.00     0.037 H 
ENDBRANCH   1  14
BRANCH   9  18
ATOM     18  N3  <0> d          -0.012   1.005   0.008  0.00  0.00    -0.241 NA
ATOM     19  H8  <0> d           0.002  -0.004   0.002  0.00  0.00     0.143 HD
ATOM     20  H9  <0> d           0.925   1.379   0.001  0.00  0.00     0.143 HD
ENDBRANCH   9  18
TORSDOF 2
