REMARK  1 active torsions:
REMARK  status: ('A' for Active; 'I' for Inactive)
REMARK    1  A    between atoms: C5_5  and  C7_7 
ROOT
ATOM      1  C1  <0> d           0.119   5.191   0.028  0.00  0.00    -0.082 A 
ATOM      2  C2  <0> d           1.345   5.835   0.020  0.00  0.00    -0.080 A 
ATOM      3  C3  <0> d           2.518   5.103   0.005  0.00  0.00    -0.045 A 
ATOM      4  C4  <0> d           2.474   3.721  -0.002  0.00  0.00     0.133 A 
ATOM      5  C5  <0> d           1.238   3.065   0.007  0.00  0.00     0.079 A 
ATOM      6  C6  <0> d           0.059   3.814   0.016  0.00  0.00    -0.063 A 
ATOM      7  F1  <0> d           3.620   3.006  -0.017  0.00  0.00    -0.205 F 
ATOM      8  H1  <0> d          -0.793   5.770   0.040  0.00  0.00     0.083 H 
ATOM      9  H2  <0> d           1.385   6.914   0.025  0.00  0.00     0.083 H 
ATOM     10  H3  <0> d           3.470   5.612  -0.001  0.00  0.00     0.088 H 
ATOM     11  H4  <0> d          -0.899   3.314   0.018  0.00  0.00     0.085 H 
ENDROOT
BRANCH   5  12
ATOM     12  C7  <0> d           1.181   1.591  -0.001  0.00  0.00     0.212 C 
ATOM     13  O1  <0> d           2.209   0.943  -0.014  0.00  0.00    -0.644 OA
ATOM     14  O2  <0> d          -0.011   0.963   0.007  0.00  0.00    -0.644 OA
ENDBRANCH   5  12
TORSDOF 1
