REMARK  4 active torsions:
REMARK  status: ('A' for Active; 'I' for Inactive)
REMARK    1  A    between atoms: C1_1  and  C2_2 
REMARK    2  A    between atoms: C6_6  and  C9_10 
REMARK    3  A    between atoms: C7_7  and  N1_8 
REMARK    4  A    between atoms: N1_8  and  C8_9 
ROOT
ATOM      1  C2  <0> d          -1.228   2.072   0.019  0.00  0.00    -0.040 A 
ATOM      2  C3  <0> d          -1.243   3.453   0.031  0.00  0.00    -0.075 A 
ATOM      3  C4  <0> d          -0.054   4.159   0.024  0.00  0.00    -0.082 A 
ATOM      4  C5  <0> d           1.153   3.486   0.009  0.00  0.00    -0.075 A 
ATOM      5  C6  <0> d           1.176   2.105   0.002  0.00  0.00    -0.040 A 
ATOM      6  C7  <0> d          -0.017   1.393   0.010  0.00  0.00     0.019 A 
ATOM      7  H4  <0> d          -2.185   3.982   0.042  0.00  0.00     0.084 H 
ATOM      8  H5  <0> d          -0.069   5.239   0.029  0.00  0.00     0.083 H 
ATOM      9  H6  <0> d           2.080   4.040   0.004  0.00  0.00     0.084 H 
ENDROOT
BRANCH   6  10
ATOM     10  N1  <0> d           0.002  -0.004   0.002  0.00  0.00    -0.296 NA
ATOM     11  H7  <0> d          -0.415  -0.367  -0.842  0.00  0.00     0.127 HD
BRANCH  10  12
ATOM     12  C8  <0> d          -0.665  -0.546   1.193  0.00  0.00    -0.031 C 
ATOM     13  H8  <0> d          -0.152  -0.195   2.088  0.00  0.00     0.048 H 
ATOM     14  H9  <0> d          -1.702  -0.211   1.213  0.00  0.00     0.048 H 
ATOM     15  H10 <0> d          -0.636  -1.635   1.162  0.00  0.00     0.048 H 
ENDBRANCH  10  12
ENDBRANCH   6  10
BRANCH   1  16
ATOM     16  C1  <0> d          -2.525   1.304   0.022  0.00  0.00    -0.050 C 
ATOM     17  H1  <0> d          -2.832   1.113   1.050  0.00  0.00     0.033 H 
ATOM     18  H2  <0> d          -3.293   1.886  -0.485  0.00  0.00     0.033 H 
ATOM     19  H3  <0> d          -2.386   0.355  -0.498  0.00  0.00     0.033 H 
ENDBRANCH   1  16
BRANCH   5  20
ATOM     20  C9  <0> d           2.492   1.372  -0.013  0.00  0.00    -0.050 C 
ATOM     21  H11 <0> d           2.800   1.200  -1.045  0.00  0.00     0.033 H 
ATOM     22  H12 <0> d           3.247   1.970   0.496  0.00  0.00     0.033 H 
ATOM     23  H13 <0> d           2.381   0.415   0.497  0.00  0.00     0.033 H 
ENDBRANCH   5  20
TORSDOF 4
