REMARK  4 active torsions:
REMARK  status: ('A' for Active; 'I' for Inactive)
REMARK    1  A    between atoms: C1_1  and  C2_2 
REMARK    2  A    between atoms: C4_5  and  C5_7 
REMARK       I    between atoms: C5_7  and  N1_9 
REMARK    3  A    between atoms: N1_9  and  C6_10 
REMARK    4  A    between atoms: C6_10  and  C7_11 
ROOT
ATOM      1  C2  <0> d          -0.336   1.316   5.024  0.00  0.00    -0.045 A 
ATOM      2  H1  <0> d           0.369   0.545   5.367  0.00  0.00     0.040 H 
ATOM      3  C3  <0> d          -0.208   2.760   4.531  0.00  0.00    -0.050 A 
ATOM      4  C4  <0> d          -0.927   1.718   3.671  0.00  0.00     0.027 A 
ATOM      5  H2  <0> d          -1.916   1.643   3.194  0.00  0.00     0.055 H 
ATOM      6  H6  <0> d          -0.698   3.437   5.246  0.00  0.00     0.034 H 
ATOM      7  H7  <0> d           0.856   3.025   4.445  0.00  0.00     0.034 H 
ENDROOT
BRANCH   4   8
ATOM      8  C5  <0> d          -0.222   1.232   2.431  0.00  0.00     0.222 C 
ATOM      9  O1  <0> d           0.774   0.548   2.529  0.00  0.00    -0.273 OA
ATOM     10  N1  <0> d          -0.698   1.558   1.213  0.00  0.00    -0.351 N 
ATOM     11  H8  <0> d          -1.602   2.179   1.124  0.00  0.00     0.163 HD
BRANCH  10  12
ATOM     12  C6  <0> d          -0.013   1.086   0.008  0.00  0.00     0.075 C 
ATOM     13  H9  <0> d           1.019   1.466   0.000  0.00  0.00     0.080 H 
ATOM     14  H10 <0> d           0.002  -0.014   0.002  0.00  0.00     0.080 H 
BRANCH  12  15
ATOM     15  C7  <0> d          -0.742   1.585  -1.213  0.00  0.00     0.191 C 
ATOM     16  O2  <0> d          -1.732   2.266  -1.089  0.00  0.00    -0.647 OA
ATOM     17  O3  <0> d          -0.290   1.274  -2.438  0.00  0.00    -0.647 OA
ENDBRANCH  12  15
ENDBRANCH  10  12
ENDBRANCH   4   8
BRANCH   1  18
ATOM     18  C1  <0> d          -1.313   1.045   6.169  0.00  0.00    -0.072 C 
ATOM     19  H3  <0> d          -0.751   0.769   7.073  0.00  0.00     0.028 H 
ATOM     20  H4  <0> d          -1.986   0.222   5.890  0.00  0.00     0.028 H 
ATOM     21  H5  <0> d          -1.905   1.951   6.369  0.00  0.00     0.028 H 
ENDBRANCH   1  18
TORSDOF 4
