REMARK  2 active torsions:
REMARK  status: ('A' for Active; 'I' for Inactive)
REMARK    1  A    between atoms: C3_4  and  N3_10 
REMARK    2  A    between atoms: C4_6  and  C5_7 
ROOT
ATOM      1  C1  <0> d          -0.017   1.382   0.010  0.00  0.00    -0.041 A 
ATOM      2  C2  <0> d           1.192   2.061   0.002  0.00  0.00     0.023 A 
ATOM      3  N1  <0> d           2.320   1.371  -0.013  0.00  0.00    -0.075 NA
ATOM      4  C3  <0> d           2.303   0.045  -0.020  0.00  0.00     0.720 A 
ATOM      5  N2  <0> d           1.165  -0.634  -0.013  0.00  0.00    -0.068 NA
ATOM      6  C4  <0> d           0.002  -0.004   0.002  0.00  0.00     0.059 A 
ATOM      7  H1  <0> d          -0.953   1.921   0.026  0.00  0.00     0.088 H 
ATOM      8  H2  <0> d           1.212   3.141   0.007  0.00  0.00     0.115 H 
ENDROOT
BRANCH   6   9
ATOM      9  C5  <0> d          -1.287  -0.784   0.010  0.00  0.00    -0.011 A 
ATOM     10  C7  <0> d          -1.966  -1.042  -1.337  0.00  0.00    -0.056 A 
ATOM     11  C6  <0> d          -2.569  -0.034  -0.356  0.00  0.00    -0.056 A 
ATOM     12  H6  <0> d          -1.480  -0.646  -2.229  0.00  0.00     0.034 H 
ATOM     13  H7  <0> d          -2.485  -1.991  -1.466  0.00  0.00     0.034 H 
ATOM     14  H4  <0> d          -3.485  -0.321   0.160  0.00  0.00     0.034 H 
ATOM     15  H5  <0> d          -2.480   1.024  -0.603  0.00  0.00     0.034 H 
ATOM     16  H3  <0> d          -1.359  -1.565   0.767  0.00  0.00     0.049 H 
ENDBRANCH   6   9
BRANCH   4  17
ATOM     17  N3  <0> d           3.502  -0.645  -0.035  0.00  0.00    -0.231 N 
ATOM     18  H8  <0> d           4.342  -0.160  -0.040  0.00  0.00     0.174 HD
ATOM     19  H9  <0> d           3.503  -1.615  -0.040  0.00  0.00     0.174 HD
ENDBRANCH   4  17
TORSDOF 2
