REMARK  2 active torsions:
REMARK  status: ('A' for Active; 'I' for Inactive)
REMARK    1  A    between atoms: C1_1  and  C2_2 
REMARK    2  A    between atoms: C5_5  and  C8_8 
ROOT
ATOM      1  C2  <0> d           3.102  -4.220  -0.050  0.00  0.00    -0.062 A 
ATOM      2  C3  <0> d           3.922  -3.105  -0.051  0.00  0.00    -0.076 A 
ATOM      3  C4  <0> d           3.371  -1.840  -0.040  0.00  0.00    -0.070 A 
ATOM      4  C5  <0> d           1.986  -1.686  -0.025  0.00  0.00    -0.005 A 
ATOM      5  C6  <0> d           1.165  -2.812  -0.018  0.00  0.00    -0.070 A 
ATOM      6  C7  <0> d           1.727  -4.072  -0.036  0.00  0.00    -0.076 A 
ATOM      7  H4  <0> d           4.995  -3.226  -0.062  0.00  0.00     0.084 H 
ATOM      8  H5  <0> d           4.011  -0.971  -0.041  0.00  0.00     0.084 H 
ATOM      9  H6  <0> d           0.091  -2.698  -0.002  0.00  0.00     0.084 H 
ATOM     10  H7  <0> d           1.091  -4.946  -0.034  0.00  0.00     0.084 H 
ENDROOT
BRANCH   4  11
ATOM     11  C8  <0> d           1.387  -0.328  -0.013  0.00  0.00     0.096 A 
ATOM     12  N1  <0> d           2.028   0.815  -0.013  0.00  0.00    -0.128 NA
ATOM     13  O1  <0> d           1.263   1.750  -0.001  0.00  0.00    -0.225 OA
ATOM     14  C10 <0> d          -0.016   1.348   0.009  0.00  0.00     0.046 A 
ATOM     15  C9  <0> d           0.002  -0.004   0.002  0.00  0.00    -0.029 A 
ATOM     16  H9  <0> d          -0.891   1.981   0.017  0.00  0.00     0.126 H 
ATOM     17  H8  <0> d          -0.840  -0.681   0.006  0.00  0.00     0.090 H 
ENDBRANCH   4  11
BRANCH   1  18
ATOM     18  C1  <0> d           3.710  -5.598  -0.062  0.00  0.00    -0.051 C 
ATOM     19  H1  <0> d           3.866  -5.936   0.962  0.00  0.00     0.033 H 
ATOM     20  H2  <0> d           3.037  -6.287  -0.574  0.00  0.00     0.033 H 
ATOM     21  H3  <0> d           4.666  -5.569  -0.585  0.00  0.00     0.033 H 
ENDBRANCH   1  18
TORSDOF 2
