REMARK  0 active torsions:
REMARK  status: ('A' for Active; 'I' for Inactive)
ROOT
ATOM      1  C1  <0> d           2.220   1.047  -0.013  0.00  0.00    -0.074 A 
ATOM      2  C2  <0> d           1.301   2.080   0.001  0.00  0.00    -0.055 A 
ATOM      3  C3  <0> d          -0.022   1.781   0.012  0.00  0.00     0.074 A 
ATOM      4  S1  <0> d           0.002  -0.004   0.002  0.00  0.00    -0.090 SA
ATOM      5  C4  <0> d           1.773  -0.232  -0.016  0.00  0.00    -0.043 A 
ATOM      6 Cl1  <0> d          -1.385   2.856   0.025  0.00  0.00    -0.076 Cl
ATOM      7  H1  <0> d           3.280   1.256  -0.022  0.00  0.00     0.084 H 
ATOM      8  H2  <0> d           1.631   3.108   0.003  0.00  0.00     0.086 H 
ATOM      9  H3  <0> d           2.340  -1.151  -0.027  0.00  0.00     0.095 H 
ENDROOT
TORSDOF 0
