REMARK  1 active torsions:
REMARK  status: ('A' for Active; 'I' for Inactive)
REMARK    1  A    between atoms: C4_4  and  O1_11 
ROOT
ATOM      1  C1  <0> d          -1.805  -0.204  -2.252  0.00  0.00    -0.065 C 
ATOM      2  C2  <0> d          -0.328   0.135  -2.431  0.00  0.00    -0.062 C 
ATOM      3  C3  <0> d           0.533  -0.502  -1.328  0.00  0.00    -0.036 C 
ATOM      4  C4  <0> d           0.002  -0.004   0.002  0.00  0.00     0.061 C 
ATOM      5  C5  <0> d           0.707  -0.517   1.253  0.00  0.00    -0.036 C 
ATOM      6  C6  <0> d          -0.400  -0.622   2.333  0.00  0.00    -0.062 C 
ATOM      7  C7  <0> d          -1.733  -0.245   1.631  0.00  0.00    -0.059 C 
ATOM      8  C8  <0> d          -1.443  -0.550   0.157  0.00  0.00    -0.024 C 
ATOM      9  H1  <0> d          -1.466  -1.625  -0.020  0.00  0.00     0.044 H 
ATOM     10  C9  <0> d          -2.306   0.186  -0.852  0.00  0.00    -0.059 C 
ATOM     11  H2  <0> d          -1.944  -1.276  -2.394  0.00  0.00     0.033 H 
ATOM     12  H3  <0> d          -2.387   0.333  -3.001  0.00  0.00     0.033 H 
ATOM     13  H4  <0> d           0.006  -0.232  -3.401  0.00  0.00     0.033 H 
ATOM     14  H5  <0> d          -0.204   1.217  -2.399  0.00  0.00     0.033 H 
ATOM     15  H6  <0> d           1.574  -0.200  -1.448  0.00  0.00     0.037 H 
ATOM     16  H7  <0> d           0.453  -1.588  -1.376  0.00  0.00     0.037 H 
ATOM     17  H8  <0> d           1.145  -1.497   1.065  0.00  0.00     0.037 H 
ATOM     18  H9  <0> d           1.477   0.187   1.569  0.00  0.00     0.037 H 
ATOM     19  H10 <0> d          -0.454  -1.641   2.715  0.00  0.00     0.033 H 
ATOM     20  H11 <0> d          -0.195   0.074   3.147  0.00  0.00     0.033 H 
ATOM     21  H12 <0> d          -2.551  -0.864   1.999  0.00  0.00     0.033 H 
ATOM     22  H13 <0> d          -1.957   0.813   1.772  0.00  0.00     0.033 H 
ATOM     23  H14 <0> d          -3.349  -0.111  -0.735  0.00  0.00     0.033 H 
ATOM     24  H15 <0> d          -2.208   1.262  -0.709  0.00  0.00     0.033 H 
ENDROOT
BRANCH   4  25
ATOM     25  O1  <0> d          -0.017   1.425   0.010  0.00  0.00    -0.389 OA
ATOM     26  H16 <0> d           0.861   1.830   0.004  0.00  0.00     0.210 HD
ENDBRANCH   4  25
TORSDOF 1
