REMARK  5 active torsions:
REMARK  status: ('A' for Active; 'I' for Inactive)
REMARK    1  A    between atoms: C1_1  and  C2_2 
REMARK    2  A    between atoms: C2_2  and  C3_3 
REMARK    3  A    between atoms: C3_3  and  C4_4 
REMARK    4  A    between atoms: C6_8  and  C9_11 
REMARK    5  A    between atoms: C7_9  and  C8_10 
ROOT
ATOM      1  C4  <0> d          -1.413  -2.041   0.005  0.00  0.00    -0.035 A 
ATOM      2  C5  <0> d          -1.501  -2.834  -1.082  0.00  0.00    -0.016 A 
ATOM      3  N1  <0> d          -1.445  -4.132  -0.668  0.00  0.00    -0.368 N 
ATOM      4  H1  <0> d          -1.486  -4.911  -1.244  0.00  0.00     0.165 HD
ATOM      5  C6  <0> d          -1.320  -4.153   0.689  0.00  0.00     0.011 A 
ATOM      6  C7  <0> d          -1.292  -2.879   1.130  0.00  0.00    -0.032 A 
ATOM      7  H9  <0> d          -1.600  -2.499  -2.104  0.00  0.00     0.112 H 
ENDROOT
BRANCH   1   8
ATOM      8  C3  <0> d          -1.433  -0.534   0.013  0.00  0.00    -0.039 C 
ATOM      9  H7  <0> d          -1.944  -0.182   0.910  0.00  0.00     0.040 H 
ATOM     10  H8  <0> d          -1.960  -0.173  -0.870  0.00  0.00     0.040 H 
BRANCH   8  11
ATOM     11  C2  <0> d           0.002  -0.004   0.002  0.00  0.00    -0.065 C 
ATOM     12  H5  <0> d           0.512  -0.356  -0.895  0.00  0.00     0.032 H 
ATOM     13  H6  <0> d           0.529  -0.365   0.885  0.00  0.00     0.032 H 
BRANCH  11  14
ATOM     14  C1  <0> d          -0.019   1.526   0.010  0.00  0.00    -0.076 C 
ATOM     15  H2  <0> d           1.004   1.903   0.003  0.00  0.00     0.027 H 
ATOM     16  H3  <0> d          -0.546   1.887  -0.873  0.00  0.00     0.027 H 
ATOM     17  H4  <0> d          -0.529   1.877   0.907  0.00  0.00     0.027 H 
ENDBRANCH  11  14
ENDBRANCH   8  11
ENDBRANCH   1   8
BRANCH   6  18
ATOM     18  C8  <0> d          -1.158  -2.434   2.564  0.00  0.00    -0.049 C 
ATOM     19  H10 <0> d          -2.149  -2.341   3.009  0.00  0.00     0.033 H 
ATOM     20  H11 <0> d          -0.578  -3.170   3.120  0.00  0.00     0.033 H 
ATOM     21  H12 <0> d          -0.651  -1.470   2.599  0.00  0.00     0.033 H 
ENDBRANCH   6  18
BRANCH   5  22
ATOM     22  C9  <0> d          -1.224  -5.388   1.548  0.00  0.00    -0.037 C 
ATOM     23  H13 <0> d          -0.178  -5.671   1.662  0.00  0.00     0.035 H 
ATOM     24  H14 <0> d          -1.654  -5.182   2.529  0.00  0.00     0.035 H 
ATOM     25  H15 <0> d          -1.772  -6.203   1.075  0.00  0.00     0.035 H 
ENDBRANCH   5  22
TORSDOF 5
