REMARK  2 active torsions:
REMARK  status: ('A' for Active; 'I' for Inactive)
REMARK    1  A    between atoms: C1_1  and  C2_2 
REMARK    2  A    between atoms: C2_2  and  C3_4 
ROOT
ATOM      1  C3  <0> d          -0.198   1.216   2.578  0.00  0.00     0.027 A 
ATOM      2  C4  <0> d          -0.846   1.663   3.739  0.00  0.00    -0.065 A 
ATOM      3  C5  <0> d          -0.320   1.302   4.965  0.00  0.00    -0.044 A 
ATOM      4  C6  <0> d           0.829   0.512   5.007  0.00  0.00     0.136 A 
ATOM      5  N1  <0> d           1.419   0.106   3.888  0.00  0.00    -0.249 NA
ATOM      6  C7  <0> d           0.948   0.422   2.703  0.00  0.00     0.017 A 
ATOM      7  C8  <0> d           1.381   0.134   6.274  0.00  0.00     0.119 C 
ATOM      8  N2  <0> d           1.818  -0.165   7.278  0.00  0.00    -0.190 NA
ATOM      9  H4  <0> d          -1.735   2.273   3.676  0.00  0.00     0.085 H 
ATOM     10  H5  <0> d          -0.793   1.628   5.879  0.00  0.00     0.088 H 
ATOM     11  H6  <0> d           1.453   0.069   1.816  0.00  0.00     0.116 H 
ENDROOT
BRANCH   1  12
ATOM     12  C2  <0> d          -0.718   1.572   1.248  0.00  0.00     0.157 C 
ATOM     13  O1  <0> d          -1.714   2.256   1.150  0.00  0.00    -0.293 OA
BRANCH  12  14
ATOM     14  C1  <0> d          -0.013   1.086   0.008  0.00  0.00    -0.017 C 
ATOM     15  H1  <0> d           0.001   0.086   0.003  0.00  0.00     0.038 H 
ATOM     16  H2  <0> d           1.010   1.463   0.000  0.00  0.00     0.038 H 
ATOM     17  H3  <0> d          -0.540   1.447  -0.875  0.00  0.00     0.038 H 
ENDBRANCH  12  14
ENDBRANCH   1  12
TORSDOF 2
