REMARK  2 active torsions:
REMARK  status: ('A' for Active; 'I' for Inactive)
REMARK    1  A    between atoms: C1_1  and  C2_2 
REMARK    2  A    between atoms: C5_5  and  C7_9 
ROOT
ATOM      1  C2  <0> d           2.283   1.378  -0.852  0.00  0.00     0.003 C 
ATOM      2  C3  <0> d           2.008   0.244  -1.450  0.00  0.00    -0.028 C 
ATOM      3  C4  <0> d           0.701  -0.475  -1.276  0.00  0.00    -0.046 C 
ATOM      4  C5  <0> d           0.002  -0.004   0.002  0.00  0.00     0.048 C 
ATOM      5  H1  <0> d           0.526  -0.389   0.889  0.00  0.00     0.059 H 
ATOM      6  C6  <0> d          -0.019   1.531   0.011  0.00  0.00     0.027 C 
ATOM      7  N1  <0> d           1.376   1.996  -0.000  0.00  0.00    -0.298 NA
ATOM      8  H3  <0> d           2.831  -0.405  -1.115  0.00  0.00     0.041 H 
ATOM      9  H5  <0> d           2.149   0.496  -2.511  0.00  0.00     0.041 H 
ATOM     10  H6  <0> d           0.891  -1.556  -1.212  0.00  0.00     0.034 H 
ATOM     11  H7  <0> d           0.058  -0.266  -2.143  0.00  0.00     0.034 H 
ATOM     12  H8  <0> d          -0.551   1.896  -0.881  0.00  0.00     0.068 H 
ATOM     13  H9  <0> d          -0.533   1.886   0.915  0.00  0.00     0.068 H 
ENDROOT
BRANCH   1  14
ATOM     14  C1  <0> d           3.620   2.030  -1.096  0.00  0.00    -0.039 C 
ATOM     15  H2  <0> d           3.682   2.965  -0.521  0.00  0.00     0.035 H 
ATOM     16  H4  <0> d           3.730   2.250  -2.168  0.00  0.00     0.035 H 
ATOM     17  H10 <0> d           4.423   1.349  -0.777  0.00  0.00     0.035 H 
ENDBRANCH   1  14
BRANCH   4  18
ATOM     18  C7  <0> d          -1.410  -0.529   0.029  0.00  0.00     0.178 C 
ATOM     19  O1  <0> d          -2.341   0.241   0.053  0.00  0.00    -0.648 OA
ATOM     20  O2  <0> d          -1.634  -1.853   0.027  0.00  0.00    -0.648 OA
ENDBRANCH   4  18
TORSDOF 2
