REMARK  4 active torsions:
REMARK  status: ('A' for Active; 'I' for Inactive)
REMARK    1  A    between atoms: C1_1  and  C2_2 
REMARK    2  A    between atoms: C3_3  and  C4_4 
REMARK    3  A    between atoms: C4_4  and  C5_5 
REMARK    4  A    between atoms: C5_5  and  C6_6 
ROOT
ATOM      1  C5  <0> d          -2.580   3.707   0.047  0.00  0.00    -0.022 C 
ATOM      2  H8  <0> d          -2.444   4.795  -0.038  0.00  0.00     0.042 H 
ATOM      3  H9  <0> d          -3.095   3.475   0.991  0.00  0.00     0.042 H 
ENDROOT
BRANCH   1   4
ATOM      4  C4  <0> d          -3.419   3.204  -1.129  0.00  0.00    -0.045 C 
ATOM      5  H6  <0> d          -3.556   2.115  -1.044  0.00  0.00     0.039 H 
ATOM      6  H7  <0> d          -2.904   3.436  -2.073  0.00  0.00     0.039 H 
BRANCH   4   7
ATOM      7  C3  <0> d          -4.765   3.881  -1.112  0.00  0.00    -0.107 C 
ATOM      8  C2  <0> d          -5.186   4.529  -2.171  0.00  0.00    -0.110 C 
ATOM      9  H4  <0> d          -4.557   4.578  -3.072  0.00  0.00     0.075 H 
ATOM     10  H5  <0> d          -5.394   3.833  -0.211  0.00  0.00     0.076 H 
BRANCH   8  11
ATOM     11  C1  <0> d          -6.532   5.207  -2.154  0.00  0.00    -0.060 C 
ATOM     12  H1  <0> d          -6.709   5.694  -3.124  0.00  0.00     0.032 H 
ATOM     13  H2  <0> d          -6.551   5.962  -1.355  0.00  0.00     0.032 H 
ATOM     14  H3  <0> d          -7.317   4.458  -1.970  0.00  0.00     0.032 H 
ENDBRANCH   8  11
ENDBRANCH   4   7
ENDBRANCH   1   4
BRANCH   1  15
ATOM     15  C6  <0> d          -1.234   3.029   0.030  0.00  0.00     0.034 A 
ATOM     16  N1  <0> d          -1.168   1.712   0.017  0.00  0.00    -0.266 NA
ATOM     17  C10 <0> d          -0.013   1.076   0.008  0.00  0.00     0.002 A 
ATOM     18  C9  <0> d           1.179   1.775   0.000  0.00  0.00    -0.066 A 
ATOM     19  H13 <0> d           0.002  -0.004   0.002  0.00  0.00     0.114 H 
ATOM     20  C8  <0> d           1.149   3.161   0.008  0.00  0.00    -0.080 A 
ATOM     21  H12 <0> d           2.122   1.248  -0.012  0.00  0.00     0.085 H 
ATOM     22  C7  <0> d          -0.084   3.795   0.023  0.00  0.00    -0.059 A 
ATOM     23  H11 <0> d           2.065   3.734   0.002  0.00  0.00     0.083 H 
ATOM     24  H10 <0> d          -0.144   4.873   0.029  0.00  0.00     0.086 H 
ENDBRANCH   1  15
TORSDOF 4
