REMARK  0 active torsions:
REMARK  status: ('A' for Active; 'I' for Inactive)
ROOT
ATOM      1  C1  <0> d          -0.016   1.342   0.009  0.00  0.00     0.343 A 
ATOM      2  O1  <0> d          -1.011   2.040   0.018  0.00  0.00    -0.245 OA
ATOM      3  N1  <0> d           0.002  -0.004   0.002  0.00  0.00    -0.258 N 
ATOM      4  H1  <0> d          -0.781  -0.577   0.007  0.00  0.00     0.175 HD
ATOM      5  C2  <0> d           1.279  -0.429  -0.013  0.00  0.00     0.343 A 
ATOM      6  O2  <0> d           1.642  -1.589  -0.022  0.00  0.00    -0.245 OA
ATOM      7  N2  <0> d           2.086   0.651  -0.014  0.00  0.00    -0.247 N 
ATOM      8  H2  <0> d           3.056   0.646  -0.024  0.00  0.00     0.192 HD
ATOM      9  N3  <0> d           1.258   1.784  -0.000  0.00  0.00    -0.247 N 
ATOM     10  H3  <0> d           1.547   2.709   0.002  0.00  0.00     0.192 HD
ENDROOT
TORSDOF 0
