REMARK  0 active torsions:
REMARK  status: ('A' for Active; 'I' for Inactive)
ROOT
ATOM      1  C1  <0> d          -0.017   1.378   0.010  0.00  0.00    -0.078 A 
ATOM      2  C2  <0> d           1.170   2.087   0.002  0.00  0.00    -0.043 A 
ATOM      3  C3  <0> d           2.379   1.414  -0.013  0.00  0.00     0.156 A 
ATOM      4  C4  <0> d           2.399   0.027  -0.021  0.00  0.00     0.176 A 
ATOM      5  C5  <0> d           1.209  -0.681  -0.013  0.00  0.00     0.075 A 
ATOM      6  C6  <0> d           0.002  -0.004   0.002  0.00  0.00    -0.059 A 
ATOM      7 Cl1  <0> d           1.231  -2.417  -0.023  0.00  0.00    -0.081 Cl
ATOM      8  F1  <0> d           3.578  -0.632  -0.036  0.00  0.00    -0.201 F 
ATOM      9  F2  <0> d           3.539   2.107  -0.021  0.00  0.00    -0.203 F 
ATOM     10  H1  <0> d          -0.960   1.904   0.026  0.00  0.00     0.083 H 
ATOM     11  H2  <0> d           1.154   3.167   0.008  0.00  0.00     0.088 H 
ATOM     12  H3  <0> d          -0.926  -0.556   0.008  0.00  0.00     0.086 H 
ENDROOT
TORSDOF 0
