REMARK  3 active torsions:
REMARK  status: ('A' for Active; 'I' for Inactive)
REMARK    1  A    between atoms: C1_1  and  C2_2 
REMARK    2  A    between atoms: C2_2  and  C3_3 
REMARK    3  A    between atoms: C4_5  and  C5_8 
ROOT
ATOM      1  C3  <0> d           0.000   1.080   2.488  0.00  0.00     0.156 A 
ATOM      2  N1  <0> d          -0.233  -0.072   3.133  0.00  0.00    -0.199 NA
ATOM      3  C4  <0> d           0.629  -0.101   4.129  0.00  0.00     0.273 A 
ATOM      4  O1  <0> d           1.343   1.032   4.055  0.00  0.00    -0.184 OA
ATOM      5  N2  <0> d           0.966   1.691   3.109  0.00  0.00    -0.111 NA
ENDROOT
BRANCH   1   6
ATOM      6  C2  <0> d          -0.729   1.579   1.267  0.00  0.00    -0.009 C 
ATOM      7  H4  <0> d          -0.744   2.679   1.273  0.00  0.00     0.044 H 
ATOM      8  H5  <0> d          -1.761   1.198   1.275  0.00  0.00     0.044 H 
BRANCH   6   9
ATOM      9  C1  <0> d          -0.013   1.086   0.008  0.00  0.00    -0.070 C 
ATOM     10  H1  <0> d          -0.545   1.450  -0.883  0.00  0.00     0.028 H 
ATOM     11  H2  <0> d           0.002  -0.014   0.002  0.00  0.00     0.028 H 
ATOM     12  H3  <0> d           1.019   1.466   0.000  0.00  0.00     0.028 H 
ENDBRANCH   6   9
ENDBRANCH   1   6
BRANCH   3  13
ATOM     13  C5  <0> d           0.777  -1.175   5.139  0.00  0.00     0.257 C 
ATOM     14  O2  <0> d           0.062  -2.155   5.093  0.00  0.00    -0.641 OA
ATOM     15  O3  <0> d           1.705  -1.064   6.110  0.00  0.00    -0.641 OA
ENDBRANCH   3  13
TORSDOF 3
