REMARK  3 active torsions:
REMARK  status: ('A' for Active; 'I' for Inactive)
REMARK    1  A    between atoms: C1_1  and  C2_2 
REMARK    2  A    between atoms: C5_5  and  C8_8 
REMARK    3  A    between atoms: C5_5  and  O1_9 
ROOT
ATOM      1  C2  <0> d          -1.457  -0.520  -2.486  0.00  0.00    -0.058 C 
ATOM      2  C3  <0> d          -2.173  -0.027  -1.227  0.00  0.00    -0.059 C 
ATOM      3  C4  <0> d          -1.433  -0.534   0.013  0.00  0.00    -0.036 C 
ATOM      4  C5  <0> d           0.002  -0.004   0.002  0.00  0.00     0.054 C 
ATOM      5  C6  <0> d           0.718  -0.497  -1.257  0.00  0.00    -0.036 C 
ATOM      6  C7  <0> d          -0.022   0.009  -2.496  0.00  0.00    -0.059 C 
ATOM      7  H4  <0> d          -1.442  -1.610  -2.491  0.00  0.00     0.039 H 
ATOM      8  H5  <0> d          -3.196  -0.404  -1.219  0.00  0.00     0.033 H 
ATOM      9  H6  <0> d          -2.188   1.063  -1.221  0.00  0.00     0.033 H 
ATOM     10  H7  <0> d          -1.419  -1.623   0.007  0.00  0.00     0.037 H 
ATOM     11  H8  <0> d          -1.944  -0.182   0.910  0.00  0.00     0.037 H 
ATOM     12  H9  <0> d           1.741  -0.120  -1.264  0.00  0.00     0.037 H 
ATOM     13  H10 <0> d           0.733  -1.587  -1.263  0.00  0.00     0.037 H 
ATOM     14  H11 <0> d           0.488  -0.342  -3.393  0.00  0.00     0.033 H 
ATOM     15  H12 <0> d          -0.037   1.099  -2.490  0.00  0.00     0.033 H 
ENDROOT
BRANCH   4  16
ATOM     16  C8  <0> d          -0.019   1.526   0.010  0.00  0.00    -0.048 C 
ATOM     17  H13 <0> d           1.004   1.903   0.003  0.00  0.00     0.031 H 
ATOM     18  H14 <0> d          -0.546   1.887  -0.873  0.00  0.00     0.031 H 
ATOM     19  H15 <0> d          -0.529   1.877   0.907  0.00  0.00     0.031 H 
ENDBRANCH   4  16
BRANCH   4  20
ATOM     20  O1  <0> d           0.693  -0.477   1.160  0.00  0.00    -0.390 OA
ATOM     21  H16 <0> d           1.611  -0.180   1.219  0.00  0.00     0.210 HD
ENDBRANCH   4  20
BRANCH   1  22
ATOM     22  C1  <0> d          -2.197  -0.013  -3.725  0.00  0.00    -0.073 C 
ATOM     23  H1  <0> d          -2.212   1.077  -3.719  0.00  0.00     0.028 H 
ATOM     24  H2  <0> d          -1.687  -0.365  -4.622  0.00  0.00     0.028 H 
ATOM     25  H3  <0> d          -3.220  -0.391  -3.717  0.00  0.00     0.028 H 
ENDBRANCH   1  22
TORSDOF 3
