REMARK  1 active torsions:
REMARK  status: ('A' for Active; 'I' for Inactive)
REMARK    1  A    between atoms: C1_1  and  C2_2 
ROOT
ATOM      1  C2  <0> d           1.109   3.186   0.009  0.00  0.00     0.031 A 
ATOM      2  C3  <0> d           1.149   1.792   0.001  0.00  0.00    -0.057 A 
ATOM      3  C4  <0> d          -0.013   1.076   0.008  0.00  0.00    -0.051 A 
ATOM      4  C5  <0> d          -1.232   1.783   0.018  0.00  0.00     0.085 A 
ATOM      5  C6  <0> d          -1.198   3.199   0.030  0.00  0.00     0.085 A 
ATOM      6  N1  <0> d          -0.027   3.841   0.023  0.00  0.00    -0.252 NA
ATOM      7  C7  <0> d          -2.416   3.905   0.046  0.00  0.00    -0.051 A 
ATOM      8  C8  <0> d          -3.578   3.188   0.053  0.00  0.00    -0.064 A 
ATOM      9  C9  <0> d          -3.538   1.796   0.045  0.00  0.00     0.003 A 
ATOM     10  N2  <0> d          -2.402   1.141   0.030  0.00  0.00    -0.259 NA
ATOM     11  H4  <0> d           2.100   1.280  -0.011  0.00  0.00     0.086 H 
ATOM     12  H5  <0> d           0.002  -0.004   0.002  0.00  0.00     0.087 H 
ATOM     13  H6  <0> d          -2.431   4.985   0.052  0.00  0.00     0.087 H 
ATOM     14  H7  <0> d          -4.529   3.701   0.065  0.00  0.00     0.085 H 
ATOM     15  H8  <0> d          -4.465   1.242   0.050  0.00  0.00     0.114 H 
ENDROOT
BRANCH   1  16
ATOM     16  C1  <0> d           2.403   3.958   0.001  0.00  0.00    -0.035 C 
ATOM     17  H1  <0> d           2.705   4.151  -1.028  0.00  0.00     0.035 H 
ATOM     18  H2  <0> d           2.263   4.906   0.522  0.00  0.00     0.035 H 
ATOM     19  H3  <0> d           3.176   3.377   0.505  0.00  0.00     0.035 H 
ENDBRANCH   1  16
TORSDOF 1
