REMARK  1 active torsions:
REMARK  status: ('A' for Active; 'I' for Inactive)
REMARK    1  A    between atoms: N3_9  and  N4_10 
ROOT
ATOM      1  C1  <0> d          -0.016   1.360   0.009  0.00  0.00    -0.081 A 
ATOM      2  C2  <0> d           1.167   2.086   0.002  0.00  0.00    -0.081 A 
ATOM      3  C3  <0> d           2.375   1.447  -0.013  0.00  0.00    -0.052 A 
ATOM      4  C4  <0> d           2.422   0.057  -0.021  0.00  0.00     0.101 A 
ATOM      5  C5  <0> d           1.227  -0.684  -0.013  0.00  0.00     0.081 A 
ATOM      6  C6  <0> d           0.002  -0.004   0.002  0.00  0.00    -0.053 A 
ATOM      7  N1  <0> d           1.557  -1.991  -0.024  0.00  0.00    -0.258 N 
ATOM      8  N2  <0> d           2.836  -2.129  -0.037  0.00  0.00    -0.074 NA
ATOM      9  N3  <0> d           3.442  -0.864  -0.036  0.00  0.00    -0.180 N 
ATOM     10  H1  <0> d          -0.962   1.881   0.026  0.00  0.00     0.083 H 
ATOM     11  H2  <0> d           1.133   3.166   0.008  0.00  0.00     0.083 H 
ATOM     12  H3  <0> d           3.291   2.020  -0.020  0.00  0.00     0.087 H 
ATOM     13  H4  <0> d          -0.925  -0.558   0.007  0.00  0.00     0.087 H 
ATOM     14  H7  <0> d           0.920  -2.723  -0.021  0.00  0.00     0.191 HD
ENDROOT
BRANCH   9  15
ATOM     15  N4  <0> d           4.782  -0.600  -0.049  0.00  0.00    -0.224 NA
ATOM     16  H5  <0> d           5.146  -0.535   0.890  0.00  0.00     0.145 HD
ATOM     17  H6  <0> d           5.282  -1.294  -0.583  0.00  0.00     0.145 HD
ENDBRANCH   9  15
TORSDOF 1
