REMARK  2 active torsions:
REMARK  status: ('A' for Active; 'I' for Inactive)
REMARK    1  A    between atoms: C1_1  and  N1_2 
REMARK    2  A    between atoms: C8_9  and  N2_11 
ROOT
ATOM      1  N1  <0> d           3.415   2.334  -0.017  0.00  0.00    -0.360 N 
ATOM      2  C2  <0> d           2.871   3.590  -0.004  0.00  0.00    -0.020 A 
ATOM      3  C3  <0> d           1.532   3.508   0.008  0.00  0.00    -0.056 A 
ATOM      4  C4  <0> d           1.188   2.084   0.002  0.00  0.00    -0.006 A 
ATOM      5  C5  <0> d           2.411   1.389  -0.013  0.00  0.00     0.044 A 
ATOM      6  C6  <0> d           2.409  -0.002  -0.021  0.00  0.00    -0.054 A 
ATOM      7  C7  <0> d           1.216  -0.689  -0.014  0.00  0.00    -0.056 A 
ATOM      8  C8  <0> d           0.002  -0.004   0.002  0.00  0.00     0.026 A 
ATOM      9  C9  <0> d          -0.017   1.378   0.010  0.00  0.00    -0.046 A 
ATOM     10  H4  <0> d           3.437   4.510  -0.004  0.00  0.00     0.111 H 
ATOM     11  H5  <0> d           0.838   4.336   0.019  0.00  0.00     0.086 H 
ATOM     12  H6  <0> d           3.343  -0.543  -0.033  0.00  0.00     0.087 H 
ATOM     13  H7  <0> d           1.220  -1.769  -0.020  0.00  0.00     0.087 H 
ATOM     14  H8  <0> d          -0.957   1.909   0.017  0.00  0.00     0.088 H 
ENDROOT
BRANCH   1  15
ATOM     15  C1  <0> d           4.850   2.038  -0.032  0.00  0.00    -0.014 C 
ATOM     16  H1  <0> d           5.196   1.971  -1.064  0.00  0.00     0.057 H 
ATOM     17  H2  <0> d           5.390   2.833   0.481  0.00  0.00     0.057 H 
ATOM     18  H3  <0> d           5.031   1.090   0.474  0.00  0.00     0.057 H 
ENDBRANCH   1  15
BRANCH   8  19
ATOM     19  N2  <0> d          -1.202  -0.718   0.010  0.00  0.00    -0.399 N 
ATOM     20  H9  <0> d          -2.047  -0.243   0.020  0.00  0.00     0.156 HD
ATOM     21  H10 <0> d          -1.191  -1.688   0.004  0.00  0.00     0.156 HD
ENDBRANCH   8  19
TORSDOF 2
