REMARK  6 active torsions:
REMARK  status: ('A' for Active; 'I' for Inactive)
REMARK    1  A    between atoms: C1_1  and  C2_2 
REMARK    2  A    between atoms: C2_2  and  C3_3 
REMARK    3  A    between atoms: C2_2  and  C4_4 
REMARK    4  A    between atoms: C4_4  and  C5_6 
REMARK    5  A    between atoms: C4_4  and  N1_8 
REMARK       I    between atoms: N1_8  and  C6_9 
REMARK    6  A    between atoms: C6_9  and  C7_11 
ROOT
ATOM      1  C4  <0> d          -0.013   1.086   0.008  0.00  0.00     0.099 C 
ATOM      2  H1  <0> d           0.002  -0.004   0.002  0.00  0.00     0.090 H 
ENDROOT
BRANCH   1   3
ATOM      3  C2  <0> d          -0.753   1.593  -1.232  0.00  0.00    -0.032 C 
ATOM      4  H5  <0> d          -1.798   1.290  -1.179  0.00  0.00     0.042 H 
BRANCH   3   5
ATOM      5  C1  <0> d          -0.666   3.119  -1.289  0.00  0.00    -0.071 C 
ATOM      6  H2  <0> d           0.380   3.422  -1.341  0.00  0.00     0.028 H 
ATOM      7  H3  <0> d          -1.193   3.480  -2.172  0.00  0.00     0.028 H 
ATOM      8  H4  <0> d          -1.123   3.543  -0.394  0.00  0.00     0.028 H 
ENDBRANCH   3   5
BRANCH   3   9
ATOM      9  C3  <0> d          -0.111   0.998  -2.487  0.00  0.00    -0.071 C 
ATOM     10  H6  <0> d          -0.173  -0.089  -2.446  0.00  0.00     0.028 H 
ATOM     11  H7  <0> d          -0.639   1.359  -3.370  0.00  0.00     0.028 H 
ATOM     12  H8  <0> d           0.934   1.301  -2.539  0.00  0.00     0.028 H 
ENDBRANCH   3   9
ENDBRANCH   1   3
BRANCH   1  13
ATOM     13  C5  <0> d          -0.718   1.572   1.248  0.00  0.00     0.197 C 
ATOM     14  O1  <0> d          -0.133   2.270   2.041  0.00  0.00    -0.646 OA
ATOM     15  O3  <0> d          -1.997   1.229   1.471  0.00  0.00    -0.646 OA
ENDBRANCH   1  13
BRANCH   1  16
ATOM     16  N1  <0> d           1.362   1.593  -0.002  0.00  0.00    -0.346 N 
ATOM     17  C6  <0> d           2.318   0.933  -0.685  0.00  0.00     0.214 C 
ATOM     18  O2  <0> d           2.042  -0.081  -1.290  0.00  0.00    -0.274 OA
ATOM     19  H9  <0> d           1.583   2.404   0.482  0.00  0.00     0.163 HD
BRANCH  17  20
ATOM     20  C7  <0> d           3.732   1.454  -0.695  0.00  0.00    -0.003 C 
ATOM     21  H10 <0> d           4.285   1.023   0.139  0.00  0.00     0.040 H 
ATOM     22  H11 <0> d           4.215   1.178  -1.633  0.00  0.00     0.040 H 
ATOM     23  H12 <0> d           3.720   2.540  -0.600  0.00  0.00     0.040 H 
ENDBRANCH  17  20
ENDBRANCH   1  16
TORSDOF 6
