REMARK  0 active torsions:
REMARK  status: ('A' for Active; 'I' for Inactive)
ROOT
ATOM      1  C1  <0> d          -0.110  -0.494  -1.447  0.00  0.00    -0.032 C 
ATOM      2  C2  <0> d           0.874   0.290  -2.338  0.00  0.00    -0.002 C 
ATOM      3  C3  <0> d           2.203   0.386  -1.613  0.00  0.00     0.181 C 
ATOM      4  O1  <0> d           3.253   0.203  -2.180  0.00  0.00    -0.293 OA
ATOM      5  C4  <0> d           2.140   0.724  -0.128  0.00  0.00     0.189 C 
ATOM      6  H1  <0> d           3.068   0.797   0.237  0.00  0.00     0.141 H 
ATOM      7  O2  <0> d           1.365   1.935  -0.001  0.00  0.00    -0.352 OA
ATOM      8  C5  <0> d          -0.019   1.540   0.011  0.00  0.00     0.047 C 
ATOM      9  C6  <0> d           0.002  -0.004   0.002  0.00  0.00     0.063 C 
ATOM     10  H2  <0> d          -0.772  -0.427   0.643  0.00  0.00     0.086 H 
ATOM     11  O3  <0> d           1.333  -0.312   0.482  0.00  0.00    -0.347 OA
ATOM     12  H3  <0> d           0.152  -1.551  -1.495  0.00  0.00     0.037 H 
ATOM     13  H4  <0> d          -1.132  -0.356  -1.800  0.00  0.00     0.037 H 
ATOM     14  H5  <0> d           0.511   1.207  -2.507  0.00  0.00     0.044 H 
ATOM     15  H6  <0> d           1.011  -0.215  -3.294  0.00  0.00     0.044 H 
ATOM     16  H7  <0> d          -0.527   1.916  -0.877  0.00  0.00     0.078 H 
ATOM     17  H8  <0> d          -0.510   1.906   0.912  0.00  0.00     0.078 H 
ENDROOT
TORSDOF 0
