REMARK  3 active torsions:
REMARK  status: ('A' for Active; 'I' for Inactive)
REMARK    1  A    between atoms: C1_1  and  O1_2 
REMARK    2  A    between atoms: O1_2  and  C2_3 
REMARK    3  A    between atoms: C2_3  and  C3_5 
ROOT
ATOM      1  C3  <0> d          -1.244  -2.135   0.003  0.00  0.00     0.215 C 
ATOM      2  H1  <0> d          -0.491  -2.540  -0.673  0.00  0.00     0.104 H 
ATOM      3  C4  <0> d          -1.038  -2.690   1.434  0.00  0.00    -0.025 C 
ATOM      4  C5  <0> d          -1.735  -4.073   1.337  0.00  0.00    -0.038 C 
ATOM      5  C6  <0> d          -2.927  -3.797   0.397  0.00  0.00     0.113 C 
ATOM      6  N1  <0> d          -2.592  -2.596  -0.393  0.00  0.00     0.097 N 
ATOM      7  H5  <0> d           0.022  -2.802   1.661  0.00  0.00     0.036 H 
ATOM      8  H6  <0> d          -1.529  -2.057   2.173  0.00  0.00     0.036 H 
ATOM      9  H7  <0> d          -1.063  -4.813   0.901  0.00  0.00     0.035 H 
ATOM     10  H8  <0> d          -2.084  -4.398   2.317  0.00  0.00     0.035 H 
ATOM     11  H9  <0> d          -3.079  -4.647  -0.268  0.00  0.00     0.079 H 
ATOM     12  H10 <0> d          -3.828  -3.617   0.984  0.00  0.00     0.079 H 
ATOM     13  H11 <0> d          -3.278  -1.869  -0.255  0.00  0.00     0.317 HD
ENDROOT
BRANCH   1  14
ATOM     14  C2  <0> d          -1.185  -0.630   0.010  0.00  0.00     0.292 C 
ATOM     15  O2  <0> d          -2.208   0.015   0.023  0.00  0.00    -0.263 OA
BRANCH  14  16
ATOM     16  O1  <0> d           0.002  -0.004   0.002  0.00  0.00    -0.325 OA
BRANCH  16  17
ATOM     17  C1  <0> d          -0.017   1.425   0.010  0.00  0.00     0.013 C 
ATOM     18  H2  <0> d           1.005   1.802   0.002  0.00  0.00     0.067 H 
ATOM     19  H3  <0> d          -0.544   1.786  -0.873  0.00  0.00     0.067 H 
ATOM     20  H4  <0> d          -0.527   1.776   0.907  0.00  0.00     0.067 H 
ENDBRANCH  16  17
ENDBRANCH  14  16
ENDBRANCH   1  14
TORSDOF 3
