REMARK  2 active torsions:
REMARK  status: ('A' for Active; 'I' for Inactive)
REMARK    1  A    between atoms: C1_1  and  O1_2 
REMARK    2  A    between atoms: O1_2  and  C2_3 
ROOT
ATOM      1  C2  <0> d          -0.787   2.892   1.346  0.00  0.00     0.069 A 
ATOM      2  C3  <0> d          -0.246   3.749   0.383  0.00  0.00    -0.049 A 
ATOM      3  C4  <0> d          -0.341   5.099   0.514  0.00  0.00    -0.052 A 
ATOM      4  C5  <0> d          -0.982   5.649   1.639  0.00  0.00     0.067 A 
ATOM      5  C6  <0> d          -1.525   4.780   2.618  0.00  0.00    -0.005 A 
ATOM      6  C7  <0> d          -1.417   3.391   2.451  0.00  0.00    -0.039 A 
ATOM      7  C8  <0> d          -2.166   5.335   3.742  0.00  0.00    -0.069 A 
ATOM      8  C9  <0> d          -2.234   6.695   3.839  0.00  0.00    -0.065 A 
ATOM      9  C10 <0> d          -1.679   7.492   2.841  0.00  0.00     0.003 A 
ATOM     10  N1  <0> d          -1.083   6.973   1.795  0.00  0.00    -0.260 NA
ATOM     11  H4  <0> d           0.252   3.332  -0.480  0.00  0.00     0.087 H 
ATOM     12  H5  <0> d           0.079   5.747  -0.241  0.00  0.00     0.087 H 
ATOM     13  H6  <0> d          -1.827   2.721   3.192  0.00  0.00     0.089 H 
ATOM     14  H7  <0> d          -2.591   4.702   4.507  0.00  0.00     0.085 H 
ATOM     15  H8  <0> d          -2.718   7.153   4.689  0.00  0.00     0.085 H 
ATOM     16  H9  <0> d          -1.741   8.567   2.931  0.00  0.00     0.114 H 
ENDROOT
BRANCH   1  17
ATOM     17  O1  <0> d          -0.682   1.547   1.184  0.00  0.00    -0.356 OA
BRANCH  17  18
ATOM     18  C1  <0> d          -0.013   1.086   0.008  0.00  0.00     0.010 C 
ATOM     19  H1  <0> d           0.002  -0.004   0.002  0.00  0.00     0.066 H 
ATOM     20  H2  <0> d           1.010   1.463   0.000  0.00  0.00     0.066 H 
ATOM     21  H3  <0> d          -0.540   1.447  -0.875  0.00  0.00     0.066 H 
ENDBRANCH  17  18
ENDBRANCH   1  17
TORSDOF 2
