REMARK  2 active torsions:
REMARK  status: ('A' for Active; 'I' for Inactive)
REMARK    1  A    between atoms: C2_2  and  C3_3 
REMARK    2  A    between atoms: C3_3  and  N1_4 
ROOT
ATOM      1  N1  <0> d           1.367  -1.676   1.111  0.00  0.00    -0.276 N 
ATOM      2  C4  <0> d           1.609  -3.002   1.032  0.00  0.00     0.021 A 
ATOM      3  C5  <0> d           1.570  -3.504   2.289  0.00  0.00     0.070 A 
ATOM      4  C6  <0> d           1.295  -2.449   3.165  0.00  0.00     0.044 A 
ATOM      5  N2  <0> d           1.179  -1.352   2.461  0.00  0.00    -0.183 NA
ATOM      6 Cl1  <0> d           1.817  -5.164   2.734  0.00  0.00    -0.081 Cl
ATOM      7  H6  <0> d           1.800  -3.562   0.128  0.00  0.00     0.116 H 
ATOM      8  H7  <0> d           1.199  -2.525   4.238  0.00  0.00     0.120 H 
ENDROOT
BRANCH   1   9
ATOM      9  C3  <0> d           1.317  -0.740  -0.015  0.00  0.00     0.031 C 
ATOM     10  H4  <0> d           1.413  -1.291  -0.950  0.00  0.00     0.073 H 
ATOM     11  H5  <0> d           2.135  -0.024   0.071  0.00  0.00     0.073 H 
BRANCH   9  12
ATOM     12  C2  <0> d           0.002  -0.004   0.002  0.00  0.00    -0.093 C 
ATOM     13  C1  <0> d          -0.016   1.306   0.009  0.00  0.00    -0.123 C 
ATOM     14  H1  <0> d           0.912   1.859   0.003  0.00  0.00     0.066 H 
ATOM     15  H2  <0> d          -0.958   1.833   0.017  0.00  0.00     0.066 H 
ATOM     16  H3  <0> d          -0.926  -0.557   0.008  0.00  0.00     0.078 H 
ENDBRANCH   9  12
ENDBRANCH   1   9
TORSDOF 2
