REMARK  2 active torsions:
REMARK  status: ('A' for Active; 'I' for Inactive)
REMARK    1  A    between atoms: C1_1  and  C2_2 
REMARK    2  A    between atoms: N1_5  and  C8_11 
ROOT
ATOM      1  C2  <0> d          -0.017   1.388   0.010  0.00  0.00    -0.034 A 
ATOM      2  C3  <0> d           1.195   2.081   0.002  0.00  0.00    -0.060 A 
ATOM      3  C4  <0> d           2.368   1.400  -0.013  0.00  0.00    -0.017 A 
ATOM      4  N1  <0> d           2.395   0.045  -0.021  0.00  0.00    -0.328 N 
ATOM      5  C5  <0> d           1.255  -0.672  -0.013  0.00  0.00     0.268 A 
ATOM      6  O1  <0> d           1.298  -1.890  -0.021  0.00  0.00    -0.266 OA
ATOM      7  C6  <0> d           0.002  -0.004   0.002  0.00  0.00     0.118 A 
ATOM      8  C7  <0> d          -1.221  -0.749   0.009  0.00  0.00     0.105 C 
ATOM      9  N2  <0> d          -2.191  -1.341   0.015  0.00  0.00    -0.191 NA
ATOM     10  H4  <0> d           1.198   3.161   0.008  0.00  0.00     0.086 H 
ATOM     11  H5  <0> d           3.299   1.948  -0.019  0.00  0.00     0.111 H 
ENDROOT
BRANCH   1  12
ATOM     12  C1  <0> d          -1.325   2.136   0.020  0.00  0.00    -0.050 C 
ATOM     13  H1  <0> d          -1.636   2.311   1.050  0.00  0.00     0.033 H 
ATOM     14  H2  <0> d          -1.202   3.092  -0.489  0.00  0.00     0.033 H 
ATOM     15  H3  <0> d          -2.085   1.546  -0.493  0.00  0.00     0.033 H 
ENDBRANCH   1  12
BRANCH   4  16
ATOM     16  C8  <0> d           3.684  -0.651  -0.037  0.00  0.00    -0.011 C 
ATOM     17  H6  <0> d           3.993  -0.818  -1.069  0.00  0.00     0.057 H 
ATOM     18  H7  <0> d           4.431  -0.043   0.473  0.00  0.00     0.057 H 
ATOM     19  H8  <0> d           3.585  -1.610   0.472  0.00  0.00     0.057 H 
ENDBRANCH   4  16
TORSDOF 2
