REMARK  1 active torsions:
REMARK  status: ('A' for Active; 'I' for Inactive)
REMARK    1  A    between atoms: C1_1  and  C2_2 
ROOT
ATOM      1  C2  <0> d           0.002  -0.004   0.002  0.00  0.00     0.033 C 
ATOM      2  C3  <0> d           0.718  -0.497  -1.257  0.00  0.00    -0.046 C 
ATOM      3  C4  <0> d           0.739  -2.027  -1.265  0.00  0.00    -0.063 C 
ATOM      4  C5  <0> d           1.479  -2.534  -0.026  0.00  0.00    -0.065 C 
ATOM      5  C6  <0> d           0.763  -2.041   1.233  0.00  0.00    -0.063 C 
ATOM      6  C7  <0> d           0.742  -0.511   1.242  0.00  0.00    -0.046 C 
ATOM      7 Cl1  <0> d          -1.689  -0.628   0.015  0.00  0.00    -0.120 Cl
ATOM      8  H4  <0> d           0.191  -0.136  -2.140  0.00  0.00     0.035 H 
ATOM      9  H5  <0> d           1.741  -0.120  -1.264  0.00  0.00     0.035 H 
ATOM     10  H6  <0> d          -0.284  -2.405  -1.258  0.00  0.00     0.033 H 
ATOM     11  H7  <0> d           1.249  -2.379  -2.162  0.00  0.00     0.033 H 
ATOM     12  H8  <0> d           1.494  -3.624  -0.032  0.00  0.00     0.033 H 
ATOM     13  H9  <0> d           2.502  -2.157  -0.033  0.00  0.00     0.033 H 
ATOM     14  H10 <0> d          -0.260  -2.418   1.241  0.00  0.00     0.033 H 
ATOM     15  H11 <0> d           1.290  -2.402   2.116  0.00  0.00     0.033 H 
ATOM     16  H12 <0> d           1.765  -0.134   1.234  0.00  0.00     0.035 H 
ATOM     17  H13 <0> d           0.232  -0.159   2.138  0.00  0.00     0.035 H 
ENDROOT
BRANCH   1  18
ATOM     18  C1  <0> d          -0.019   1.526   0.010  0.00  0.00    -0.056 C 
ATOM     19  H1  <0> d           1.004   1.903   0.003  0.00  0.00     0.029 H 
ATOM     20  H2  <0> d          -0.546   1.887  -0.873  0.00  0.00     0.029 H 
ATOM     21  H3  <0> d          -0.529   1.877   0.907  0.00  0.00     0.029 H 
ENDBRANCH   1  18
TORSDOF 1
