REMARK  8 active torsions:
REMARK  status: ('A' for Active; 'I' for Inactive)
REMARK    1  A    between atoms: C1_1  and  O1_2 
REMARK    2  A    between atoms: O1_2  and  C2_3 
REMARK    3  A    between atoms: C2_3  and  C3_4 
REMARK    4  A    between atoms: C3_4  and  C4_5 
REMARK    5  A    between atoms: C4_5  and  O2_6 
REMARK    6  A    between atoms: C4_5  and  O3_8 
REMARK    7  A    between atoms: O2_6  and  C5_7 
REMARK    8  A    between atoms: O3_8  and  C6_9 
ROOT
ATOM      1  C4  <0> d          -0.211   0.864   0.274  0.00  0.00     0.131 C 
ATOM      2  H8  <0> d          -0.307  -0.189   0.542  0.00  0.00     0.129 H 
ENDROOT
BRANCH   1   3
ATOM      3  C3  <0> d          -1.141   1.701   1.155  0.00  0.00     0.001 C 
ATOM      4  H6  <0> d          -0.980   2.759   0.950  0.00  0.00     0.043 H 
ATOM      5  H7  <0> d          -2.177   1.442   0.939  0.00  0.00     0.043 H 
BRANCH   3   6
ATOM      6  C2  <0> d          -0.840   1.416   2.628  0.00  0.00     0.023 C 
ATOM      7  H4  <0> d          -1.000   0.358   2.834  0.00  0.00     0.074 H 
ATOM      8  H5  <0> d           0.196   1.675   2.844  0.00  0.00     0.074 H 
BRANCH   6   9
ATOM      9  O1  <0> d          -1.708   2.198   3.451  0.00  0.00    -0.396 OA
BRANCH   9  10
ATOM     10  C1  <0> d          -1.509   2.006   4.853  0.00  0.00     0.004 C 
ATOM     11  H1  <0> d          -1.683   0.960   5.105  0.00  0.00     0.066 H 
ATOM     12  H2  <0> d          -0.486   2.277   5.115  0.00  0.00     0.066 H 
ATOM     13  H3  <0> d          -2.205   2.634   5.409  0.00  0.00     0.066 H 
ENDBRANCH   9  10
ENDBRANCH   6   9
ENDBRANCH   3   6
ENDBRANCH   1   3
BRANCH   1  14
ATOM     14  O2  <0> d           1.140   1.284   0.472  0.00  0.00    -0.366 OA
BRANCH  14  15
ATOM     15  C5  <0> d           2.114   0.330   0.046  0.00  0.00     0.007 C 
ATOM     16  H9  <0> d           1.861  -0.651   0.446  0.00  0.00     0.066 H 
ATOM     17  H10 <0> d           2.127   0.286  -1.043  0.00  0.00     0.066 H 
ATOM     18  H11 <0> d           3.098   0.628   0.409  0.00  0.00     0.066 H 
ENDBRANCH  14  15
ENDBRANCH   1  14
BRANCH   1  19
ATOM     19  O3  <0> d          -0.569   1.041  -1.098  0.00  0.00    -0.366 OA
BRANCH  19  20
ATOM     20  C6  <0> d          -0.021   0.053  -1.974  0.00  0.00     0.007 C 
ATOM     21  H12 <0> d          -0.083  -0.927  -1.500  0.00  0.00     0.066 H 
ATOM     22  H13 <0> d          -0.584   0.042  -2.907  0.00  0.00     0.066 H 
ATOM     23  H14 <0> d           1.022   0.291  -2.182  0.00  0.00     0.066 H 
ENDBRANCH  19  20
ENDBRANCH   1  19
TORSDOF 8
