REMARK  4 active torsions:
REMARK  status: ('A' for Active; 'I' for Inactive)
REMARK    1  A    between atoms: C1_1  and  C2_2 
REMARK    2  A    between atoms: C2_2  and  O1_3 
REMARK    3  A    between atoms: O1_3  and  C3_4 
REMARK    4  A    between atoms: C3_4  and  C4_6 
ROOT
ATOM      1  C3  <0> d           0.601  -0.603  -1.048  0.00  0.00     0.310 C 
ATOM      2  O2  <0> d           1.094   0.071  -1.932  0.00  0.00    -0.258 OA
ENDROOT
BRANCH   1   3
ATOM      3  O1  <0> d           0.002  -0.004   0.002  0.00  0.00    -0.317 OA
BRANCH   3   4
ATOM      4  C2  <0> d          -0.018   1.448   0.010  0.00  0.00     0.026 C 
ATOM      5  H5  <0> d           1.005   1.825   0.002  0.00  0.00     0.074 H 
ATOM      6  H6  <0> d          -0.545   1.809  -0.873  0.00  0.00     0.074 H 
BRANCH   4   7
ATOM      7  C1  <0> d          -0.734   1.941   1.269  0.00  0.00    -0.056 C 
ATOM      8  H2  <0> d          -1.756   1.564   1.276  0.00  0.00     0.030 H 
ATOM      9  H3  <0> d          -0.207   1.580   2.152  0.00  0.00     0.030 H 
ATOM     10  H4  <0> d          -0.749   3.031   1.275  0.00  0.00     0.030 H 
ENDBRANCH   4   7
ENDBRANCH   3   4
ENDBRANCH   1   3
BRANCH   1  11
ATOM     11  C4  <0> d           0.659  -2.064  -1.123  0.00  0.00     0.108 A 
ATOM     12  N1  <0> d           0.146  -2.948  -0.199  0.00  0.00    -0.361 N 
ATOM     13  C7  <0> d           0.396  -4.206  -0.619  0.00  0.00    -0.022 A 
ATOM     14  H1  <0> d          -0.317  -2.706   0.618  0.00  0.00     0.165 HD
ATOM     15  C6  <0> d           1.061  -4.154  -1.798  0.00  0.00    -0.066 A 
ATOM     16  H9  <0> d           0.111  -5.109  -0.099  0.00  0.00     0.111 H 
ATOM     17  C5  <0> d           1.231  -2.808  -2.135  0.00  0.00    -0.050 A 
ATOM     18  H8  <0> d           1.395  -5.002  -2.377  0.00  0.00     0.085 H 
ATOM     19  H7  <0> d           1.720  -2.423  -3.017  0.00  0.00     0.087 H 
ENDBRANCH   1  11
TORSDOF 4
