REMARK  4 active torsions:
REMARK  status: ('A' for Active; 'I' for Inactive)
REMARK    1  A    between atoms: C1_1  and  N1_2 
REMARK    2  A    between atoms: C2_3  and  C5_7 
REMARK    3  A    between atoms: C5_7  and  C6_8 
REMARK    4  A    between atoms: C6_8  and  C7_9 
ROOT
ATOM      1  N1  <0> d          -0.711   3.144   0.025  0.00  0.00    -0.279 N 
ATOM      2  C2  <0> d          -1.117   1.857   0.017  0.00  0.00     0.032 A 
ATOM      3  C3  <0> d          -0.013   1.076   0.008  0.00  0.00    -0.041 A 
ATOM      4  C4  <0> d           1.107   1.914   0.002  0.00  0.00     0.024 A 
ATOM      5  N2  <0> d           0.690   3.154   0.012  0.00  0.00    -0.185 NA
ATOM      6  H4  <0> d           0.002  -0.004   0.002  0.00  0.00     0.088 H 
ATOM      7  H5  <0> d           2.138   1.593  -0.010  0.00  0.00     0.117 H 
ENDROOT
BRANCH   2   8
ATOM      8  C5  <0> d          -2.546   1.376   0.021  0.00  0.00    -0.016 C 
ATOM      9  H6  <0> d          -3.189   2.145  -0.407  0.00  0.00     0.043 H 
ATOM     10  H7  <0> d          -2.624   0.465  -0.573  0.00  0.00     0.043 H 
BRANCH   8  11
ATOM     11  C6  <0> d          -2.983   1.087   1.458  0.00  0.00     0.021 C 
ATOM     12  H8  <0> d          -2.339   0.319   1.886  0.00  0.00     0.049 H 
ATOM     13  H9  <0> d          -2.905   1.998   2.051  0.00  0.00     0.049 H 
BRANCH  11  14
ATOM     14  C7  <0> d          -4.411   0.606   1.462  0.00  0.00     0.172 C 
ATOM     15  O1  <0> d          -5.017   0.505   0.422  0.00  0.00    -0.648 OA
ATOM     16  O2  <0> d          -5.010   0.291   2.621  0.00  0.00    -0.648 OA
ENDBRANCH  11  14
ENDBRANCH   8  11
ENDBRANCH   2   8
BRANCH   1  17
ATOM     17  C1  <0> d          -1.581   4.322   0.039  0.00  0.00     0.002 C 
ATOM     18  H1  <0> d          -1.807   4.620  -0.985  0.00  0.00     0.059 H 
ATOM     19  H2  <0> d          -2.509   4.083   0.560  0.00  0.00     0.059 H 
ATOM     20  H3  <0> d          -1.077   5.141   0.553  0.00  0.00     0.059 H 
ENDBRANCH   1  17
TORSDOF 4
