REMARK  3 active torsions:
REMARK  status: ('A' for Active; 'I' for Inactive)
REMARK    1  A    between atoms: C1_1  and  O1_2 
REMARK    2  A    between atoms: O1_2  and  C2_3 
REMARK    3  A    between atoms: C2_3  and  C3_5 
ROOT
ATOM      1  C3  <0> d          -0.049   3.846   0.022  0.00  0.00     0.042 A 
ATOM      2  C4  <0> d           1.167   3.160   0.007  0.00  0.00    -0.067 A 
ATOM      3  C5  <0> d           1.178   1.781   0.000  0.00  0.00    -0.079 A 
ATOM      4  C6  <0> d          -0.013   1.076   0.008  0.00  0.00    -0.046 A 
ATOM      5  C7  <0> d          -1.223   1.749   0.017  0.00  0.00     0.117 A 
ATOM      6  C8  <0> d          -1.248   3.131   0.030  0.00  0.00    -0.030 A 
ATOM      7  F1  <0> d          -2.382   1.054   0.019  0.00  0.00    -0.206 F 
ATOM      8  H4  <0> d           2.097   3.708   0.000  0.00  0.00     0.085 H 
ATOM      9  H5  <0> d           2.118   1.250  -0.011  0.00  0.00     0.083 H 
ATOM     10  H6  <0> d           0.002  -0.004   0.002  0.00  0.00     0.088 H 
ATOM     11  H7  <0> d          -2.192   3.656   0.042  0.00  0.00     0.089 H 
ENDROOT
BRANCH   1  12
ATOM     12  C2  <0> d          -0.067   5.324   0.029  0.00  0.00     0.293 C 
ATOM     13  O2  <0> d           0.977   5.944   0.023  0.00  0.00    -0.259 OA
BRANCH  12  14
ATOM     14  O1  <0> d          -1.242   5.983   0.044  0.00  0.00    -0.323 OA
BRANCH  14  15
ATOM     15  C1  <0> d          -1.184   7.434   0.051  0.00  0.00     0.013 C 
ATOM     16  H1  <0> d          -2.196   7.838   0.062  0.00  0.00     0.067 H 
ATOM     17  H2  <0> d          -0.647   7.772   0.937  0.00  0.00     0.067 H 
ATOM     18  H3  <0> d          -0.664   7.781  -0.843  0.00  0.00     0.067 H 
ENDBRANCH  14  15
ENDBRANCH  12  14
ENDBRANCH   1  12
TORSDOF 3
