REMARK  1 active torsions:
REMARK  status: ('A' for Active; 'I' for Inactive)
REMARK    1  A    between atoms: C4_6  and  C5_8 
ROOT
ATOM      1  C5  <0> d          -0.733   1.990  -1.236  0.00  0.00     0.033 C 
ATOM      2  C6  <0> d          -2.156   1.620  -1.178  0.00  0.00     0.061 C 
ATOM      3  N2  <0> d          -3.255   1.335  -1.133  0.00  0.00    -0.197 NA
ATOM      4  H7  <0> d          -0.640   3.085  -1.276  0.00  0.00     0.058 H 
ATOM      5  H8  <0> d          -0.276   1.550  -2.134  0.00  0.00     0.058 H 
ENDROOT
BRANCH   1   6
ATOM      6  C4  <0> d          -0.018   1.463   0.010  0.00  0.00     0.024 C 
ATOM      7  C1  <0> d           1.465   1.896  -0.002  0.00  0.00    -0.037 C 
ATOM      8  C2  <0> d           2.144   0.675  -0.664  0.00  0.00     0.011 C 
ATOM      9  H2  <0> d           1.573   2.821  -0.586  0.00  0.00     0.036 H 
ATOM     10  H3  <0> d           1.804   2.072   1.030  0.00  0.00     0.036 H 
ATOM     11  C3  <0> d           1.203  -0.474  -0.379  0.00  0.00     0.217 C 
ATOM     12  H4  <0> d           2.256   0.858  -1.743  0.00  0.00     0.047 H 
ATOM     13  H5  <0> d           3.136   0.518  -0.215  0.00  0.00     0.047 H 
ATOM     14  O1  <0> d           1.489  -1.648  -0.478  0.00  0.00    -0.274 OA
ATOM     15  N1  <0> d           0.002  -0.004   0.002  0.00  0.00    -0.356 N 
ATOM     16  H6  <0> d          -0.899  -0.568   0.286  0.00  0.00     0.162 HD
ATOM     17  H1  <0> d          -0.568   1.818   0.894  0.00  0.00     0.073 H 
ENDBRANCH   1   6
TORSDOF 1
