REMARK  1 active torsions:
REMARK  status: ('A' for Active; 'I' for Inactive)
REMARK    1  A    between atoms: C2_3  and  N4_6 
ROOT
ATOM      1  N4  <0> d           3.466   0.830  -0.027  0.00  0.00    -0.127 N 
ATOM      2  C3  <0> d           4.221   1.966  -0.023  0.00  0.00     0.110 A 
ATOM      3  N5  <0> d           5.472   1.598  -0.040  0.00  0.00    -0.143 NA
ATOM      4  N6  <0> d           5.552   0.316  -0.053  0.00  0.00    -0.143 NA
ATOM      5  C4  <0> d           4.356  -0.205  -0.041  0.00  0.00     0.110 A 
ATOM      6  H2  <0> d           3.851   2.981  -0.009  0.00  0.00     0.148 H 
ATOM      7  H3  <0> d           4.114  -1.258  -0.044  0.00  0.00     0.148 H 
ENDROOT
BRANCH   1   8
ATOM      8  C2  <0> d           2.075   0.743  -0.014  0.00  0.00     0.754 A 
ATOM      9  N1  <0> d           1.238   1.755  -0.000  0.00  0.00    -0.052 NA
ATOM     10  C1  <0> d          -0.016   1.302   0.009  0.00  0.00     0.127 A 
ATOM     11  N3  <0> d           0.002  -0.004   0.002  0.00  0.00    -0.126 NA
ATOM     12  H1  <0> d          -0.904   1.917   0.025  0.00  0.00     0.150 H 
ATOM     13  N2  <0> d           1.351  -0.395  -0.013  0.00  0.00     0.045 NA
ENDBRANCH   1   8
TORSDOF 1
