REMARK  4 active torsions:
REMARK  status: ('A' for Active; 'I' for Inactive)
REMARK    1  A    between atoms: C3_3  and  C4_4 
REMARK    2  A    between atoms: C4_4  and  O1_5 
REMARK    3  A    between atoms: O1_5  and  C5_6 
REMARK    4  A    between atoms: C5_6  and  C6_7 
REMARK       I    between atoms: C6_7  and  N1_9 
ROOT
ATOM      1  C4  <0> d          -0.408  -0.709  -1.292  0.00  0.00     0.023 C 
ATOM      2  H6  <0> d          -1.398  -0.366  -1.595  0.00  0.00     0.074 H 
ATOM      3  H7  <0> d           0.312  -0.477  -2.077  0.00  0.00     0.074 H 
ENDROOT
BRANCH   1   4
ATOM      4  C3  <0> d           0.002  -0.004   0.002  0.00  0.00    -0.033 A 
ATOM      5  C1  <0> d          -0.019   1.526   0.010  0.00  0.00    -0.059 A 
ATOM      6  C2  <0> d           1.317   0.779  -0.006  0.00  0.00    -0.059 A 
ATOM      7  H1  <0> d          -0.307   2.020   0.938  0.00  0.00     0.033 H 
ATOM      8  H2  <0> d          -0.325   2.030  -0.906  0.00  0.00     0.033 H 
ATOM      9  H3  <0> d           1.889   0.792  -0.934  0.00  0.00     0.033 H 
ATOM     10  H4  <0> d           1.906   0.782   0.910  0.00  0.00     0.033 H 
ATOM     11  H5  <0> d          -0.273  -0.516   0.924  0.00  0.00     0.043 H 
ENDBRANCH   1   4
BRANCH   1  12
ATOM     12  O1  <0> d          -0.440  -2.121  -1.076  0.00  0.00    -0.382 OA
BRANCH  12  13
ATOM     13  C5  <0> d          -0.814  -2.877  -2.229  0.00  0.00     0.092 C 
ATOM     14  H8  <0> d          -1.812  -2.579  -2.552  0.00  0.00     0.089 H 
ATOM     15  H9  <0> d          -0.102  -2.691  -3.033  0.00  0.00     0.089 H 
BRANCH  13  16
ATOM     16  C6  <0> d          -0.814  -4.346  -1.889  0.00  0.00     0.239 C 
ATOM     17  O2  <0> d          -0.523  -4.708  -0.769  0.00  0.00    -0.271 OA
ATOM     18  N1  <0> d          -1.139  -5.255  -2.829  0.00  0.00    -0.368 N 
ATOM     19  H10 <0> d          -1.372  -4.965  -3.725  0.00  0.00     0.159 HD
ATOM     20  H11 <0> d          -1.139  -6.200  -2.610  0.00  0.00     0.159 HD
ENDBRANCH  13  16
ENDBRANCH  12  13
ENDBRANCH   1  12
TORSDOF 4
