REMARK  3 active torsions:
REMARK  status: ('A' for Active; 'I' for Inactive)
REMARK    1  A    between atoms: C4_5  and  C5_7 
REMARK    2  A    between atoms: C5_7  and  C6_8 
REMARK    3  A    between atoms: C6_8  and  O2_9 
ROOT
ATOM      1  C1  <0> d          -0.019   1.549   0.011  0.00  0.00    -0.040 C 
ATOM      2  C2  <0> d           1.498   1.864  -0.002  0.00  0.00     0.020 C 
ATOM      3  O1  <0> d           2.100   0.843   0.810  0.00  0.00    -0.391 OA
ATOM      4  C3  <0> d           1.263  -0.319   0.835  0.00  0.00     0.023 C 
ATOM      5  C4  <0> d           0.002  -0.004   0.002  0.00  0.00    -0.030 C 
ATOM      6  H1  <0> d           0.103  -0.385  -1.014  0.00  0.00     0.043 H 
ATOM      7  H2  <0> d          -0.492   1.930   0.916  0.00  0.00     0.036 H 
ATOM      8  H3  <0> d          -0.509   1.940  -0.881  0.00  0.00     0.036 H 
ATOM      9  H4  <0> d           1.886   1.815  -1.020  0.00  0.00     0.074 H 
ATOM     10  H5  <0> d           1.684   2.848   0.427  0.00  0.00     0.074 H 
ATOM     11  H6  <0> d           1.793  -1.165   0.398  0.00  0.00     0.074 H 
ATOM     12  H7  <0> d           0.980  -0.549   1.862  0.00  0.00     0.074 H 
ENDROOT
BRANCH   5  13
ATOM     13  C5  <0> d          -1.250  -0.569   0.675  0.00  0.00    -0.040 C 
ATOM     14  H8  <0> d          -1.249  -0.298   1.731  0.00  0.00     0.036 H 
ATOM     15  H9  <0> d          -2.138  -0.157   0.195  0.00  0.00     0.036 H 
BRANCH  13  16
ATOM     16  C6  <0> d          -1.258  -2.093   0.539  0.00  0.00     0.017 C 
ATOM     17  H10 <0> d          -1.260  -2.364  -0.516  0.00  0.00     0.073 H 
ATOM     18  H11 <0> d          -0.371  -2.506   1.019  0.00  0.00     0.073 H 
BRANCH  16  19
ATOM     19  O2  <0> d          -2.428  -2.621   1.168  0.00  0.00    -0.401 OA
ATOM     20  H12 <0> d          -2.499  -3.584   1.121  0.00  0.00     0.209 HD
ENDBRANCH  16  19
ENDBRANCH  13  16
ENDBRANCH   5  13
TORSDOF 3
