REMARK  3 active torsions:
REMARK  status: ('A' for Active; 'I' for Inactive)
REMARK    1  A    between atoms: C1_1  and  C2_2 
REMARK    2  A    between atoms: C2_2  and  C3_3 
REMARK    3  A    between atoms: C4_7  and  C5_9 
ROOT
ATOM      1  C3  <0> d          -1.412  -0.526   0.013  0.00  0.00     0.147 A 
ATOM      2  N1  <0> d          -2.116  -0.789   1.082  0.00  0.00    -0.158 NA
ATOM      3  H1  <0> d          -4.114  -1.525   1.195  0.00  0.00     0.190 HD
ATOM      4  N2  <0> d          -3.368  -1.249   0.640  0.00  0.00    -0.263 N 
ATOM      5  C4  <0> d          -3.326  -1.229  -0.703  0.00  0.00     0.118 A 
ATOM      6  N3  <0> d          -2.148  -0.788  -1.066  0.00  0.00    -0.217 NA
ENDROOT
BRANCH   1   7
ATOM      7  C2  <0> d           0.002  -0.004   0.002  0.00  0.00    -0.010 C 
ATOM      8  H5  <0> d           0.512  -0.356  -0.895  0.00  0.00     0.044 H 
ATOM      9  H6  <0> d           0.529  -0.365   0.885  0.00  0.00     0.044 H 
BRANCH   7  10
ATOM     10  C1  <0> d          -0.019   1.526   0.010  0.00  0.00    -0.070 C 
ATOM     11  H2  <0> d           1.004   1.903   0.003  0.00  0.00     0.028 H 
ATOM     12  H3  <0> d          -0.546   1.887  -0.873  0.00  0.00     0.028 H 
ATOM     13  H4  <0> d          -0.529   1.877   0.907  0.00  0.00     0.028 H 
ENDBRANCH   7  10
ENDBRANCH   1   7
BRANCH   5  14
ATOM     14  C5  <0> d          -4.442  -1.638  -1.630  0.00  0.00    -0.020 C 
ATOM     15  H7  <0> d          -5.067  -0.772  -1.850  0.00  0.00     0.037 H 
ATOM     16  H8  <0> d          -4.020  -2.027  -2.557  0.00  0.00     0.037 H 
ATOM     17  H9  <0> d          -5.045  -2.410  -1.153  0.00  0.00     0.037 H 
ENDBRANCH   5  14
TORSDOF 3
