REMARK  0 active torsions:
REMARK  status: ('A' for Active; 'I' for Inactive)
ROOT
ATOM      1  C1  <0> d          -1.247   3.496   0.032  0.00  0.00    -0.041 A 
ATOM      2  C2  <0> d          -0.057   4.202   0.024  0.00  0.00    -0.040 A 
ATOM      3  C3  <0> d           1.154   3.531   0.009  0.00  0.00     0.156 A 
ATOM      4  C4  <0> d           1.182   2.147   0.002  0.00  0.00     0.178 A 
ATOM      5  C5  <0> d          -0.017   1.428   0.010  0.00  0.00     0.124 A 
ATOM      6  C6  <0> d          -1.237   2.115   0.019  0.00  0.00     0.140 A 
ATOM      7  F1  <0> d          -2.400   1.429   0.021  0.00  0.00    -0.204 F 
ATOM      8  C7  <0> d           0.002  -0.004   0.002  0.00  0.00     0.106 C 
ATOM      9  N1  <0> d           0.018  -1.140  -0.004  0.00  0.00    -0.191 NA
ATOM     10  F2  <0> d           2.364   1.494  -0.013  0.00  0.00    -0.201 F 
ATOM     11  F3  <0> d           2.311   4.229   0.002  0.00  0.00    -0.203 F 
ATOM     12  H1  <0> d          -2.188   4.027   0.043  0.00  0.00     0.088 H 
ATOM     13  H2  <0> d          -0.073   5.282   0.029  0.00  0.00     0.088 H 
ENDROOT
TORSDOF 0
