REMARK  4 active torsions:
REMARK  status: ('A' for Active; 'I' for Inactive)
REMARK    1  A    between atoms: C2_2  and  C5_9 
REMARK    2  A    between atoms: C3_3  and  N4_8 
REMARK    3  A    between atoms: C4_5  and  N3_7 
REMARK    4  A    between atoms: C5_9  and  O1_10 
ROOT
ATOM      1  C1  <0> d          -0.017   1.377   0.010  0.00  0.00     0.033 A 
ATOM      2  C2  <0> d           0.002  -0.004   0.002  0.00  0.00     0.029 A 
ATOM      3  C3  <0> d           1.238  -0.653  -0.013  0.00  0.00     0.150 A 
ATOM      4  N1  <0> d           2.350   0.076  -0.020  0.00  0.00    -0.045 NA
ATOM      5  C4  <0> d           2.289   1.399  -0.012  0.00  0.00     0.721 A 
ATOM      6  N2  <0> d           1.130   2.041   0.002  0.00  0.00    -0.075 NA
ATOM      7  H1  <0> d          -0.956   1.910   0.017  0.00  0.00     0.116 H 
ENDROOT
BRANCH   2   8
ATOM      8  C5  <0> d          -1.282  -0.792   0.010  0.00  0.00     0.045 C 
ATOM      9  H6  <0> d          -1.331  -1.415  -0.883  0.00  0.00     0.081 H 
ATOM     10  H7  <0> d          -1.315  -1.425   0.896  0.00  0.00     0.081 H 
BRANCH   8  11
ATOM     11  O1  <0> d          -2.393   0.107   0.025  0.00  0.00    -0.396 OA
ATOM     12  H8  <0> d          -3.254  -0.332   0.030  0.00  0.00     0.209 HD
ENDBRANCH   8  11
ENDBRANCH   2   8
BRANCH   3  13
ATOM     13  N4  <0> d           1.305  -2.037  -0.021  0.00  0.00    -0.383 N 
ATOM     14  H4  <0> d           0.490  -2.562  -0.016  0.00  0.00     0.157 HD
ATOM     15  H5  <0> d           2.168  -2.481  -0.032  0.00  0.00     0.157 HD
ENDBRANCH   3  13
BRANCH   5  16
ATOM     16  N3  <0> d           3.465   2.128  -0.020  0.00  0.00    -0.231 N 
ATOM     17  H2  <0> d           4.319   1.670  -0.031  0.00  0.00     0.174 HD
ATOM     18  H3  <0> d           3.434   3.098  -0.015  0.00  0.00     0.174 HD
ENDBRANCH   5  16
TORSDOF 4
