REMARK  2 active torsions:
REMARK  status: ('A' for Active; 'I' for Inactive)
REMARK    1  A    between atoms: C3_3  and  C6_7 
REMARK    2  A    between atoms: C6_7  and  N3_11 
ROOT
ATOM      1  C6  <0> d           0.002  -0.004   0.002  0.00  0.00     0.238 C 
ATOM      2  H1  <0> d           0.970  -0.380  -0.363  0.00  0.00     0.119 H 
ATOM      3  C7  <0> d          -0.219  -0.505   1.368  0.00  0.00     0.100 C 
ATOM      4  N2  <0> d          -0.390  -0.892   2.423  0.00  0.00    -0.195 NA
ENDROOT
BRANCH   1   5
ATOM      5  C3  <0> d          -0.018   1.503   0.010  0.00  0.00     0.006 A 
ATOM      6  C2  <0> d           1.167   2.221   0.003  0.00  0.00    -0.071 A 
ATOM      7  C1  <0> d           1.100   3.606   0.010  0.00  0.00    -0.065 A 
ATOM      8  H3  <0> d           2.121   1.714  -0.008  0.00  0.00     0.084 H 
ATOM      9  C5  <0> d          -0.138   4.220   0.025  0.00  0.00     0.002 A 
ATOM     10  H2  <0> d           2.004   4.197   0.005  0.00  0.00     0.085 H 
ATOM     11  N1  <0> d          -1.246   3.505   0.031  0.00  0.00    -0.272 NA
ATOM     12  H5  <0> d          -0.198   5.298   0.031  0.00  0.00     0.114 H 
ATOM     13  C4  <0> d          -1.220   2.186   0.020  0.00  0.00     0.011 A 
ATOM     14  H4  <0> d          -2.148   1.634   0.021  0.00  0.00     0.115 H 
ENDBRANCH   1   5
BRANCH   1  15
ATOM     15  N3  <0> d          -1.061  -0.503  -0.881  0.00  0.00     0.100 N 
ATOM     16  H6  <0> d          -1.046  -1.603  -0.887  0.00  0.00     0.315 HD
ATOM     17  H7  <0> d          -2.037  -0.152  -0.515  0.00  0.00     0.315 HD
ENDBRANCH   1  15
TORSDOF 2
