REMARK  5 active torsions:
REMARK  status: ('A' for Active; 'I' for Inactive)
REMARK    1  A    between atoms: C1_1  and  C2_2 
REMARK    2  A    between atoms: C2_2  and  C3_3 
REMARK    3  A    between atoms: C3_3  and  S1_4 
REMARK    4  A    between atoms: S1_4  and  C4_5 
REMARK    5  A    between atoms: C5_8  and  C6_10 
ROOT
ATOM      1  C3  <0> d           0.718  -0.497  -1.257  0.00  0.00    -0.016 C 
ATOM      2  H6  <0> d           0.191  -0.136  -2.140  0.00  0.00     0.049 H 
ATOM      3  H7  <0> d           1.741  -0.120  -1.264  0.00  0.00     0.049 H 
ENDROOT
BRANCH   1   4
ATOM      4  C2  <0> d           0.002  -0.004   0.002  0.00  0.00    -0.060 C 
ATOM      5  H4  <0> d           0.529  -0.365   0.885  0.00  0.00     0.033 H 
ATOM      6  H5  <0> d          -1.020  -0.381   0.010  0.00  0.00     0.033 H 
BRANCH   4   7
ATOM      7  C1  <0> d          -0.019   1.526   0.010  0.00  0.00    -0.076 C 
ATOM      8  H1  <0> d           1.004   1.903   0.003  0.00  0.00     0.027 H 
ATOM      9  H2  <0> d          -0.546   1.887  -0.873  0.00  0.00     0.027 H 
ATOM     10  H3  <0> d          -0.529   1.877   0.907  0.00  0.00     0.027 H 
ENDBRANCH   4   7
ENDBRANCH   1   4
BRANCH   1  11
ATOM     11  S1  <0> d           0.743  -2.311  -1.267  0.00  0.00    -0.083 SA
BRANCH  11  12
ATOM     12  C4  <0> d           1.589  -2.718  -2.758  0.00  0.00     0.231 A 
ATOM     13  O1  <0> d           1.858  -3.957  -3.211  0.00  0.00    -0.269 OA
ATOM     14  C5  <0> d           2.512  -3.799  -4.379  0.00  0.00     0.166 A 
ATOM     15  N2  <0> d           2.628  -2.521  -4.594  0.00  0.00    -0.126 NA
ATOM     16  N1  <0> d           2.079  -1.870  -3.630  0.00  0.00    -0.115 NA
BRANCH  14  17
ATOM     17  C6  <0> d           3.021  -4.902  -5.270  0.00  0.00    -0.013 C 
ATOM     18  H8  <0> d           4.038  -5.165  -4.979  0.00  0.00     0.038 H 
ATOM     19  H9  <0> d           2.377  -5.776  -5.170  0.00  0.00     0.038 H 
ATOM     20  H10 <0> d           3.016  -4.563  -6.306  0.00  0.00     0.038 H 
ENDBRANCH  14  17
ENDBRANCH  11  12
ENDBRANCH   1  11
TORSDOF 5
