REMARK  1 active torsions:
REMARK  status: ('A' for Active; 'I' for Inactive)
REMARK    1  A    between atoms: C3_4  and  N3_9 
ROOT
ATOM      1  C1  <0> d          -0.051   4.100   0.025  0.00  0.00    -0.003 A 
ATOM      2  C2  <0> d          -1.185   3.368   0.032  0.00  0.00     0.019 A 
ATOM      3  N1  <0> d          -1.160   2.036   0.019  0.00  0.00    -0.237 NA
ATOM      4  C3  <0> d          -0.017   1.384   0.010  0.00  0.00     0.190 A 
ATOM      5  C4  <0> d           1.238   2.145   0.002  0.00  0.00     0.290 A 
ATOM      6  O1  <0> d           2.315   1.573  -0.012  0.00  0.00    -0.264 OA
ATOM      7  N2  <0> d           1.172   3.495   0.010  0.00  0.00    -0.329 N 
ATOM      8  H1  <0> d           2.087   4.106   0.004  0.00  0.00     0.168 HD
ATOM      9  H2  <0> d          -0.112   5.178   0.031  0.00  0.00     0.113 H 
ATOM     10  H3  <0> d          -2.138   3.876   0.044  0.00  0.00     0.117 H 
ENDROOT
BRANCH   4  11
ATOM     11  N3  <0> d           0.002  -0.004   0.002  0.00  0.00    -0.379 N 
ATOM     12  H4  <0> d           0.962  -0.541  -0.005  0.00  0.00     0.158 HD
ATOM     13  H5  <0> d          -0.943  -0.567   0.003  0.00  0.00     0.158 HD
ENDBRANCH   4  11
TORSDOF 1
