REMARK  3 active torsions:
REMARK  status: ('A' for Active; 'I' for Inactive)
REMARK    1  A    between atoms: C1_1  and  C2_2 
REMARK    2  A    between atoms: C6_7  and  C8_10 
REMARK    3  A    between atoms: C8_10  and  C9_11 
ROOT
ATOM      1  C2  <0> d          -2.143   5.836  -0.082  0.00  0.00    -0.057 C 
ATOM      2  H1  <0> d          -1.499   6.101  -0.933  0.00  0.00     0.039 H 
ATOM      3  C3  <0> d          -1.450   6.229   1.224  0.00  0.00    -0.062 C 
ATOM      4  C4  <0> d          -0.120   5.482   1.340  0.00  0.00    -0.064 C 
ATOM      5  C5  <0> d          -0.379   3.974   1.333  0.00  0.00    -0.061 C 
ATOM      6  C6  <0> d          -1.072   3.582   0.027  0.00  0.00    -0.045 C 
ATOM      7  H2  <0> d          -0.428   3.847  -0.825  0.00  0.00     0.040 H 
ATOM      8  C7  <0> d          -2.403   4.328  -0.089  0.00  0.00    -0.058 C 
ATOM      9  H6  <0> d          -1.264   7.313   1.229  0.00  0.00     0.033 H 
ATOM     10  H7  <0> d          -2.094   5.963   2.076  0.00  0.00     0.033 H 
ATOM     11  H8  <0> d           0.525   5.747   0.489  0.00  0.00     0.033 H 
ATOM     12  H9  <0> d           0.379   5.764   2.279  0.00  0.00     0.033 H 
ATOM     13  H10 <0> d           0.578   3.437   1.416  0.00  0.00     0.033 H 
ATOM     14  H11 <0> d          -1.023   3.709   2.184  0.00  0.00     0.033 H 
ATOM     15  H12 <0> d          -3.047   4.063   0.762  0.00  0.00     0.034 H 
ATOM     16  H13 <0> d          -2.901   4.046  -1.028  0.00  0.00     0.034 H 
ENDROOT
BRANCH   6  17
ATOM     17  C8  <0> d          -1.331   2.074   0.020  0.00  0.00     0.019 C 
ATOM     18  H14 <0> d          -1.900   1.795   0.919  0.00  0.00     0.049 H 
ATOM     19  H15 <0> d          -1.909   1.805  -0.877  0.00  0.00     0.049 H 
BRANCH  17  20
ATOM     20  C9  <0> d          -0.016   1.338   0.009  0.00  0.00     0.172 C 
ATOM     21  O1  <0> d           1.022   1.956   0.003  0.00  0.00    -0.648 OA
ATOM     22  O2  <0> d           0.002  -0.004   0.002  0.00  0.00    -0.648 OA
ENDBRANCH  17  20
ENDBRANCH   6  17
BRANCH   1  23
ATOM     23  C1  <0> d          -3.474   6.583  -0.197  0.00  0.00    -0.073 C 
ATOM     24  H3  <0> d          -3.288   7.667  -0.192  0.00  0.00     0.028 H 
ATOM     25  H4  <0> d          -4.118   6.317   0.654  0.00  0.00     0.028 H 
ATOM     26  H5  <0> d          -3.972   6.301  -1.136  0.00  0.00     0.028 H 
ENDBRANCH   1  23
TORSDOF 3
