REMARK  6 active torsions:
REMARK  status: ('A' for Active; 'I' for Inactive)
REMARK    1  A    between atoms: C1_1  and  C2_2 
REMARK    2  A    between atoms: C2_2  and  N1_3 
REMARK    3  A    between atoms: N1_3  and  C3_4 
REMARK    4  A    between atoms: N1_3  and  C5_6 
REMARK    5  A    between atoms: C3_4  and  C4_5 
REMARK    6  A    between atoms: C5_6  and  C6_7 
ROOT
ATOM      1  C6  <0> d           0.184  -0.011   0.705  0.00  0.00    -0.087 C 
ATOM      2  C7  <0> d           0.287  -1.164   0.899  0.00  0.00    -0.152 C 
ATOM      3  H13 <0> d           0.383  -2.245   1.080  0.00  0.00     0.166 H 
ENDROOT
BRANCH   1   4
ATOM      4  C5  <0> d           0.056   1.435   0.461  0.00  0.00     0.166 C 
ATOM      5  H11 <0> d          -0.319   1.928   1.371  0.00  0.00     0.099 H 
ATOM      6  H12 <0> d          -0.649   1.607  -0.366  0.00  0.00     0.099 H 
BRANCH   4   7
ATOM      7  N1  <0> d           1.369   1.991   0.108  0.00  0.00     0.098 N 
BRANCH   7   8
ATOM      8  C2  <0> d           1.836   1.460  -1.179  0.00  0.00     0.111 C 
ATOM      9  H4  <0> d           1.889   0.363  -1.126  0.00  0.00     0.079 H 
ATOM     10  H5  <0> d           2.835   1.865  -1.402  0.00  0.00     0.079 H 
BRANCH   8  11
ATOM     11  C1  <0> d           0.861   1.871  -2.285  0.00  0.00    -0.051 C 
ATOM     12  H1  <0> d           1.212   1.474  -3.249  0.00  0.00     0.029 H 
ATOM     13  H2  <0> d           0.809   2.969  -2.338  0.00  0.00     0.029 H 
ATOM     14  H3  <0> d          -0.137   1.467  -2.062  0.00  0.00     0.029 H 
ENDBRANCH   8  11
ENDBRANCH   7   8
BRANCH   7  15
ATOM     15  C3  <0> d           1.331   3.459   0.090  0.00  0.00     0.111 C 
ATOM     16  H6  <0> d           0.819   3.802  -0.822  0.00  0.00     0.079 H 
ATOM     17  H7  <0> d           0.788   3.823   0.974  0.00  0.00     0.079 H 
BRANCH  15  18
ATOM     18  C4  <0> d           2.760   4.006   0.108  0.00  0.00    -0.051 C 
ATOM     19  H8  <0> d           2.732   5.106   0.095  0.00  0.00     0.029 H 
ATOM     20  H9  <0> d           3.303   3.642  -0.776  0.00  0.00     0.029 H 
ATOM     21  H10 <0> d           3.272   3.664   1.020  0.00  0.00     0.029 H 
ENDBRANCH  15  18
ENDBRANCH   7  15
ENDBRANCH   4   7
ENDBRANCH   1   4
TORSDOF 6
