REMARK  1 active torsions:
REMARK  status: ('A' for Active; 'I' for Inactive)
REMARK    1  A    between atoms: C1_1  and  C2_2 
ROOT
ATOM      1  C2  <0> d           1.173   1.794   0.001  0.00  0.00    -0.027 A 
ATOM      2  C3  <0> d          -0.013   1.076   0.008  0.00  0.00     0.011 A 
ATOM      3  N1  <0> d          -1.162   1.731   0.017  0.00  0.00    -0.254 NA
ATOM      4  C4  <0> d          -1.189   3.049   0.030  0.00  0.00     0.085 A 
ATOM      5  N2  <0> d          -0.082   3.764   0.023  0.00  0.00    -0.254 NA
ATOM      6  C5  <0> d           1.104   3.179   0.009  0.00  0.00     0.011 A 
ATOM      7  H4  <0> d           0.002  -0.004   0.002  0.00  0.00     0.115 H 
ATOM      8  H5  <0> d          -2.143   3.555   0.042  0.00  0.00     0.146 H 
ATOM      9  H6  <0> d           2.007   3.771   0.003  0.00  0.00     0.115 H 
ENDROOT
BRANCH   1  10
ATOM     10  C1  <0> d           2.503   1.087  -0.016  0.00  0.00    -0.049 C 
ATOM     11  H1  <0> d           2.815   0.922  -1.047  0.00  0.00     0.033 H 
ATOM     12  H2  <0> d           3.247   1.700   0.494  0.00  0.00     0.033 H 
ATOM     13  H3  <0> d           2.412   0.129   0.494  0.00  0.00     0.033 H 
ENDBRANCH   1  10
TORSDOF 1
