REMARK  4 active torsions:
REMARK  status: ('A' for Active; 'I' for Inactive)
REMARK    1  A    between atoms: C1_1  and  C2_2 
REMARK    2  A    between atoms: C2_2  and  C3_3 
REMARK    3  A    between atoms: C3_3  and  C4_4 
REMARK    4  A    between atoms: C4_4  and  C8_11 
ROOT
ATOM      1  C4  <0> d          -0.059   3.864  -0.841  0.00  0.00     0.000 C 
ATOM      2  C5  <0> d           1.199   2.998  -0.980  0.00  0.00     0.040 C 
ATOM      3  O1  <0> d           1.135   1.923   0.002  0.00  0.00    -0.297 OA
ATOM      4  C6  <0> d          -0.014   1.210   0.009  0.00  0.00     0.406 C 
ATOM      5  O2  <0> d           0.002  -0.004   0.002  0.00  0.00    -0.230 OA
ATOM      6  O3  <0> d          -1.183   1.891   0.018  0.00  0.00    -0.297 OA
ATOM      7  C7  <0> d          -1.295   2.964  -0.956  0.00  0.00     0.040 C 
ATOM      8  H8  <0> d           2.085   3.607  -0.798  0.00  0.00     0.076 H 
ATOM      9  H9  <0> d           1.243   2.575  -1.983  0.00  0.00     0.076 H 
ATOM     10  H10 <0> d          -2.193   3.549  -0.757  0.00  0.00     0.076 H 
ATOM     11  H11 <0> d          -1.346   2.540  -1.959  0.00  0.00     0.076 H 
ENDROOT
BRANCH   1  12
ATOM     12  C3  <0> d          -0.084   4.915  -1.953  0.00  0.00    -0.055 C 
ATOM     13  H6  <0> d           0.802   5.546  -1.876  0.00  0.00     0.034 H 
ATOM     14  H7  <0> d          -0.092   4.417  -2.922  0.00  0.00     0.034 H 
BRANCH  12  15
ATOM     15  C2  <0> d          -1.339   5.777  -1.812  0.00  0.00    -0.068 C 
ATOM     16  H4  <0> d          -2.224   5.146  -1.888  0.00  0.00     0.032 H 
ATOM     17  H5  <0> d          -1.331   6.275  -0.842  0.00  0.00     0.032 H 
BRANCH  15  18
ATOM     18  C1  <0> d          -1.364   6.827  -2.924  0.00  0.00    -0.076 C 
ATOM     19  H1  <0> d          -0.479   7.459  -2.848  0.00  0.00     0.027 H 
ATOM     20  H2  <0> d          -1.372   6.330  -3.894  0.00  0.00     0.027 H 
ATOM     21  H3  <0> d          -2.258   7.442  -2.824  0.00  0.00     0.027 H 
ENDBRANCH  15  18
ENDBRANCH  12  15
ENDBRANCH   1  12
BRANCH   1  22
ATOM     22  C8  <0> d          -0.055   4.558   0.523  0.00  0.00    -0.065 C 
ATOM     23  H12 <0> d           0.830   5.188   0.608  0.00  0.00     0.028 H 
ATOM     24  H13 <0> d          -0.950   5.173   0.620  0.00  0.00     0.028 H 
ATOM     25  H14 <0> d          -0.043   3.807   1.313  0.00  0.00     0.028 H 
ENDBRANCH   1  22
TORSDOF 4
