REMARK  2 active torsions:
REMARK  status: ('A' for Active; 'I' for Inactive)
REMARK    1  A    between atoms: C1_1  and  C2_2 
REMARK    2  A    between atoms: C5_5  and  N1_8 
REMARK       I    between atoms: N1_8  and  C8_9 
REMARK       I    between atoms: C8_9  and  N2_11 
ROOT
ATOM      1  C2  <0> d          -0.016  -0.004  -0.006  0.00  0.00    -0.062 A 
ATOM      2  C3  <0> d          -0.185  -0.693  -1.193  0.00  0.00    -0.075 A 
ATOM      3  C4  <0> d          -0.161  -2.074  -1.202  0.00  0.00    -0.057 A 
ATOM      4  C5  <0> d           0.034  -2.771  -0.016  0.00  0.00     0.036 A 
ATOM      5  C6  <0> d           0.203  -2.076   1.174  0.00  0.00    -0.057 A 
ATOM      6  C7  <0> d           0.183  -0.695   1.175  0.00  0.00    -0.075 A 
ATOM      7  H4  <0> d          -0.336  -0.151  -2.115  0.00  0.00     0.084 H 
ATOM      8  H5  <0> d          -0.293  -2.611  -2.129  0.00  0.00     0.086 H 
ATOM      9  H6  <0> d           0.354  -2.615   2.098  0.00  0.00     0.086 H 
ATOM     10  H7  <0> d           0.319  -0.154   2.100  0.00  0.00     0.084 H 
ENDROOT
BRANCH   4  11
ATOM     11  N1  <0> d           0.058  -4.170  -0.021  0.00  0.00    -0.309 N 
ATOM     12  C8  <0> d           0.555  -4.832  -1.085  0.00  0.00     0.318 C 
ATOM     13  O1  <0> d           1.070  -4.215  -1.998  0.00  0.00    -0.247 OA
ATOM     14  N2  <0> d           0.481  -6.176  -1.137  0.00  0.00    -0.352 N 
ATOM     15  H9  <0> d           0.071  -6.668  -0.408  0.00  0.00     0.160 HD
ATOM     16  H10 <0> d           0.839  -6.652  -1.903  0.00  0.00     0.160 HD
ATOM     17  H8  <0> d          -0.282  -4.664   0.741  0.00  0.00     0.170 HD
ENDBRANCH   4  11
BRANCH   1  18
ATOM     18  C1  <0> d          -0.043   1.502  -0.001  0.00  0.00    -0.051 C 
ATOM     19  H1  <0> d           0.966   1.884  -0.160  0.00  0.00     0.033 H 
ATOM     20  H2  <0> d          -0.696   1.857  -0.798  0.00  0.00     0.033 H 
ATOM     21  H3  <0> d          -0.418   1.856   0.960  0.00  0.00     0.033 H 
ENDBRANCH   1  18
TORSDOF 2
