REMARK  5 active torsions:
REMARK  status: ('A' for Active; 'I' for Inactive)
REMARK    1  A    between atoms: C1_1  and  C2_2 
REMARK    2  A    between atoms: C3_3  and  C4_4 
REMARK    3  A    between atoms: C4_4  and  C5_5 
REMARK    4  A    between atoms: C5_5  and  C6_6 
REMARK    5  A    between atoms: C6_6  and  O1_7 
ROOT
ATOM      1  C4  <0> d          -0.960   1.741   3.671  0.00  0.00    -0.048 C 
ATOM      2  H6  <0> d          -0.308   2.424   4.216  0.00  0.00     0.038 H 
ATOM      3  H7  <0> d          -1.876   2.261   3.389  0.00  0.00     0.038 H 
ENDROOT
BRANCH   1   4
ATOM      4  C3  <0> d          -0.255   1.255   2.432  0.00  0.00    -0.107 C 
ATOM      5  C2  <0> d          -0.718   1.572   1.248  0.00  0.00    -0.110 C 
ATOM      6  H4  <0> d          -1.605   2.181   1.161  0.00  0.00     0.075 H 
ATOM      7  H5  <0> d           0.632   0.646   2.519  0.00  0.00     0.076 H 
BRANCH   5   8
ATOM      8  C1  <0> d          -0.013   1.086   0.008  0.00  0.00    -0.060 C 
ATOM      9  H1  <0> d           0.002  -0.004   0.002  0.00  0.00     0.032 H 
ATOM     10  H2  <0> d           1.010   1.463   0.000  0.00  0.00     0.032 H 
ATOM     11  H3  <0> d          -0.540   1.447  -0.875  0.00  0.00     0.032 H 
ENDBRANCH   5   8
ENDBRANCH   1   4
BRANCH   1  12
ATOM     12  C5  <0> d          -1.307   0.546   4.563  0.00  0.00    -0.043 C 
ATOM     13  H8  <0> d          -1.959  -0.136   4.018  0.00  0.00     0.036 H 
ATOM     14  H9  <0> d          -0.391   0.027   4.846  0.00  0.00     0.036 H 
BRANCH  12  15
ATOM     15  C6  <0> d          -2.023   1.040   5.821  0.00  0.00     0.017 C 
ATOM     16  H10 <0> d          -1.371   1.723   6.366  0.00  0.00     0.073 H 
ATOM     17  H11 <0> d          -2.938   1.560   5.538  0.00  0.00     0.073 H 
BRANCH  15  18
ATOM     18  O1  <0> d          -2.346  -0.076   6.654  0.00  0.00    -0.401 OA
ATOM     19  H12 <0> d          -2.803   0.163   7.472  0.00  0.00     0.209 HD
ENDBRANCH  15  18
ENDBRANCH  12  15
ENDBRANCH   1  12
TORSDOF 5
