REMARK  2 active torsions:
REMARK  status: ('A' for Active; 'I' for Inactive)
REMARK    1  A    between atoms: C4_4  and  N1_7 
REMARK    2  A    between atoms: C9_10  and  N3_12 
ROOT
ATOM      1  C1  <0> d          -0.054   4.163   0.025  0.00  0.00    -0.083 A 
ATOM      2  C2  <0> d           1.153   3.490   0.010  0.00  0.00    -0.081 A 
ATOM      3  C3  <0> d           1.175   2.109   0.002  0.00  0.00    -0.055 A 
ATOM      4  C4  <0> d          -0.017   1.397   0.010  0.00  0.00     0.058 A 
ATOM      5  C5  <0> d          -1.228   2.076   0.019  0.00  0.00    -0.055 A 
ATOM      6  C6  <0> d          -1.243   3.457   0.033  0.00  0.00    -0.081 A 
ATOM      7  H1  <0> d          -0.069   5.243   0.030  0.00  0.00     0.083 H 
ATOM      8  H2  <0> d           2.080   4.044   0.004  0.00  0.00     0.083 H 
ATOM      9  H3  <0> d           2.119   1.583  -0.009  0.00  0.00     0.087 H 
ATOM     10  H4  <0> d          -2.157   1.525   0.020  0.00  0.00     0.087 H 
ATOM     11  H5  <0> d          -2.185   3.986   0.044  0.00  0.00     0.083 H 
ENDROOT
BRANCH   4  12
ATOM     12  N1  <0> d           0.002  -0.004   0.002  0.00  0.00    -0.243 N 
ATOM     13  N2  <0> d           1.146  -0.813  -0.019  0.00  0.00    -0.150 NA
ATOM     14  C9  <0> d           0.761  -2.067  -0.017  0.00  0.00     0.143 A 
ATOM     15  C8  <0> d          -0.643  -2.096  -0.004  0.00  0.00    -0.021 A 
ATOM     16  C7  <0> d          -1.085  -0.818   0.008  0.00  0.00     0.008 A 
ATOM     17  H7  <0> d          -1.261  -2.982  -0.003  0.00  0.00     0.091 H 
ATOM     18  H6  <0> d          -2.118  -0.501   0.021  0.00  0.00     0.115 H 
BRANCH  14  19
ATOM     19  N3  <0> d           1.604  -3.184  -0.032  0.00  0.00    -0.383 N 
ATOM     20  H8  <0> d           1.226  -4.077  -0.034  0.00  0.00     0.157 HD
ATOM     21  H9  <0> d           2.567  -3.065  -0.041  0.00  0.00     0.157 HD
ENDBRANCH  14  19
ENDBRANCH   4  12
TORSDOF 2
