REMARK  3 active torsions:
REMARK  status: ('A' for Active; 'I' for Inactive)
REMARK    1  A    between atoms: C1_1  and  O1_2 
REMARK    2  A    between atoms: O1_2  and  C2_3 
REMARK    3  A    between atoms: C2_3  and  C3_5 
ROOT
ATOM      1  C3  <0> d           0.680  -2.090   1.091  0.00  0.00     0.131 A 
ATOM      2  C4  <0> d           1.316  -2.714   2.163  0.00  0.00    -0.046 A 
ATOM      3  C5  <0> d           1.365  -4.097   2.205  0.00  0.00    -0.042 A 
ATOM      4  C6  <0> d           0.773  -4.812   1.172  0.00  0.00     0.133 A 
ATOM      5  C7  <0> d           0.156  -4.123   0.135  0.00  0.00     0.040 A 
ATOM      6  N1  <0> d           0.121  -2.810   0.124  0.00  0.00    -0.252 NA
ATOM      7  F1  <0> d           0.798  -6.163   1.174  0.00  0.00    -0.205 F 
ATOM      8  H4  <0> d           1.766  -2.126   2.950  0.00  0.00     0.087 H 
ATOM      9  H5  <0> d           1.851  -4.608   3.023  0.00  0.00     0.088 H 
ATOM     10  H6  <0> d          -0.304  -4.675  -0.671  0.00  0.00     0.119 H 
ENDROOT
BRANCH   1  11
ATOM     11  C2  <0> d           0.620  -0.613   1.032  0.00  0.00     0.311 C 
ATOM     12  O2  <0> d           1.129   0.051   1.913  0.00  0.00    -0.258 OA
BRANCH  11  13
ATOM     13  O1  <0> d           0.002  -0.004   0.002  0.00  0.00    -0.321 OA
BRANCH  13  14
ATOM     14  C1  <0> d          -0.017   1.425   0.010  0.00  0.00     0.013 C 
ATOM     15  H1  <0> d           1.005   1.802   0.002  0.00  0.00     0.067 H 
ATOM     16  H2  <0> d          -0.544   1.786  -0.873  0.00  0.00     0.067 H 
ATOM     17  H3  <0> d          -0.527   1.776   0.907  0.00  0.00     0.067 H 
ENDBRANCH  13  14
ENDBRANCH  11  13
ENDBRANCH   1  11
TORSDOF 3
