REMARK  2 active torsions:
REMARK  status: ('A' for Active; 'I' for Inactive)
REMARK    1  A    between atoms: C1_1  and  C2_2 
REMARK    2  A    between atoms: C3_3  and  C6_7 
ROOT
ATOM      1  C2  <0> d           2.133   0.981  -0.379  0.00  0.00    -0.053 C 
ATOM      2  C3  <0> d           1.258   1.887   0.000  0.00  0.00     0.044 C 
ATOM      3  O1  <0> d          -0.018   1.437   0.010  0.00  0.00    -0.355 OA
ATOM      4  C4  <0> d           0.002  -0.004   0.002  0.00  0.00     0.029 C 
ATOM      5  C5  <0> d           1.366  -0.297  -0.670  0.00  0.00    -0.022 C 
ATOM      6  H4  <0> d          -0.026  -0.400   1.017  0.00  0.00     0.075 H 
ATOM      7  H5  <0> d          -0.820  -0.402  -0.593  0.00  0.00     0.075 H 
ATOM      8  H6  <0> d           1.851  -1.157  -0.209  0.00  0.00     0.043 H 
ATOM      9  H7  <0> d           1.248  -0.447  -1.743  0.00  0.00     0.043 H 
ENDROOT
BRANCH   1  10
ATOM     10  C1  <0> d           3.622   1.176  -0.503  0.00  0.00    -0.052 C 
ATOM     11  H1  <0> d           3.861   1.518  -1.511  0.00  0.00     0.033 H 
ATOM     12  H2  <0> d           3.953   1.921   0.221  0.00  0.00     0.033 H 
ATOM     13  H3  <0> d           4.130   0.231  -0.310  0.00  0.00     0.033 H 
ENDBRANCH   1  10
BRANCH   2  14
ATOM     14  C6  <0> d           1.640   3.292   0.387  0.00  0.00    -0.032 C 
ATOM     15  H8  <0> d           0.744   3.849   0.663  0.00  0.00     0.036 H 
ATOM     16  H9  <0> d           2.324   3.262   1.235  0.00  0.00     0.036 H 
ATOM     17  H10 <0> d           2.127   3.782  -0.456  0.00  0.00     0.036 H 
ENDBRANCH   2  14
TORSDOF 2
