REMARK  3 active torsions:
REMARK  status: ('A' for Active; 'I' for Inactive)
REMARK    1  A    between atoms: C1_1  and  N1_2 
REMARK    2  A    between atoms: N1_2  and  C2_3 
REMARK    3  A    between atoms: N1_2  and  C3_4 
ROOT
ATOM      1  C3  <0> d           1.240  -0.649  -0.013  0.00  0.00     0.129 A 
ATOM      2  C4  <0> d           0.002  -0.004   0.002  0.00  0.00     0.000 A 
ATOM      3  C5  <0> d          -0.017   1.379   0.010  0.00  0.00     0.131 A 
ATOM      4  N2  <0> d           1.133   2.041   0.002  0.00  0.00    -0.230 NA
ATOM      5  C6  <0> d           2.285   1.401  -0.012  0.00  0.00     0.090 A 
ATOM      6  N3  <0> d           2.349   0.085  -0.020  0.00  0.00    -0.225 NA
ATOM      7 Cl1  <0> d          -1.526   2.237   0.021  0.00  0.00    -0.062 Cl
ATOM      8  H7  <0> d          -0.918  -0.570   0.008  0.00  0.00     0.094 H 
ATOM      9  H8  <0> d           3.202   1.971  -0.018  0.00  0.00     0.146 H 
ENDROOT
BRANCH   1  10
ATOM     10  N1  <0> d           1.312  -2.033  -0.022  0.00  0.00    -0.374 N 
BRANCH  10  11
ATOM     11  C1  <0> d           0.086  -2.830  -0.126  0.00  0.00    -0.018 C 
ATOM     12  H1  <0> d          -0.138  -3.017  -1.176  0.00  0.00     0.056 H 
ATOM     13  H2  <0> d           0.226  -3.779   0.391  0.00  0.00     0.056 H 
ATOM     14  H3  <0> d          -0.741  -2.286   0.331  0.00  0.00     0.056 H 
ENDBRANCH  10  11
BRANCH  10  15
ATOM     15  C2  <0> d           2.613  -2.700   0.073  0.00  0.00    -0.018 C 
ATOM     16  H4  <0> d           3.099  -2.416   1.006  0.00  0.00     0.056 H 
ATOM     17  H5  <0> d           2.470  -3.780   0.051  0.00  0.00     0.056 H 
ATOM     18  H6  <0> d           3.237  -2.398  -0.768  0.00  0.00     0.056 H 
ENDBRANCH  10  15
ENDBRANCH   1  10
TORSDOF 3
