REMARK  2 active torsions:
REMARK  status: ('A' for Active; 'I' for Inactive)
REMARK    1  A    between atoms: C1_1  and  C2_2 
REMARK    2  A    between atoms: C5_5  and  N1_8 
ROOT
ATOM      1  C2  <0> d           2.774  -4.290  -0.046  0.00  0.00    -0.062 A 
ATOM      2  C3  <0> d           3.656  -3.225  -0.049  0.00  0.00    -0.075 A 
ATOM      3  C4  <0> d           3.177  -1.930  -0.038  0.00  0.00    -0.056 A 
ATOM      4  C5  <0> d           1.809  -1.697  -0.024  0.00  0.00     0.039 A 
ATOM      5  C6  <0> d           0.925  -2.768  -0.015  0.00  0.00    -0.056 A 
ATOM      6  C7  <0> d           1.410  -4.062  -0.031  0.00  0.00    -0.075 A 
ATOM      7  H4  <0> d           4.721  -3.407  -0.060  0.00  0.00     0.084 H 
ATOM      8  H5  <0> d           3.867  -1.099  -0.041  0.00  0.00     0.087 H 
ATOM      9  H6  <0> d          -0.140  -2.590   0.000  0.00  0.00     0.087 H 
ATOM     10  H7  <0> d           0.724  -4.895  -0.029  0.00  0.00     0.084 H 
ENDROOT
BRANCH   4  11
ATOM     11  N1  <0> d           1.320  -0.383  -0.013  0.00  0.00    -0.315 N 
ATOM     12  C10 <0> d           2.062   0.755  -0.014  0.00  0.00     0.070 A 
ATOM     13  N2  <0> d           1.252   1.778  -0.000  0.00  0.00    -0.254 NA
ATOM     14  H10 <0> d           3.140   0.804  -0.024  0.00  0.00     0.144 H 
ATOM     15  C9  <0> d          -0.016   1.342   0.009  0.00  0.00     0.019 A 
ATOM     16  C8  <0> d           0.002  -0.004   0.002  0.00  0.00     0.003 A 
ATOM     17  H9  <0> d          -0.899   1.964   0.017  0.00  0.00     0.117 H 
ATOM     18  H8  <0> d          -0.856  -0.659   0.007  0.00  0.00     0.114 H 
ENDBRANCH   4  11
BRANCH   1  19
ATOM     19  C1  <0> d           3.300  -5.702  -0.057  0.00  0.00    -0.051 C 
ATOM     20  H1  <0> d           3.436  -6.048   0.967  0.00  0.00     0.033 H 
ATOM     21  H2  <0> d           2.587  -6.351  -0.568  0.00  0.00     0.033 H 
ATOM     22  H3  <0> d           4.256  -5.730  -0.580  0.00  0.00     0.033 H 
ENDBRANCH   1  19
TORSDOF 2
