REMARK  4 active torsions:
REMARK  status: ('A' for Active; 'I' for Inactive)
REMARK    1  A    between atoms: C1_1  and  C2_2 
REMARK    2  A    between atoms: C2_2  and  C3_4 
REMARK    3  A    between atoms: C2_2  and  O1_10 
REMARK    4  A    between atoms: C3_4  and  N1_5 
ROOT
ATOM      1  C3  <0> d           2.040   1.127  -1.261  0.00  0.00     0.041 C 
ATOM      2  H5  <0> d           3.059   1.512  -1.225  0.00  0.00     0.071 H 
ATOM      3  H6  <0> d           2.063   0.039  -1.313  0.00  0.00     0.071 H 
ENDROOT
BRANCH   1   4
ATOM      4  C2  <0> d           1.286   1.562  -0.002  0.00  0.00     0.049 C 
ATOM      5  H1  <0> d           1.186   2.647   0.005  0.00  0.00     0.085 H 
BRANCH   4   6
ATOM      6  C1  <0> d           2.064   1.114   1.238  0.00  0.00    -0.051 C 
ATOM      7  H2  <0> d           2.164   0.029   1.231  0.00  0.00     0.030 H 
ATOM      8  H3  <0> d           3.053   1.571   1.231  0.00  0.00     0.030 H 
ATOM      9  H4  <0> d           1.527   1.423   2.135  0.00  0.00     0.030 H 
ENDBRANCH   4   6
BRANCH   4  10
ATOM     10  O1  <0> d          -0.011   0.963   0.007  0.00  0.00    -0.394 OA
ATOM     11  H9  <0> d           0.002  -0.004   0.002  0.00  0.00     0.210 HD
ENDBRANCH   4  10
ENDBRANCH   1   4
BRANCH   1  12
ATOM     12  N1  <0> d           1.359   1.658  -2.445  0.00  0.00    -0.260 N 
ATOM     13  N3  <0> d           0.012   1.473  -2.795  0.00  0.00    -0.165 NA
ATOM     14  C5  <0> d          -0.178   2.115  -3.917  0.00  0.00     0.107 A 
ATOM     15  N2  <0> d           0.969   2.682  -4.291  0.00  0.00    -0.234 NA
ATOM     16  H8  <0> d          -1.112   2.174  -4.457  0.00  0.00     0.149 H 
ATOM     17  C4  <0> d           1.902   2.415  -3.414  0.00  0.00     0.084 A 
ATOM     18  H7  <0> d           2.929   2.745  -3.461  0.00  0.00     0.146 H 
ENDBRANCH   1  12
TORSDOF 4
