REMARK  1 active torsions:
REMARK  status: ('A' for Active; 'I' for Inactive)
REMARK    1  A    between atoms: C5_6  and  C6_7 
ROOT
ATOM      1  C1  <0> d          -2.972   4.108   0.046  0.00  0.00    -0.055 A 
ATOM      2  C2  <0> d          -3.751   5.246   0.066  0.00  0.00     0.003 A 
ATOM      3  N1  <0> d          -3.199   6.444   0.067  0.00  0.00    -0.273 NA
ATOM      4  C3  <0> d          -1.890   6.612   0.055  0.00  0.00     0.003 A 
ATOM      5  C4  <0> d          -1.038   5.527   0.041  0.00  0.00    -0.055 A 
ATOM      6  C5  <0> d          -1.581   4.239   0.039  0.00  0.00    -0.020 A 
ATOM      7  H2  <0> d          -3.431   3.130   0.041  0.00  0.00     0.087 H 
ATOM      8  H3  <0> d          -4.827   5.155   0.075  0.00  0.00     0.114 H 
ATOM      9  H4  <0> d          -1.481   7.611   0.057  0.00  0.00     0.114 H 
ATOM     10  H5  <0> d           0.032   5.671   0.032  0.00  0.00     0.087 H 
ENDROOT
BRANCH   6  11
ATOM     11  C6  <0> d          -0.703   3.042   0.024  0.00  0.00     0.010 A 
ATOM     12  C8  <0> d           0.706   3.043   0.011  0.00  0.00     0.034 A 
ATOM     13  N3  <0> d           1.112   1.802   0.001  0.00  0.00    -0.187 NA
ATOM     14  H7  <0> d           1.340   3.918   0.010  0.00  0.00     0.118 H 
ATOM     15  N2  <0> d          -0.011   0.966   0.007  0.00  0.00    -0.289 N 
ATOM     16  C7  <0> d          -1.113   1.740   0.016  0.00  0.00     0.008 A 
ATOM     17  H1  <0> d           0.003  -0.034   0.006  0.00  0.00     0.188 HD
ATOM     18  H6  <0> d          -2.136   1.394   0.018  0.00  0.00     0.115 H 
ENDBRANCH   6  11
TORSDOF 1
