REMARK  1 active torsions:
REMARK  status: ('A' for Active; 'I' for Inactive)
REMARK    1  A    between atoms: C6_6  and  O1_7 
ROOT
ATOM      1  C1  <0> d           2.404   0.032  -0.021  0.00  0.00    -0.045 A 
ATOM      2  C2  <0> d           2.383   1.414  -0.013  0.00  0.00    -0.040 A 
ATOM      3  C3  <0> d           1.175   2.089   0.002  0.00  0.00     0.158 A 
ATOM      4  C4  <0> d          -0.017   1.380   0.010  0.00  0.00     0.196 A 
ATOM      5  C5  <0> d           0.002  -0.004   0.002  0.00  0.00     0.191 A 
ATOM      6  C6  <0> d           1.215  -0.680  -0.013  0.00  0.00     0.107 A 
ATOM      7  F1  <0> d          -1.158  -0.696   0.009  0.00  0.00    -0.200 F 
ATOM      8  F2  <0> d          -1.196   2.040   0.019  0.00  0.00    -0.199 F 
ATOM      9  F3  <0> d           1.157   3.440   0.009  0.00  0.00    -0.203 F 
ATOM     10  H1  <0> d           3.348  -0.493  -0.033  0.00  0.00     0.088 H 
ATOM     11  H2  <0> d           3.310   1.968  -0.019  0.00  0.00     0.088 H 
ENDROOT
BRANCH   6  12
ATOM     12  O1  <0> d           1.236  -2.040  -0.020  0.00  0.00    -0.357 OA
ATOM     13  H3  <0> d           1.234  -2.429  -0.906  0.00  0.00     0.217 HD
ENDBRANCH   6  12
TORSDOF 1
