REMARK  2 active torsions:
REMARK  status: ('A' for Active; 'I' for Inactive)
REMARK    1  A    between atoms: C1_1  and  C2_2 
REMARK    2  A    between atoms: C2_2  and  C3_4 
ROOT
ATOM      1  C3  <0> d          -1.231   1.759   0.017  0.00  0.00     0.119 A 
ATOM      2  C4  <0> d          -0.013   1.076   0.008  0.00  0.00     0.033 A 
ATOM      3  N1  <0> d           1.121   1.753   0.001  0.00  0.00    -0.269 NA
ATOM      4  C5  <0> d           1.103   3.074   0.008  0.00  0.00     0.019 A 
ATOM      5  C6  <0> d          -0.105   3.757   0.023  0.00  0.00     0.020 A 
ATOM      6  N2  <0> d          -1.242   3.091   0.030  0.00  0.00    -0.255 NA
ATOM      7  H4  <0> d           0.002  -0.004   0.002  0.00  0.00     0.118 H 
ATOM      8  H5  <0> d           2.033   3.625   0.002  0.00  0.00     0.117 H 
ATOM      9  H6  <0> d          -0.114   4.837   0.029  0.00  0.00     0.117 H 
ENDROOT
BRANCH   1  10
ATOM     10  C2  <0> d          -2.501   1.009   0.019  0.00  0.00     0.175 C 
ATOM     11  O1  <0> d          -2.488  -0.203   0.013  0.00  0.00    -0.291 OA
BRANCH  10  12
ATOM     12  C1  <0> d          -3.813   1.749   0.029  0.00  0.00    -0.015 C 
ATOM     13  H1  <0> d          -3.641   2.734   0.034  0.00  0.00     0.038 H 
ATOM     14  H2  <0> d          -4.386   1.484  -0.859  0.00  0.00     0.038 H 
ATOM     15  H3  <0> d          -4.378   1.475   0.921  0.00  0.00     0.038 H 
ENDBRANCH  10  12
ENDBRANCH   1  10
TORSDOF 2
