REMARK  8 active torsions:
REMARK  status: ('A' for Active; 'I' for Inactive)
REMARK    1  A    between atoms: C1_1  and  C2_2 
REMARK    2  A    between atoms: C2_2  and  C3_3 
REMARK    3  A    between atoms: C3_3  and  C4_4 
REMARK    4  A    between atoms: C3_3  and  C5_5 
REMARK    5  A    between atoms: C3_3  and  C6_6 
REMARK    6  A    between atoms: C6_6  and  O2_8 
REMARK    7  A    between atoms: O2_8  and  C7_9 
REMARK    8  A    between atoms: C7_9  and  C8_10 
ROOT
ATOM      1  C3  <0> d          -1.433  -0.534   0.013  0.00  0.00     0.040 C 
ENDROOT
BRANCH   1   2
ATOM      2  C2  <0> d           0.002  -0.004   0.002  0.00  0.00    -0.053 C 
ATOM      3  H4  <0> d           0.512  -0.356  -0.895  0.00  0.00     0.034 H 
ATOM      4  H5  <0> d           0.529  -0.365   0.885  0.00  0.00     0.034 H 
BRANCH   2   5
ATOM      5  C1  <0> d          -0.019   1.526   0.010  0.00  0.00    -0.075 C 
ATOM      6  H1  <0> d           1.004   1.903   0.003  0.00  0.00     0.027 H 
ATOM      7  H2  <0> d          -0.546   1.887  -0.873  0.00  0.00     0.027 H 
ATOM      8  H3  <0> d          -0.529   1.877   0.907  0.00  0.00     0.027 H 
ENDBRANCH   2   5
ENDBRANCH   1   2
BRANCH   1   9
ATOM      9  C4  <0> d          -2.149  -0.040   1.272  0.00  0.00    -0.060 C 
ATOM     10  H6  <0> d          -2.164   1.050   1.278  0.00  0.00     0.029 H 
ATOM     11  H7  <0> d          -3.172  -0.417   1.279  0.00  0.00     0.029 H 
ATOM     12  H8  <0> d          -1.622  -0.401   2.155  0.00  0.00     0.029 H 
ENDBRANCH   1   9
BRANCH   1  13
ATOM     13  C5  <0> d          -2.173  -0.027  -1.227  0.00  0.00    -0.060 C 
ATOM     14  H9  <0> d          -1.663  -0.378  -2.123  0.00  0.00     0.029 H 
ATOM     15  H10 <0> d          -3.196  -0.404  -1.219  0.00  0.00     0.029 H 
ATOM     16  H11 <0> d          -2.188   1.063  -1.221  0.00  0.00     0.029 H 
ENDBRANCH   1  13
BRANCH   1  17
ATOM     17  C6  <0> d          -1.413  -2.041   0.005  0.00  0.00     0.266 C 
ATOM     18  O1  <0> d          -0.358  -2.630  -0.009  0.00  0.00    -0.264 OA
BRANCH  17  19
ATOM     19  O2  <0> d          -2.566  -2.727   0.012  0.00  0.00    -0.321 OA
BRANCH  19  20
ATOM     20  C7  <0> d          -2.472  -4.153   0.003  0.00  0.00     0.025 C 
ATOM     21  H12 <0> d          -1.944  -4.477  -0.893  0.00  0.00     0.074 H 
ATOM     22  H13 <0> d          -1.927  -4.487   0.886  0.00  0.00     0.074 H 
BRANCH  20  23
ATOM     23  C8  <0> d          -3.878  -4.757   0.013  0.00  0.00    -0.056 C 
ATOM     24  H14 <0> d          -3.806  -5.845   0.007  0.00  0.00     0.030 H 
ATOM     25  H15 <0> d          -4.406  -4.433   0.910  0.00  0.00     0.030 H 
ATOM     26  H16 <0> d          -4.423  -4.424  -0.870  0.00  0.00     0.030 H 
ENDBRANCH  20  23
ENDBRANCH  19  20
ENDBRANCH  17  19
ENDBRANCH   1  17
TORSDOF 8
