REMARK  0 active torsions:
REMARK  status: ('A' for Active; 'I' for Inactive)
ROOT
ATOM      1  C1  <0> d          -1.222   1.742   0.017  0.00  0.00    -0.029 A 
ATOM      2  C2  <0> d          -0.013   1.076   0.008  0.00  0.00     0.005 A 
ATOM      3  N1  <0> d           1.125   1.743   0.001  0.00  0.00    -0.273 NA
ATOM      4  C3  <0> d           1.158   3.062   0.007  0.00  0.00     0.005 A 
ATOM      5  C4  <0> d          -0.011   3.797   0.022  0.00  0.00    -0.029 A 
ATOM      6  C5  <0> d          -1.230   3.131   0.030  0.00  0.00     0.119 A 
ATOM      7  F1  <0> d          -2.393   3.817   0.044  0.00  0.00    -0.206 F 
ATOM      8  H1  <0> d          -2.151   1.190   0.019  0.00  0.00     0.090 H 
ATOM      9  H2  <0> d           0.002  -0.004   0.002  0.00  0.00     0.114 H 
ATOM     10  H3  <0> d           2.110   3.572   0.000  0.00  0.00     0.114 H 
ATOM     11  H4  <0> d           0.023   4.877   0.026  0.00  0.00     0.090 H 
ENDROOT
TORSDOF 0
