REMARK  4 active torsions:
REMARK  status: ('A' for Active; 'I' for Inactive)
REMARK    1  A    between atoms: C1_1  and  C2_2 
REMARK    2  A    between atoms: C2_2  and  O1_3 
REMARK    3  A    between atoms: O1_3  and  C3_4 
REMARK    4  A    between atoms: C6_8  and  C7_10 
ROOT
ATOM      1  C3  <0> d           0.017  -1.966  -1.198  0.00  0.00     0.167 A 
ATOM      2  C4  <0> d           0.038  -2.682  -0.002  0.00  0.00    -0.015 A 
ATOM      3  C5  <0> d           0.040  -1.975   1.186  0.00  0.00     0.008 A 
ATOM      4  N1  <0> d           0.022  -0.651   1.150  0.00  0.00    -0.246 NA
ATOM      5  C6  <0> d           0.002  -0.004   0.002  0.00  0.00     0.124 A 
ATOM      6  N2  <0> d          -0.006  -0.639  -1.153  0.00  0.00    -0.210 NA
ATOM      7  H6  <0> d           0.053  -3.762  -0.004  0.00  0.00     0.092 H 
ATOM      8  H7  <0> d           0.057  -2.496   2.132  0.00  0.00     0.115 H 
ENDROOT
BRANCH   1   9
ATOM      9  O1  <0> d           0.015  -2.614  -2.388  0.00  0.00    -0.335 OA
BRANCH   9  10
ATOM     10  C2  <0> d          -0.008  -1.806  -3.567  0.00  0.00     0.024 C 
ATOM     11  H4  <0> d          -0.906  -1.189  -3.567  0.00  0.00     0.074 H 
ATOM     12  H5  <0> d           0.874  -1.165  -3.584  0.00  0.00     0.074 H 
BRANCH  10  13
ATOM     13  C1  <0> d          -0.008  -2.708  -4.803  0.00  0.00    -0.056 C 
ATOM     14  H1  <0> d          -0.889  -3.349  -4.785  0.00  0.00     0.030 H 
ATOM     15  H2  <0> d          -0.025  -2.092  -5.702  0.00  0.00     0.030 H 
ATOM     16  H3  <0> d           0.891  -3.325  -4.802  0.00  0.00     0.030 H 
ENDBRANCH  10  13
ENDBRANCH   9  10
ENDBRANCH   1   9
BRANCH   5  17
ATOM     17  C7  <0> d          -0.018   1.503   0.010  0.00  0.00    -0.019 C 
ATOM     18  H8  <0> d           1.004   1.880   0.003  0.00  0.00     0.037 H 
ATOM     19  H9  <0> d          -0.545   1.864  -0.873  0.00  0.00     0.037 H 
ATOM     20  H10 <0> d          -0.529   1.854   0.907  0.00  0.00     0.037 H 
ENDBRANCH   5  17
TORSDOF 4
