REMARK  3 active torsions:
REMARK  status: ('A' for Active; 'I' for Inactive)
REMARK    1  A    between atoms: C1_1  and  C2_2 
REMARK    2  A    between atoms: C2_2  and  C3_3 
REMARK       I    between atoms: N1_6  and  C8_11 
REMARK    3  A    between atoms: C6_8  and  C7_10 
REMARK       I    between atoms: C8_11  and  N2_13 
ROOT
ATOM      1  C3  <0> d          -1.433  -0.534   0.013  0.00  0.00    -0.034 C 
ATOM      2  H1  <0> d          -2.002  -0.101  -0.810  0.00  0.00     0.043 H 
ATOM      3  C4  <0> d          -2.113  -0.215   1.362  0.00  0.00     0.003 C 
ATOM      4  N1  <0> d          -2.951  -1.403   1.648  0.00  0.00    -0.334 N 
ATOM      5  C5  <0> d          -2.119  -2.551   1.219  0.00  0.00     0.003 C 
ATOM      6  C6  <0> d          -1.438  -2.073  -0.084  0.00  0.00    -0.037 C 
ATOM      7  H2  <0> d          -2.011  -2.397  -0.954  0.00  0.00     0.042 H 
ATOM      8  C8  <0> d          -4.190  -1.432   2.178  0.00  0.00     0.316 C 
ATOM      9  O1  <0> d          -4.746  -0.394   2.482  0.00  0.00    -0.247 OA
ATOM     10  N2  <0> d          -4.813  -2.611   2.372  0.00  0.00    -0.352 N 
ATOM     11  H8  <0> d          -1.364  -0.082   2.143  0.00  0.00     0.065 H 
ATOM     12  H9  <0> d          -2.734   0.676   1.274  0.00  0.00     0.065 H 
ATOM     13  H10 <0> d          -1.371  -2.782   1.977  0.00  0.00     0.065 H 
ATOM     14  H11 <0> d          -2.745  -3.421   1.023  0.00  0.00     0.065 H 
ATOM     15  H15 <0> d          -4.369  -3.439   2.130  0.00  0.00     0.160 HD
ATOM     16  H16 <0> d          -5.704  -2.632   2.753  0.00  0.00     0.160 HD
ENDROOT
BRANCH   1  17
ATOM     17  C2  <0> d           0.002  -0.004   0.002  0.00  0.00    -0.063 C 
ATOM     18  H6  <0> d           0.512  -0.356  -0.895  0.00  0.00     0.033 H 
ATOM     19  H7  <0> d           0.529  -0.365   0.885  0.00  0.00     0.033 H 
BRANCH  17  20
ATOM     20  C1  <0> d          -0.019   1.526   0.010  0.00  0.00    -0.076 C 
ATOM     21  H3  <0> d           1.004   1.903   0.003  0.00  0.00     0.027 H 
ATOM     22  H4  <0> d          -0.546   1.887  -0.873  0.00  0.00     0.027 H 
ATOM     23  H5  <0> d          -0.529   1.877   0.907  0.00  0.00     0.027 H 
ENDBRANCH  17  20
ENDBRANCH   1  17
BRANCH   6  24
ATOM     24  C7  <0> d          -0.005  -2.606  -0.162  0.00  0.00    -0.071 C 
ATOM     25  H12 <0> d           0.542  -2.307   0.732  0.00  0.00     0.028 H 
ATOM     26  H13 <0> d          -0.025  -3.693  -0.230  0.00  0.00     0.028 H 
ATOM     27  H14 <0> d           0.487  -2.195  -1.044  0.00  0.00     0.028 H 
ENDBRANCH   6  24
TORSDOF 3
