REMARK  1 active torsions:
REMARK  status: ('A' for Active; 'I' for Inactive)
REMARK    1  A    between atoms: C3_3  and  C6_8 
ROOT
ATOM      1  C1  <0> d          -0.017   1.381   0.010  0.00  0.00    -0.076 A 
ATOM      2  C2  <0> d           1.194   2.058   0.002  0.00  0.00    -0.053 A 
ATOM      3  C3  <0> d           2.371   1.336  -0.013  0.00  0.00     0.101 A 
ATOM      4  N1  <0> d           2.354   0.017  -0.021  0.00  0.00    -0.220 NA
ATOM      5  C4  <0> d           1.221  -0.662  -0.014  0.00  0.00     0.210 A 
ATOM      6  C5  <0> d           0.002  -0.004   0.002  0.00  0.00    -0.027 A 
ATOM      7  F1  <0> d           1.252  -2.013  -0.022  0.00  0.00    -0.184 F 
ATOM      8  H1  <0> d          -0.952   1.921   0.026  0.00  0.00     0.083 H 
ATOM      9  H2  <0> d           1.216   3.138   0.007  0.00  0.00     0.086 H 
ATOM     10  H3  <0> d          -0.922  -0.564   0.008  0.00  0.00     0.090 H 
ENDROOT
BRANCH   3  11
ATOM     11  C6  <0> d           3.691   2.063  -0.022  0.00  0.00     0.249 C 
ATOM     12  F2  <0> d           4.644   1.291  -0.695  0.00  0.00    -0.207 F 
ATOM     13  F3  <0> d           3.542   3.292  -0.674  0.00  0.00    -0.207 F 
ATOM     14  H4  <0> d           4.019   2.233   1.003  0.00  0.00     0.155 H 
ENDBRANCH   3  11
TORSDOF 1
