REMARK  8 active torsions:
REMARK  status: ('A' for Active; 'I' for Inactive)
REMARK    1  A    between atoms: C1_1  and  C2_2 
REMARK    2  A    between atoms: C2_2  and  C3_4 
REMARK    3  A    between atoms: C2_2  and  O1_10 
REMARK    4  A    between atoms: C3_4  and  C4_5 
REMARK    5  A    between atoms: C4_5  and  C5_6 
REMARK    6  A    between atoms: C5_6  and  C6_7 
REMARK    7  A    between atoms: C6_7  and  C7_8 
REMARK    8  A    between atoms: C6_7  and  C8_9 
ROOT
ATOM      1  C4  <0> d          -1.413  -2.059   0.130  0.00  0.00    -0.062 C 
ATOM      2  H7  <0> d          -0.876  -2.482  -0.719  0.00  0.00     0.033 H 
ATOM      3  H8  <0> d          -0.913  -2.346   1.055  0.00  0.00     0.033 H 
ENDROOT
BRANCH   1   4
ATOM      4  C3  <0> d          -1.433  -0.534   0.013  0.00  0.00    -0.041 C 
ATOM      5  H5  <0> d          -1.970  -0.111   0.862  0.00  0.00     0.036 H 
ATOM      6  H6  <0> d          -1.933  -0.247  -0.912  0.00  0.00     0.036 H 
BRANCH   4   7
ATOM      7  C2  <0> d           0.002  -0.004   0.002  0.00  0.00     0.032 C 
ATOM      8  H1  <0> d           0.529  -0.365   0.885  0.00  0.00     0.082 H 
BRANCH   7   9
ATOM      9  C1  <0> d          -0.019   1.526   0.010  0.00  0.00    -0.052 C 
ATOM     10  H2  <0> d           1.004   1.903   0.003  0.00  0.00     0.030 H 
ATOM     11  H3  <0> d          -0.546   1.887  -0.873  0.00  0.00     0.030 H 
ATOM     12  H4  <0> d          -0.529   1.877   0.907  0.00  0.00     0.030 H 
ENDBRANCH   7   9
BRANCH   7  13
ATOM     13  O1  <0> d           0.671  -0.465  -1.174  0.00  0.00    -0.396 OA
ATOM     14  H18 <0> d           1.588  -0.167  -1.247  0.00  0.00     0.210 HD
ENDBRANCH   7  13
ENDBRANCH   4   7
ENDBRANCH   1   4
BRANCH   1  15
ATOM     15  C5  <0> d          -2.849  -2.589   0.141  0.00  0.00    -0.062 C 
ATOM     16  H9  <0> d          -3.385  -2.166   0.990  0.00  0.00     0.033 H 
ATOM     17  H10 <0> d          -3.349  -2.302  -0.784  0.00  0.00     0.033 H 
BRANCH  15  18
ATOM     18  C6  <0> d          -2.829  -4.114   0.258  0.00  0.00    -0.061 C 
ATOM     19  H11 <0> d          -2.217  -4.532  -0.541  0.00  0.00     0.038 H 
BRANCH  18  20
ATOM     20  C7  <0> d          -2.240  -4.514   1.613  0.00  0.00    -0.073 C 
ATOM     21  H12 <0> d          -2.851  -4.096   2.413  0.00  0.00     0.028 H 
ATOM     22  H13 <0> d          -2.225  -5.600   1.696  0.00  0.00     0.028 H 
ATOM     23  H14 <0> d          -1.223  -4.130   1.694  0.00  0.00     0.028 H 
ENDBRANCH  18  20
BRANCH  18  24
ATOM     24  C8  <0> d          -4.256  -4.653   0.144  0.00  0.00    -0.073 C 
ATOM     25  H15 <0> d          -4.676  -4.368  -0.821  0.00  0.00     0.028 H 
ATOM     26  H16 <0> d          -4.242  -5.740   0.228  0.00  0.00     0.028 H 
ATOM     27  H17 <0> d          -4.867  -4.235   0.944  0.00  0.00     0.028 H 
ENDBRANCH  18  24
ENDBRANCH  15  18
ENDBRANCH   1  15
TORSDOF 8
