REMARK  6 active torsions:
REMARK  status: ('A' for Active; 'I' for Inactive)
REMARK    1  A    between atoms: C1_1  and  C2_2 
REMARK    2  A    between atoms: C4_4  and  N2_7 
REMARK    3  A    between atoms: N2_7  and  C5_8 
REMARK    4  A    between atoms: C5_8  and  C6_9 
REMARK    5  A    between atoms: C6_9  and  C7_10 
REMARK    6  A    between atoms: C7_10  and  O2_11 
ROOT
ATOM      1  N2  <0> d          -1.430  -3.282  -0.010  0.00  0.00    -0.373 N 
ATOM      2  H5  <0> d          -1.025  -4.163  -0.017  0.00  0.00     0.161 HD
ENDROOT
BRANCH   1   3
ATOM      3  C4  <0> d          -0.625  -2.147  -0.008  0.00  0.00     0.153 A 
ATOM      4  C3  <0> d          -1.076  -0.807   0.003  0.00  0.00    -0.006 A 
ATOM      5  C2  <0> d           0.002  -0.004   0.002  0.00  0.00     0.078 A 
ATOM      6  H4  <0> d          -2.107  -0.485   0.010  0.00  0.00     0.093 H 
ATOM      7  O1  <0> d           1.100  -0.776  -0.013  0.00  0.00    -0.216 OA
ATOM      8  N1  <0> d           0.684  -2.130  -0.014  0.00  0.00    -0.110 NA
BRANCH   5   9
ATOM      9  C1  <0> d          -0.018   1.503   0.010  0.00  0.00    -0.029 C 
ATOM     10  H1  <0> d           1.004   1.880   0.003  0.00  0.00     0.036 H 
ATOM     11  H2  <0> d          -0.545   1.864  -0.873  0.00  0.00     0.036 H 
ATOM     12  H3  <0> d          -0.529   1.854   0.907  0.00  0.00     0.036 H 
ENDBRANCH   5   9
ENDBRANCH   1   3
BRANCH   1  13
ATOM     13  C5  <0> d          -2.888  -3.146  -0.001  0.00  0.00    -0.004 C 
ATOM     14  H6  <0> d          -3.197  -2.606   0.893  0.00  0.00     0.064 H 
ATOM     15  H7  <0> d          -3.207  -2.595  -0.887  0.00  0.00     0.064 H 
BRANCH  13  16
ATOM     16  C6  <0> d          -3.530  -4.535  -0.006  0.00  0.00    -0.031 C 
ATOM     17  H8  <0> d          -3.221  -5.075  -0.901  0.00  0.00     0.038 H 
ATOM     18  H9  <0> d          -3.211  -5.085   0.879  0.00  0.00     0.038 H 
BRANCH  16  19
ATOM     19  C7  <0> d          -5.053  -4.393   0.003  0.00  0.00     0.018 C 
ATOM     20  H10 <0> d          -5.363  -3.852   0.898  0.00  0.00     0.074 H 
ATOM     21  H11 <0> d          -5.372  -3.842  -0.882  0.00  0.00     0.074 H 
BRANCH  19  22
ATOM     22  O2  <0> d          -5.653  -5.690  -0.002  0.00  0.00    -0.401 OA
ATOM     23  H12 <0> d          -6.620  -5.676   0.004  0.00  0.00     0.209 HD
ENDBRANCH  19  22
ENDBRANCH  16  19
ENDBRANCH  13  16
ENDBRANCH   1  13
TORSDOF 6
