REMARK  3 active torsions:
REMARK  status: ('A' for Active; 'I' for Inactive)
REMARK    1  A    between atoms: C1_1  and  C2_2 
REMARK    2  A    between atoms: C3_3  and  O1_9 
REMARK    3  A    between atoms: O1_9  and  C8_10 
ROOT
ATOM      1  C2  <0> d           0.002  -0.004   0.002  0.00  0.00     0.010 A 
ATOM      2  C3  <0> d           0.006  -0.692  -1.203  0.00  0.00     0.077 A 
ATOM      3  C4  <0> d           0.025  -2.079  -1.207  0.00  0.00    -0.050 A 
ATOM      4  C5  <0> d           0.040  -2.774  -0.013  0.00  0.00    -0.077 A 
ATOM      5  C6  <0> d           0.036  -2.088   1.187  0.00  0.00    -0.045 A 
ATOM      6  C7  <0> d           0.023  -0.703   1.196  0.00  0.00     0.125 A 
ATOM      7  F1  <0> d           0.025  -0.035   2.370  0.00  0.00    -0.205 F 
ATOM      8  H4  <0> d           0.027  -2.616  -2.144  0.00  0.00     0.087 H 
ATOM      9  H5  <0> d           0.054  -3.853  -0.017  0.00  0.00     0.083 H 
ATOM     10  H6  <0> d           0.047  -2.633   2.120  0.00  0.00     0.088 H 
ENDROOT
BRANCH   2  11
ATOM     11  O1  <0> d          -0.009  -0.008  -2.377  0.00  0.00    -0.355 OA
BRANCH  11  12
ATOM     12  C8  <0> d          -0.005  -0.781  -3.578  0.00  0.00     0.010 C 
ATOM     13  H7  <0> d           0.894  -1.397  -3.610  0.00  0.00     0.066 H 
ATOM     14  H8  <0> d          -0.886  -1.422  -3.601  0.00  0.00     0.066 H 
ATOM     15  H9  <0> d          -0.018  -0.114  -4.440  0.00  0.00     0.066 H 
ENDBRANCH  11  12
ENDBRANCH   2  11
BRANCH   1  16
ATOM     16  C1  <0> d          -0.018   1.503   0.010  0.00  0.00    -0.046 C 
ATOM     17  H1  <0> d           1.004   1.880   0.003  0.00  0.00     0.033 H 
ATOM     18  H2  <0> d          -0.545   1.864  -0.873  0.00  0.00     0.033 H 
ATOM     19  H3  <0> d          -0.529   1.854   0.907  0.00  0.00     0.033 H 
ENDBRANCH   1  16
TORSDOF 3
