REMARK  1 active torsions:
REMARK  status: ('A' for Active; 'I' for Inactive)
REMARK    1  A    between atoms: C4_9  and  N5_13 
ROOT
ATOM      1  C1  <0> d          -0.017   1.389   0.010  0.00  0.00     0.057 C 
ATOM      2  N1  <0> d           1.190   1.904   0.001  0.00  0.00    -0.266 NA
ATOM      3  C2  <0> d           2.120   0.799   0.019  0.00  0.00     0.149 C 
ATOM      4  H1  <0> d           2.300   0.504   1.053  0.00  0.00     0.097 H 
ATOM      5  C3  <0> d           1.258  -0.305  -0.678  0.00  0.00     0.122 C 
ATOM      6  H2  <0> d           1.174  -0.129  -1.750  0.00  0.00     0.111 H 
ATOM      7  N2  <0> d           0.002  -0.004   0.002  0.00  0.00    -0.361 N 
ATOM      8  N3  <0> d           1.983  -1.535  -0.409  0.00  0.00    -0.199 N 
ATOM      9  C4  <0> d           3.292  -1.505  -0.857  0.00  0.00     0.720 C 
ATOM     10  N4  <0> d           3.929  -0.359  -1.053  0.00  0.00    -0.024 NA
ATOM     11  C5  <0> d           3.409   0.815  -0.711  0.00  0.00     0.288 C 
ATOM     12  O1  <0> d           3.977   1.852  -0.992  0.00  0.00    -0.268 OA
ATOM     13  H3  <0> d          -0.922   1.978   0.026  0.00  0.00     0.142 H 
ATOM     14  H4  <0> d          -0.656  -0.621   0.360  0.00  0.00     0.162 HD
ATOM     15  H6  <0> d           1.589  -2.300   0.040  0.00  0.00     0.180 HD
ENDROOT
BRANCH   9  16
ATOM     16  N5  <0> d           3.940  -2.679  -1.101  0.00  0.00    -0.116 NA
ATOM     17  H5  <0> d           4.858  -2.669  -1.415  0.00  0.00     0.206 HD
ENDBRANCH   9  16
TORSDOF 1
