REMARK  3 active torsions:
REMARK  status: ('A' for Active; 'I' for Inactive)
REMARK    1  A    between atoms: C1_1  and  C2_2 
REMARK    2  A    between atoms: C2_2  and  N1_3 
REMARK    3  A    between atoms: C3_4  and  C7_10 
ROOT
ATOM      1  N1  <0> d           1.066  -0.314  -1.331  0.00  0.00    -0.338 N 
ATOM      2  C3  <0> d           0.245  -0.708  -2.482  0.00  0.00     0.099 C 
ATOM      3  H1  <0> d          -0.334  -1.600  -2.245  0.00  0.00     0.089 H 
ATOM      4  C4  <0> d           1.246  -1.007  -3.620  0.00  0.00    -0.029 C 
ATOM      5  C5  <0> d           2.520  -1.382  -2.828  0.00  0.00     0.012 C 
ATOM      6  C6  <0> d           2.349  -0.681  -1.499  0.00  0.00     0.220 C 
ATOM      7  O1  <0> d           3.238  -0.480  -0.699  0.00  0.00    -0.273 OA
ATOM      8  H7  <0> d           0.905  -1.844  -4.230  0.00  0.00     0.037 H 
ATOM      9  H8  <0> d           1.415  -0.122  -4.234  0.00  0.00     0.037 H 
ATOM     10  H9  <0> d           2.579  -2.461  -2.690  0.00  0.00     0.047 H 
ATOM     11  H10 <0> d           3.409  -1.012  -3.339  0.00  0.00     0.047 H 
ENDROOT
BRANCH   1  12
ATOM     12  C2  <0> d           0.555   0.392  -0.154  0.00  0.00    -0.005 C 
ATOM     13  H5  <0> d          -0.346   0.943  -0.424  0.00  0.00     0.063 H 
ATOM     14  H6  <0> d           1.312   1.087   0.209  0.00  0.00     0.063 H 
BRANCH  12  15
ATOM     15  C1  <0> d           0.224  -0.621   0.944  0.00  0.00    -0.061 C 
ATOM     16  H2  <0> d          -0.593  -1.262   0.613  0.00  0.00     0.029 H 
ATOM     17  H3  <0> d           1.102  -1.231   1.153  0.00  0.00     0.029 H 
ATOM     18  H4  <0> d          -0.074  -0.091   1.849  0.00  0.00     0.029 H 
ENDBRANCH  12  15
ENDBRANCH   1  12
BRANCH   2  19
ATOM     19  C7  <0> d          -0.674   0.420  -2.877  0.00  0.00     0.196 C 
ATOM     20  O2  <0> d          -0.428   1.560  -2.520  0.00  0.00    -0.646 OA
ATOM     21  O3  <0> d          -1.662   0.193  -3.553  0.00  0.00    -0.646 OA
ENDBRANCH   2  19
TORSDOF 3
