REMARK  2 active torsions:
REMARK  status: ('A' for Active; 'I' for Inactive)
REMARK    1  A    between atoms: C1_1  and  C2_2 
REMARK    2  A    between atoms: C7_10  and  O1_12 
ROOT
ATOM      1  C2  <0> d           4.082   2.059  -0.027  0.00  0.00    -0.057 A 
ATOM      2  C3  <0> d           3.536   0.795  -0.028  0.00  0.00    -0.049 A 
ATOM      3  C4  <0> d           2.153   0.635  -0.015  0.00  0.00     0.065 A 
ATOM      4  C5  <0> d           1.319   1.768  -0.001  0.00  0.00     0.044 A 
ATOM      5  C6  <0> d          -0.016   1.297   0.009  0.00  0.00     0.036 A 
ATOM      6  N1  <0> d           0.002  -0.004   0.002  0.00  0.00    -0.186 NA
ATOM      7  N2  <0> d           1.326  -0.459  -0.013  0.00  0.00    -0.278 N 
ATOM      8  H1  <0> d           1.618  -1.416  -0.021  0.00  0.00     0.189 HD
ATOM      9  C7  <0> d           1.893   3.050  -0.001  0.00  0.00     0.080 A 
ATOM     10  C8  <0> d           3.267   3.183  -0.013  0.00  0.00    -0.044 A 
ATOM     11  H5  <0> d           4.181  -0.071  -0.039  0.00  0.00     0.087 H 
ATOM     12  H6  <0> d          -0.901   1.915   0.017  0.00  0.00     0.118 H 
ATOM     13  H7  <0> d           3.710   4.167  -0.013  0.00  0.00     0.088 H 
ENDROOT
BRANCH   1  14
ATOM     14  C1  <0> d           5.580   2.224  -0.042  0.00  0.00    -0.051 C 
ATOM     15  H2  <0> d           5.930   2.270  -1.073  0.00  0.00     0.033 H 
ATOM     16  H3  <0> d           5.848   3.146   0.474  0.00  0.00     0.033 H 
ATOM     17  H4  <0> d           6.044   1.377   0.463  0.00  0.00     0.033 H 
ENDBRANCH   1  14
BRANCH   9  18
ATOM     18  O1  <0> d           1.101   4.153   0.012  0.00  0.00    -0.360 OA
ATOM     19  H8  <0> d           0.863   4.477  -0.868  0.00  0.00     0.217 HD
ENDBRANCH   9  18
TORSDOF 2
