REMARK  3 active torsions:
REMARK  status: ('A' for Active; 'I' for Inactive)
REMARK    1  A    between atoms: C1_1  and  O1_2 
REMARK    2  A    between atoms: O1_2  and  C2_3 
REMARK    3  A    between atoms: C7_8  and  O2_9 
ROOT
ATOM      1  C2  <0> d          -1.976   1.163   1.348  0.00  0.00     0.101 A 
ATOM      2  C3  <0> d          -2.588   0.360   0.399  0.00  0.00    -0.046 A 
ATOM      3  C4  <0> d          -3.904  -0.030   0.568  0.00  0.00    -0.059 A 
ATOM      4  C5  <0> d          -4.612   0.380   1.683  0.00  0.00     0.036 A 
ATOM      5  C6  <0> d          -4.006   1.181   2.635  0.00  0.00    -0.027 A 
ATOM      6  C7  <0> d          -2.686   1.570   2.473  0.00  0.00     0.100 A 
ATOM      7 Cl1  <0> d          -6.264  -0.113   1.890  0.00  0.00    -0.084 Cl
ATOM      8  H4  <0> d          -2.037   0.039  -0.473  0.00  0.00     0.087 H 
ATOM      9  H5  <0> d          -4.379  -0.656  -0.173  0.00  0.00     0.086 H 
ATOM     10  H6  <0> d          -4.561   1.499   3.505  0.00  0.00     0.090 H 
ENDROOT
BRANCH   1  11
ATOM     11  O1  <0> d          -0.682   1.547   1.184  0.00  0.00    -0.353 OA
BRANCH  11  12
ATOM     12  C1  <0> d          -0.013   1.086   0.008  0.00  0.00     0.010 C 
ATOM     13  H1  <0> d           1.019   1.467   0.000  0.00  0.00     0.066 H 
ATOM     14  H2  <0> d          -0.545   1.450  -0.883  0.00  0.00     0.066 H 
ATOM     15  H3  <0> d           0.002  -0.014   0.002  0.00  0.00     0.066 H 
ENDBRANCH  11  12
ENDBRANCH   1  11
BRANCH   6  16
ATOM     16  O2  <0> d          -2.087   2.353   3.410  0.00  0.00    -0.358 OA
ATOM     17  H7  <0> d          -2.650   2.675   4.299  0.00  0.00     0.217 HD
ENDBRANCH   6  16
TORSDOF 3
