REMARK  2 active torsions:
REMARK  status: ('A' for Active; 'I' for Inactive)
REMARK    1  A    between atoms: C4_5  and  C5_6 
REMARK    2  A    between atoms: C5_6  and  C6_8 
ROOT
ATOM      1  C6  <0> d           4.257   2.200  -0.027  0.00  0.00     0.074 C 
ATOM      2  C7  <0> d           5.716   2.004  -0.043  0.00  0.00     0.067 C 
ATOM      3  N1  <0> d           6.841   1.852  -0.054  0.00  0.00    -0.197 NA
ATOM      4  H4  <0> d           3.954   2.768  -0.919  0.00  0.00     0.067 H 
ATOM      5  H5  <0> d           3.972   2.758   0.877  0.00  0.00     0.067 H 
ENDROOT
BRANCH   1   6
ATOM      6  C5  <0> d           3.569   0.859  -0.028  0.00  0.00     0.174 C 
ATOM      7  O2  <0> d           4.227  -0.160  -0.040  0.00  0.00    -0.291 OA
BRANCH   6   8
ATOM      8  C4  <0> d           2.105   0.786  -0.014  0.00  0.00     0.035 A 
ATOM      9  C1  <0> d           1.274  -0.428  -0.012  0.00  0.00    -0.046 A 
ATOM     10  C2  <0> d           0.002  -0.004   0.002  0.00  0.00     0.019 A 
ATOM     11  H1  <0> d           1.618  -1.452  -0.021  0.00  0.00     0.087 H 
ATOM     12  O1  <0> d          -0.016   1.338   0.009  0.00  0.00    -0.334 OA
ATOM     13  H2  <0> d          -0.870  -0.641   0.007  0.00  0.00     0.123 H 
ATOM     14  C3  <0> d           1.224   1.833   0.000  0.00  0.00     0.032 A 
ATOM     15  H3  <0> d           1.487   2.881   0.003  0.00  0.00     0.124 H 
ENDBRANCH   6   8
ENDBRANCH   1   6
TORSDOF 2
