REMARK  1 active torsions:
REMARK  status: ('A' for Active; 'I' for Inactive)
REMARK    1  A    between atoms: C1_1  and  C2_2 
ROOT
ATOM      1  C2  <0> d          -2.155   1.474  -0.759  0.00  0.00     0.092 C 
ATOM      2  H1  <0> d          -2.525   0.611  -1.103  0.00  0.00     0.094 H 
ATOM      3  C3  <0> d          -2.247   1.513   0.754  0.00  0.00     0.157 C 
ATOM      4  O1  <0> d          -3.245   1.470   1.433  0.00  0.00    -0.295 OA
ATOM      5  C4  <0> d          -0.799   1.616   1.233  0.00  0.00     0.013 C 
ATOM      6  C5  <0> d          -0.013   1.086   0.008  0.00  0.00     0.027 C 
ATOM      7  O2  <0> d          -0.768   1.592  -1.115  0.00  0.00    -0.378 OA
ATOM      8  H5  <0> d          -0.681   1.065   2.059  0.00  0.00     0.047 H 
ATOM      9  H6  <0> d          -0.534   2.652   1.446  0.00  0.00     0.047 H 
ATOM     10  H7  <0> d           0.002  -0.004   0.002  0.00  0.00     0.075 H 
ATOM     11  H8  <0> d           1.002   1.484   0.001  0.00  0.00     0.075 H 
ENDROOT
BRANCH   1  12
ATOM     12  C1  <0> d          -2.945   2.641  -1.356  0.00  0.00    -0.046 C 
ATOM     13  H2  <0> d          -2.870   2.612  -2.443  0.00  0.00     0.031 H 
ATOM     14  H3  <0> d          -3.991   2.560  -1.062  0.00  0.00     0.031 H 
ATOM     15  H4  <0> d          -2.536   3.582  -0.989  0.00  0.00     0.031 H 
ENDBRANCH   1  12
TORSDOF 1
