REMARK  5 active torsions:
REMARK  status: ('A' for Active; 'I' for Inactive)
REMARK    1  A    between atoms: C1_1  and  C2_2 
REMARK    2  A    between atoms: C2_2  and  C3_3 
REMARK    3  A    between atoms: C2_2  and  O1_4 
REMARK    4  A    between atoms: O1_4  and  C4_5 
REMARK    5  A    between atoms: C9_10  and  N1_11 
ROOT
ATOM      1  C4  <0> d          -0.005  -0.022   0.215  0.00  0.00     0.095 A 
ATOM      2  C5  <0> d           1.179  -0.714   0.412  0.00  0.00    -0.049 A 
ATOM      3  C6  <0> d           2.357  -0.022   0.621  0.00  0.00    -0.080 A 
ATOM      4  C7  <0> d           2.359   1.360   0.634  0.00  0.00    -0.081 A 
ATOM      5  C8  <0> d           1.182   2.058   0.439  0.00  0.00    -0.055 A 
ATOM      6  C9  <0> d          -0.004   1.371   0.229  0.00  0.00     0.059 A 
ATOM      7  H8  <0> d           1.181  -1.794   0.402  0.00  0.00     0.087 H 
ATOM      8  H9  <0> d           3.280  -0.564   0.773  0.00  0.00     0.083 H 
ATOM      9  H10 <0> d           3.282   1.896   0.797  0.00  0.00     0.083 H 
ATOM     10  H11 <0> d           1.186   3.138   0.450  0.00  0.00     0.087 H 
ENDROOT
BRANCH   1  11
ATOM     11  O1  <0> d          -1.165  -0.702   0.009  0.00  0.00    -0.344 OA
BRANCH  11  12
ATOM     12  C2  <0> d          -1.073  -2.123  -0.111  0.00  0.00     0.038 C 
ATOM     13  H4  <0> d          -0.145  -2.385  -0.619  0.00  0.00     0.082 H 
BRANCH  12  14
ATOM     14  C1  <0> d          -1.087  -2.754   1.282  0.00  0.00    -0.052 C 
ATOM     15  H1  <0> d          -2.016  -2.492   1.790  0.00  0.00     0.030 H 
ATOM     16  H2  <0> d          -1.017  -3.838   1.191  0.00  0.00     0.030 H 
ATOM     17  H3  <0> d          -0.240  -2.382   1.859  0.00  0.00     0.030 H 
ENDBRANCH  12  14
BRANCH  12  18
ATOM     18  C3  <0> d          -2.262  -2.645  -0.920  0.00  0.00    -0.052 C 
ATOM     19  H5  <0> d          -2.252  -2.195  -1.913  0.00  0.00     0.030 H 
ATOM     20  H6  <0> d          -2.191  -3.729  -1.012  0.00  0.00     0.030 H 
ATOM     21  H7  <0> d          -3.190  -2.383  -0.412  0.00  0.00     0.030 H 
ENDBRANCH  12  18
ENDBRANCH  11  12
ENDBRANCH   1  11
BRANCH   6  22
ATOM     22  N1  <0> d          -1.197   2.075   0.024  0.00  0.00    -0.397 N 
ATOM     23  H12 <0> d          -2.025   1.593  -0.127  0.00  0.00     0.156 HD
ATOM     24  H13 <0> d          -1.195   3.045   0.034  0.00  0.00     0.156 HD
ENDBRANCH   6  22
TORSDOF 5
