REMARK  6 active torsions:
REMARK  status: ('A' for Active; 'I' for Inactive)
REMARK    1  A    between atoms: C1_1  and  O1_2 
REMARK    2  A    between atoms: O1_2  and  C2_3 
REMARK    3  A    between atoms: C2_3  and  C3_4 
REMARK    4  A    between atoms: C3_4  and  C4_6 
REMARK    5  A    between atoms: C3_4  and  O3_8 
REMARK    6  A    between atoms: C4_6  and  O2_7 
ROOT
ATOM      1  C3  <0> d          -1.154  -2.126   0.002  0.00  0.00     0.076 C 
ATOM      2  H1  <0> d          -0.525  -2.438   0.836  0.00  0.00     0.089 H 
ENDROOT
BRANCH   1   3
ATOM      3  C2  <0> d          -1.295  -0.603   0.011  0.00  0.00     0.045 C 
ATOM      4  H5  <0> d          -1.832  -0.294   0.908  0.00  0.00     0.078 H 
ATOM      5  H6  <0> d          -1.849  -0.284  -0.872  0.00  0.00     0.078 H 
BRANCH   3   6
ATOM      6  O1  <0> d           0.002  -0.004   0.002  0.00  0.00    -0.393 OA
BRANCH   6   7
ATOM      7  C1  <0> d          -0.017   1.425   0.010  0.00  0.00     0.004 C 
ATOM      8  H2  <0> d           1.005   1.802   0.002  0.00  0.00     0.066 H 
ATOM      9  H3  <0> d          -0.544   1.786  -0.873  0.00  0.00     0.066 H 
ATOM     10  H4  <0> d          -0.527   1.776   0.907  0.00  0.00     0.066 H 
ENDBRANCH   6   7
ENDBRANCH   3   6
ENDBRANCH   1   3
BRANCH   1  11
ATOM     11  C4  <0> d          -2.536  -2.768   0.137  0.00  0.00     0.042 C 
ATOM     12  H7  <0> d          -3.030  -2.383   1.030  0.00  0.00     0.078 H 
ATOM     13  H8  <0> d          -3.136  -2.528  -0.741  0.00  0.00     0.078 H 
BRANCH  11  14
ATOM     14  O2  <0> d          -2.395  -4.186   0.245  0.00  0.00    -0.398 OA
ATOM     15  H9  <0> d          -3.234  -4.659   0.334  0.00  0.00     0.209 HD
ENDBRANCH  11  14
ENDBRANCH   1  11
BRANCH   1  16
ATOM     16  O3  <0> d          -0.554  -2.542  -1.227  0.00  0.00    -0.391 OA
ATOM     17  H10 <0> d          -1.061  -2.297  -2.014  0.00  0.00     0.210 HD
ENDBRANCH   1  16
TORSDOF 6
