REMARK  1 active torsions:
REMARK  status: ('A' for Active; 'I' for Inactive)
REMARK    1  A    between atoms: C3_3  and  O1_9 
ROOT
ATOM      1  C1  <0> d           0.002  -0.004   0.002  0.00  0.00    -0.060 A 
ATOM      2  C2  <0> d          -0.017   1.373   0.010  0.00  0.00    -0.050 A 
ATOM      3  C3  <0> d           1.176   2.086   0.002  0.00  0.00     0.065 A 
ATOM      4  C4  <0> d           2.392   1.414  -0.013  0.00  0.00    -0.050 A 
ATOM      5  C5  <0> d           2.420   0.037  -0.021  0.00  0.00    -0.060 A 
ATOM      6  C6  <0> d           1.223  -0.684  -0.013  0.00  0.00     0.044 A 
ATOM      7  C7  <0> d           1.247  -2.116  -0.021  0.00  0.00     0.099 C 
ATOM      8  N1  <0> d           1.266  -3.252  -0.027  0.00  0.00    -0.191 NA
ATOM      9  H1  <0> d          -0.925  -0.557   0.007  0.00  0.00     0.086 H 
ATOM     10  H2  <0> d          -0.960   1.900   0.017  0.00  0.00     0.087 H 
ATOM     11  H3  <0> d           3.317   1.972  -0.019  0.00  0.00     0.087 H 
ATOM     12  H4  <0> d           3.365  -0.485  -0.032  0.00  0.00     0.086 H 
ENDROOT
BRANCH   3  13
ATOM     13  O1  <0> d           1.153   3.444   0.009  0.00  0.00    -0.361 OA
ATOM     14  H5  <0> d           1.155   3.832   0.895  0.00  0.00     0.217 HD
ENDBRANCH   3  13
TORSDOF 1
