REMARK  5 active torsions:
REMARK  status: ('A' for Active; 'I' for Inactive)
REMARK    1  A    between atoms: C1_1  and  C2_2 
REMARK    2  A    between atoms: C2_2  and  C3_4 
REMARK    3  A    between atoms: C2_2  and  O2_12 
REMARK    4  A    between atoms: C3_4  and  C4_5 
REMARK    5  A    between atoms: C4_5  and  C5_6 
ROOT
ATOM      1  C4  <0> d          -1.290  -0.556   0.607  0.00  0.00    -0.039 C 
ATOM      2  H8  <0> d          -1.344  -0.281   1.661  0.00  0.00     0.036 H 
ATOM      3  H9  <0> d          -2.147  -0.138   0.079  0.00  0.00     0.036 H 
ENDROOT
BRANCH   1   4
ATOM      4  C3  <0> d          -1.304  -2.080   0.476  0.00  0.00    -0.039 C 
ATOM      5  H6  <0> d          -1.250  -2.355  -0.577  0.00  0.00     0.036 H 
ATOM      6  H7  <0> d          -0.448  -2.498   1.005  0.00  0.00     0.036 H 
BRANCH   4   7
ATOM      7  C2  <0> d          -2.596  -2.632   1.082  0.00  0.00     0.032 C 
ATOM      8  H1  <0> d          -2.694  -2.284   2.110  0.00  0.00     0.082 H 
BRANCH   7   9
ATOM      9  C1  <0> d          -2.555  -4.162   1.064  0.00  0.00    -0.052 C 
ATOM     10  H3  <0> d          -1.703  -4.509   1.648  0.00  0.00     0.030 H 
ATOM     11  H4  <0> d          -3.476  -4.555   1.495  0.00  0.00     0.030 H 
ATOM     12  H5  <0> d          -2.458  -4.511   0.036  0.00  0.00     0.030 H 
ENDBRANCH   7   9
BRANCH   7  13
ATOM     13  O2  <0> d          -3.714  -2.177   0.316  0.00  0.00    -0.396 OA
ATOM     14  H16 <0> d          -3.693  -2.451  -0.611  0.00  0.00     0.210 HD
ENDBRANCH   7  13
ENDBRANCH   4   7
ENDBRANCH   1   4
BRANCH   1  15
ATOM     15  C5  <0> d           0.002  -0.004   0.002  0.00  0.00     0.038 C 
ATOM     16  H2  <0> d           0.132  -0.375  -1.015  0.00  0.00     0.083 H 
ATOM     17  O1  <0> d           1.130  -0.368   0.813  0.00  0.00    -0.386 OA
ATOM     18  C8  <0> d           2.084   0.700   0.833  0.00  0.00     0.020 C 
ATOM     19  C7  <0> d           1.502   1.861  -0.002  0.00  0.00    -0.043 C 
ATOM     20  H14 <0> d           2.250   1.029   1.858  0.00  0.00     0.074 H 
ATOM     21  H15 <0> d           3.025   0.364   0.396  0.00  0.00     0.074 H 
ATOM     22  C6  <0> d          -0.019   1.545   0.011  0.00  0.00    -0.039 C 
ATOM     23  H12 <0> d           1.893   1.842  -1.019  0.00  0.00     0.036 H 
ATOM     24  H13 <0> d           1.703   2.820   0.474  0.00  0.00     0.036 H 
ATOM     25  H10 <0> d          -0.509   1.936  -0.881  0.00  0.00     0.036 H 
ATOM     26  H11 <0> d          -0.492   1.927   0.916  0.00  0.00     0.036 H 
ENDBRANCH   1  15
TORSDOF 5
