REMARK  8 active torsions:
REMARK  status: ('A' for Active; 'I' for Inactive)
REMARK    1  A    between atoms: C1_1  and  C2_2 
REMARK    2  A    between atoms: C2_2  and  C3_4 
REMARK    3  A    between atoms: C2_2  and  C6_9 
REMARK    4  A    between atoms: C3_4  and  O1_5 
REMARK    5  A    between atoms: C3_4  and  O2_7 
REMARK    6  A    between atoms: O1_5  and  C4_6 
REMARK    7  A    between atoms: O2_7  and  C5_8 
REMARK    8  A    between atoms: C6_9  and  C7_11 
ROOT
ATOM      1  C2  <0> d           0.533  -0.029   0.508  0.00  0.00     0.048 C 
ATOM      2  H1  <0> d          -0.532  -0.244   0.427  0.00  0.00     0.058 H 
ENDROOT
BRANCH   1   3
ATOM      3  C1  <0> d           0.740   1.483   0.624  0.00  0.00    -0.062 C 
ATOM      4  H2  <0> d           1.806   1.698   0.704  0.00  0.00     0.028 H 
ATOM      5  H3  <0> d           0.336   1.974  -0.262  0.00  0.00     0.028 H 
ATOM      6  H4  <0> d           0.227   1.853   1.511  0.00  0.00     0.028 H 
ENDBRANCH   1   3
BRANCH   1   7
ATOM      7  C3  <0> d           1.254  -0.549  -0.738  0.00  0.00     0.139 C 
ATOM      8  H5  <0> d           2.320  -0.333  -0.657  0.00  0.00     0.130 H 
BRANCH   7   9
ATOM      9  O1  <0> d           1.060  -1.960  -0.846  0.00  0.00    -0.365 OA
BRANCH   9  10
ATOM     10  C4  <0> d           1.919  -2.594  -1.796  0.00  0.00     0.007 C 
ATOM     11  H6  <0> d           1.959  -3.664  -1.593  0.00  0.00     0.066 H 
ATOM     12  H7  <0> d           1.533  -2.429  -2.802  0.00  0.00     0.066 H 
ATOM     13  H8  <0> d           2.921  -2.172  -1.718  0.00  0.00     0.066 H 
ENDBRANCH   9  10
ENDBRANCH   7   9
BRANCH   7  14
ATOM     14  O2  <0> d           0.724   0.095  -1.898  0.00  0.00    -0.365 OA
BRANCH  14  15
ATOM     15  C5  <0> d           1.623   0.122  -3.009  0.00  0.00     0.007 C 
ATOM     16  H9  <0> d           2.569   0.567  -2.700  0.00  0.00     0.066 H 
ATOM     17  H10 <0> d           1.797  -0.894  -3.361  0.00  0.00     0.066 H 
ATOM     18  H11 <0> d           1.188   0.716  -3.813  0.00  0.00     0.066 H 
ENDBRANCH  14  15
ENDBRANCH   7  14
ENDBRANCH   1   7
BRANCH   1  19
ATOM     19  C6  <0> d           1.092  -0.708   1.732  0.00  0.00     0.131 C 
ATOM     20  O3  <0> d           2.244  -1.071   1.748  0.00  0.00    -0.298 OA
BRANCH  19  21
ATOM     21  C7  <0> d           0.213  -0.934   2.935  0.00  0.00    -0.021 C 
ATOM     22  H12 <0> d          -0.784  -0.543   2.736  0.00  0.00     0.037 H 
ATOM     23  H13 <0> d           0.150  -2.002   3.143  0.00  0.00     0.037 H 
ATOM     24  H14 <0> d           0.639  -0.420   3.797  0.00  0.00     0.037 H 
ENDBRANCH  19  21
ENDBRANCH   1  19
TORSDOF 8
