REMARK  2 active torsions:
REMARK  status: ('A' for Active; 'I' for Inactive)
REMARK    1  A    between atoms: C3_6  and  C4_7 
REMARK    2  A    between atoms: C4_7  and  C5_8 
ROOT
ATOM      1  C1  <0> d          -2.993   0.341   1.107  0.00  0.00    -0.041 A 
ATOM      2  C2  <0> d          -4.019  -0.504   0.672  0.00  0.00     0.023 A 
ATOM      3  N1  <0> d          -4.100  -0.411  -0.631  0.00  0.00    -0.187 NA
ATOM      4  N2  <0> d          -3.131   0.501  -1.066  0.00  0.00    -0.282 N 
ATOM      5  H1  <0> d          -3.034   0.732  -2.137  0.00  0.00     0.189 HD
ATOM      6  C3  <0> d          -2.462   0.945   0.019  0.00  0.00     0.039 A 
ATOM      7  H2  <0> d          -2.680   0.486   2.130  0.00  0.00     0.088 H 
ATOM      8  H3  <0> d          -4.637  -1.126   1.302  0.00  0.00     0.117 H 
ENDROOT
BRANCH   6   9
ATOM      9  C4  <0> d          -1.329   1.940   0.019  0.00  0.00     0.055 C 
ATOM     10  H4  <0> d          -1.401   2.576  -0.875  0.00  0.00     0.058 H 
ATOM     11  H5  <0> d          -1.392   2.566   0.921  0.00  0.00     0.058 H 
BRANCH   9  12
ATOM     12  C5  <0> d          -0.014   1.204   0.009  0.00  0.00     0.178 C 
ATOM     13  O1  <0> d           0.002  -0.004   0.002  0.00  0.00    -0.648 OA
ATOM     14  O2  <0> d           1.139   1.891   0.001  0.00  0.00    -0.648 OA
ENDBRANCH   9  12
ENDBRANCH   6   9
TORSDOF 2
