REMARK  1 active torsions:
REMARK  status: ('A' for Active; 'I' for Inactive)
REMARK    1  A    between atoms: C2_2  and  C3_3 
ROOT
ATOM      1  C1  <0> d           0.018  -1.178  -0.004  0.00  0.00    -0.149 C 
ATOM      2  C2  <0> d           0.002  -0.004   0.002  0.00  0.00    -0.078 C 
ATOM      3  H1  <0> d           0.032  -2.228  -0.010  0.00  0.00     0.166 H 
ENDROOT
BRANCH   2   4
ATOM      4  C3  <0> d          -0.017   1.428   0.010  0.00  0.00     0.019 A 
ATOM      5  C7  <0> d           1.173   2.163   0.003  0.00  0.00    -0.048 A 
ATOM      6  C6  <0> d           1.108   3.541   0.011  0.00  0.00     0.003 A 
ATOM      7  H5  <0> d           2.129   1.660  -0.010  0.00  0.00     0.087 H 
ATOM      8  N1  <0> d          -0.054   4.164   0.025  0.00  0.00    -0.273 NA
ATOM      9  H4  <0> d           2.022   4.117   0.005  0.00  0.00     0.114 H 
ATOM     10  C5  <0> d          -1.200   3.510   0.033  0.00  0.00     0.003 A 
ATOM     11  C4  <0> d          -1.228   2.131   0.019  0.00  0.00    -0.048 A 
ATOM     12  H3  <0> d          -2.128   4.061   0.044  0.00  0.00     0.114 H 
ATOM     13  H2  <0> d          -2.169   1.601   0.021  0.00  0.00     0.087 H 
ENDBRANCH   2   4
TORSDOF 1
