REMARK  7 active torsions:
REMARK  status: ('A' for Active; 'I' for Inactive)
REMARK    1  A    between atoms: C1_1  and  C2_2 
REMARK    2  A    between atoms: C2_2  and  O1_3 
REMARK    3  A    between atoms: O1_3  and  C3_4 
REMARK    4  A    between atoms: C3_4  and  C4_5 
REMARK    5  A    between atoms: C4_5  and  C5_6 
REMARK    6  A    between atoms: C5_6  and  C6_7 
REMARK    7  A    between atoms: C6_7  and  C7_8 
ROOT
ATOM      1  C4  <0> d          -2.905  -2.339   0.017  0.00  0.00    -0.045 C 
ATOM      2  H8  <0> d          -3.385  -1.948   0.914  0.00  0.00     0.036 H 
ATOM      3  H9  <0> d          -3.402  -1.938  -0.866  0.00  0.00     0.036 H 
ENDROOT
BRANCH   1   4
ATOM      4  C3  <0> d          -1.432  -1.925   0.005  0.00  0.00     0.019 C 
ATOM      5  H6  <0> d          -0.952  -2.316  -0.891  0.00  0.00     0.074 H 
ATOM      6  H7  <0> d          -0.935  -2.325   0.888  0.00  0.00     0.074 H 
BRANCH   4   7
ATOM      7  O1  <0> d          -1.339  -0.499   0.012  0.00  0.00    -0.391 OA
BRANCH   7   8
ATOM      8  C2  <0> d           0.002  -0.004   0.002  0.00  0.00     0.016 C 
ATOM      9  H4  <0> d           0.512  -0.356  -0.895  0.00  0.00     0.073 H 
ATOM     10  H5  <0> d           0.529  -0.365   0.885  0.00  0.00     0.073 H 
BRANCH   8  11
ATOM     11  C1  <0> d          -0.019   1.526   0.010  0.00  0.00    -0.056 C 
ATOM     12  H1  <0> d           1.004   1.903   0.003  0.00  0.00     0.030 H 
ATOM     13  H2  <0> d          -0.546   1.887  -0.873  0.00  0.00     0.030 H 
ATOM     14  H3  <0> d          -0.529   1.877   0.907  0.00  0.00     0.030 H 
ENDBRANCH   8  11
ENDBRANCH   7   8
ENDBRANCH   4   7
ENDBRANCH   1   4
BRANCH   1  15
ATOM     15  C5  <0> d          -3.005  -3.866   0.010  0.00  0.00    -0.054 C 
ATOM     16  H10 <0> d          -2.524  -4.257  -0.887  0.00  0.00     0.033 H 
ATOM     17  H11 <0> d          -2.507  -4.267   0.893  0.00  0.00     0.033 H 
BRANCH  15  18
ATOM     18  C6  <0> d          -4.478  -4.280   0.022  0.00  0.00     0.016 C 
ATOM     19  H12 <0> d          -4.958  -3.889   0.918  0.00  0.00     0.049 H 
ATOM     20  H13 <0> d          -4.975  -3.880  -0.861  0.00  0.00     0.049 H 
BRANCH  18  21
ATOM     21  C7  <0> d          -4.576  -5.784   0.015  0.00  0.00     0.172 C 
ATOM     22  O2  <0> d          -3.562  -6.462   0.001  0.00  0.00    -0.648 OA
ATOM     23  O3  <0> d          -5.670  -6.324   0.022  0.00  0.00    -0.648 OA
ENDBRANCH  18  21
ENDBRANCH  15  18
ENDBRANCH   1  15
TORSDOF 7
