REMARK  1 active torsions:
REMARK  status: ('A' for Active; 'I' for Inactive)
REMARK    1  A    between atoms: C7_9  and  C8_11 
REMARK       I    between atoms: C8_11  and  N1_13 
ROOT
ATOM      1  C1  <0> d          -0.984   3.240   2.666  0.00  0.00    -0.061 C 
ATOM      2  C2  <0> d          -0.129   3.682   1.457  0.00  0.00    -0.060 C 
ATOM      3  C3  <0> d          -1.099   3.606   0.238  0.00  0.00    -0.042 C 
ATOM      4  H1  <0> d          -0.802   4.173  -0.643  0.00  0.00     0.041 H 
ATOM      5  C4  <0> d          -2.453   4.010   0.920  0.00  0.00    -0.058 C 
ATOM      6  C5  <0> d          -2.390   2.938   2.064  0.00  0.00    -0.053 C 
ATOM      7  H2  <0> d          -3.219   2.924   2.773  0.00  0.00     0.040 H 
ATOM      8  C6  <0> d          -2.187   1.637   1.229  0.00  0.00    -0.050 C 
ATOM      9  C7  <0> d          -1.331   2.079   0.020  0.00  0.00     0.027 C 
ATOM     10  H3  <0> d          -1.871   1.905  -0.911  0.00  0.00     0.055 H 
ATOM     11  H4  <0> d          -1.049   4.043   3.400  0.00  0.00     0.033 H 
ATOM     12  H5  <0> d          -0.564   2.342   3.120  0.00  0.00     0.033 H 
ATOM     13  H6  <0> d           0.227   4.703   1.596  0.00  0.00     0.033 H 
ATOM     14  H7  <0> d           0.712   3.002   1.317  0.00  0.00     0.033 H 
ATOM     15  H8  <0> d          -3.306   3.854   0.260  0.00  0.00     0.034 H 
ATOM     16  H9  <0> d          -2.426   5.027   1.312  0.00  0.00     0.034 H 
ATOM     17  H10 <0> d          -3.147   1.247   0.892  0.00  0.00     0.034 H 
ATOM     18  H11 <0> d          -1.657   0.886   1.815  0.00  0.00     0.034 H 
ENDROOT
BRANCH   9  19
ATOM     19  C8  <0> d          -0.016   1.344   0.009  0.00  0.00     0.220 C 
ATOM     20  O1  <0> d           0.413   0.855   1.033  0.00  0.00    -0.273 OA
ATOM     21  N1  <0> d           0.685   1.233  -1.136  0.00  0.00    -0.370 N 
ATOM     22  H12 <0> d           1.534   0.763  -1.142  0.00  0.00     0.159 HD
ATOM     23  H13 <0> d           0.342   1.624  -1.955  0.00  0.00     0.159 HD
ENDBRANCH   9  19
TORSDOF 1
