REMARK  3 active torsions:
REMARK  status: ('A' for Active; 'I' for Inactive)
REMARK    1  A    between atoms: C1_1  and  C2_2 
REMARK    2  A    between atoms: C2_2  and  C3_3 
REMARK    3  A    between atoms: C5_7  and  C6_9 
ROOT
ATOM      1  C3  <0> d          -1.412  -0.526   0.013  0.00  0.00     0.080 A 
ATOM      2  H1  <0> d          -1.889  -0.684  -2.004  0.00  0.00     0.167 HD
ATOM      3  N1  <0> d          -2.117  -0.789   1.079  0.00  0.00    -0.354 N 
ATOM      4  C4  <0> d          -3.327  -1.234   0.709  0.00  0.00    -0.000 A 
ATOM      5  C5  <0> d          -3.374  -1.247  -0.637  0.00  0.00     0.022 A 
ATOM      6  N2  <0> d          -2.161  -0.792  -1.079  0.00  0.00    -0.348 N 
ATOM      7  H7  <0> d          -4.125  -1.530   1.374  0.00  0.00     0.114 H 
ATOM      8  H11 <0> d          -1.814  -0.681   1.994  0.00  0.00     0.166 HD
ENDROOT
BRANCH   1   9
ATOM      9  C2  <0> d           0.002  -0.004   0.002  0.00  0.00    -0.015 C 
ATOM     10  H5  <0> d           0.512  -0.356  -0.895  0.00  0.00     0.043 H 
ATOM     11  H6  <0> d           0.529  -0.365   0.885  0.00  0.00     0.043 H 
BRANCH   9  12
ATOM     12  C1  <0> d          -0.019   1.526   0.010  0.00  0.00    -0.070 C 
ATOM     13  H2  <0> d           1.004   1.903   0.003  0.00  0.00     0.028 H 
ATOM     14  H3  <0> d          -0.546   1.887  -0.873  0.00  0.00     0.028 H 
ATOM     15  H4  <0> d          -0.529   1.877   0.907  0.00  0.00     0.028 H 
ENDBRANCH   9  12
ENDBRANCH   1   9
BRANCH   5  16
ATOM     16  C6  <0> d          -4.539  -1.673  -1.492  0.00  0.00    -0.036 C 
ATOM     17  H8  <0> d          -5.175  -0.812  -1.695  0.00  0.00     0.035 H 
ATOM     18  H9  <0> d          -4.170  -2.082  -2.432  0.00  0.00     0.035 H 
ATOM     19  H10 <0> d          -5.116  -2.435  -0.966  0.00  0.00     0.035 H 
ENDBRANCH   5  16
TORSDOF 3
