REMARK  7 active torsions:
REMARK  status: ('A' for Active; 'I' for Inactive)
REMARK    1  A    between atoms: C1_1  and  C2_2 
REMARK    2  A    between atoms: C2_2  and  C3_3 
REMARK    3  A    between atoms: C3_3  and  C4_4 
REMARK    4  A    between atoms: C4_4  and  C5_6 
REMARK    5  A    between atoms: C4_4  and  O1_7 
REMARK    6  A    between atoms: O1_7  and  C6_8 
REMARK    7  A    between atoms: C6_8  and  C7_9 
ROOT
ATOM      1  C4  <0> d          -0.729   1.579   1.267  0.00  0.00     0.035 C 
ATOM      2  H1  <0> d          -0.822   2.665   1.230  0.00  0.00     0.082 H 
ENDROOT
BRANCH   1   3
ATOM      3  C3  <0> d          -0.013   1.086   0.008  0.00  0.00    -0.042 C 
ATOM      4  H7  <0> d           0.002  -0.004   0.002  0.00  0.00     0.036 H 
ATOM      5  H8  <0> d           1.010   1.463   0.000  0.00  0.00     0.036 H 
BRANCH   3   6
ATOM      6  C2  <0> d          -0.753   1.593  -1.232  0.00  0.00    -0.066 C 
ATOM      7  H5  <0> d          -1.775   1.215  -1.224  0.00  0.00     0.032 H 
ATOM      8  H6  <0> d          -0.767   2.683  -1.226  0.00  0.00     0.032 H 
BRANCH   6   9
ATOM      9  C1  <0> d          -0.037   1.099  -2.490  0.00  0.00    -0.076 C 
ATOM     10  H2  <0> d          -0.022   0.009  -2.496  0.00  0.00     0.027 H 
ATOM     11  H3  <0> d          -0.564   1.460  -3.373  0.00  0.00     0.027 H 
ATOM     12  H4  <0> d           0.986   1.476  -2.498  0.00  0.00     0.027 H 
ENDBRANCH   6   9
ENDBRANCH   3   6
ENDBRANCH   1   3
BRANCH   1  13
ATOM     13  C5  <0> d           0.079   1.179   2.503  0.00  0.00    -0.052 C 
ATOM     14  H9  <0> d           1.071   1.627   2.450  0.00  0.00     0.030 H 
ATOM     15  H10 <0> d          -0.432   1.530   3.400  0.00  0.00     0.030 H 
ATOM     16  H11 <0> d           0.172   0.093   2.540  0.00  0.00     0.030 H 
ENDBRANCH   1  13
BRANCH   1  17
ATOM     17  O1  <0> d          -2.030   0.991   1.336  0.00  0.00    -0.387 OA
BRANCH  17  18
ATOM     18  C6  <0> d          -3.001   1.806   1.995  0.00  0.00     0.017 C 
ATOM     19  H12 <0> d          -2.680   1.998   3.019  0.00  0.00     0.073 H 
ATOM     20  H13 <0> d          -3.104   2.752   1.463  0.00  0.00     0.073 H 
BRANCH  18  21
ATOM     21  C7  <0> d          -4.348   1.081   2.011  0.00  0.00    -0.056 C 
ATOM     22  H14 <0> d          -5.090   1.703   2.514  0.00  0.00     0.030 H 
ATOM     23  H15 <0> d          -4.670   0.889   0.987  0.00  0.00     0.030 H 
ATOM     24  H16 <0> d          -4.246   0.136   2.543  0.00  0.00     0.030 H 
ENDBRANCH  18  21
ENDBRANCH  17  18
ENDBRANCH   1  17
TORSDOF 7
