REMARK  4 active torsions:
REMARK  status: ('A' for Active; 'I' for Inactive)
REMARK    1  A    between atoms: C1_1  and  O1_2 
REMARK    2  A    between atoms: O1_2  and  C2_3 
REMARK    3  A    between atoms: C7_8  and  C8_9 
REMARK    4  A    between atoms: C8_9  and  O2_10 
ROOT
ATOM      1  C2  <0> d          -1.975   1.163   1.348  0.00  0.00     0.076 A 
ATOM      2  C3  <0> d          -2.589   0.364   0.395  0.00  0.00    -0.050 A 
ATOM      3  C4  <0> d          -3.902  -0.029   0.567  0.00  0.00    -0.080 A 
ATOM      4  C5  <0> d          -4.608   0.382   1.683  0.00  0.00    -0.082 A 
ATOM      5  C6  <0> d          -3.999   1.183   2.632  0.00  0.00    -0.072 A 
ATOM      6  C7  <0> d          -2.684   1.574   2.467  0.00  0.00    -0.002 A 
ATOM      7  H4  <0> d          -2.041   0.047  -0.480  0.00  0.00     0.087 H 
ATOM      8  H5  <0> d          -4.380  -0.654  -0.173  0.00  0.00     0.083 H 
ATOM      9  H6  <0> d          -5.635   0.077   1.814  0.00  0.00     0.083 H 
ATOM     10  H7  <0> d          -4.552   1.503   3.502  0.00  0.00     0.084 H 
ENDROOT
BRANCH   1  11
ATOM     11  O1  <0> d          -0.682   1.547   1.184  0.00  0.00    -0.355 OA
BRANCH  11  12
ATOM     12  C1  <0> d          -0.013   1.086   0.008  0.00  0.00     0.010 C 
ATOM     13  H1  <0> d           0.002  -0.004   0.002  0.00  0.00     0.066 H 
ATOM     14  H2  <0> d           1.010   1.463   0.000  0.00  0.00     0.066 H 
ATOM     15  H3  <0> d          -0.540   1.447  -0.875  0.00  0.00     0.066 H 
ENDBRANCH  11  12
ENDBRANCH   1  11
BRANCH   6  16
ATOM     16  C8  <0> d          -2.022   2.447   3.501  0.00  0.00     0.043 C 
ATOM     17  H8  <0> d          -1.157   1.929   3.914  0.00  0.00     0.081 H 
ATOM     18  H9  <0> d          -1.700   3.380   3.037  0.00  0.00     0.081 H 
BRANCH  16  19
ATOM     19  O2  <0> d          -2.951   2.733   4.549  0.00  0.00    -0.396 OA
ATOM     20  H10 <0> d          -2.592   3.293   5.251  0.00  0.00     0.209 HD
ENDBRANCH  16  19
ENDBRANCH   6  16
TORSDOF 4
