REMARK  0 active torsions:
REMARK  status: ('A' for Active; 'I' for Inactive)
ROOT
ATOM      1  C1  <0> d          -0.017   1.379   0.010  0.00  0.00    -0.039 A 
ATOM      2  C2  <0> d           1.160   2.052   0.002  0.00  0.00    -0.042 A 
ATOM      3  S1  <0> d           2.348   0.720  -0.017  0.00  0.00    -0.111 SA
ATOM      4  C3  <0> d           1.197  -0.645  -0.013  0.00  0.00    -0.008 A 
ATOM      5  C4  <0> d           0.002  -0.004   0.002  0.00  0.00     0.123 A 
ATOM      6  F1  <0> d          -1.152  -0.706   0.009  0.00  0.00    -0.206 F 
ATOM      7  H1  <0> d          -0.954   1.915   0.026  0.00  0.00     0.088 H 
ATOM      8  H2  <0> d           1.334   3.118   0.006  0.00  0.00     0.095 H 
ATOM      9  H3  <0> d           1.400  -1.706  -0.021  0.00  0.00     0.099 H 
ENDROOT
TORSDOF 0
