REMARK  3 active torsions:
REMARK  status: ('A' for Active; 'I' for Inactive)
REMARK    1  A    between atoms: C2_2  and  C6_9 
REMARK    2  A    between atoms: C4_5  and  O2_8 
REMARK    3  A    between atoms: C6_9  and  O3_10 
ROOT
ATOM      1  C1  <0> d          -0.016   1.348   0.009  0.00  0.00    -0.008 A 
ATOM      2  C2  <0> d           0.002  -0.004   0.002  0.00  0.00     0.036 A 
ATOM      3  N1  <0> d          -1.152  -0.713   0.009  0.00  0.00    -0.365 N 
ATOM      4  C3  <0> d          -2.363  -0.097   0.024  0.00  0.00     0.013 A 
ATOM      5  C4  <0> d          -2.449   1.254   0.032  0.00  0.00     0.131 A 
ATOM      6  C5  <0> d          -1.257   2.023   0.031  0.00  0.00     0.208 A 
ATOM      7  O1  <0> d          -1.303   3.245   0.038  0.00  0.00    -0.285 OA
ATOM      8  H1  <0> d           0.908   1.906   0.004  0.00  0.00     0.092 H 
ATOM      9  H2  <0> d          -3.265  -0.691   0.028  0.00  0.00     0.115 H 
ATOM     10  H3  <0> d          -1.113  -1.682   0.003  0.00  0.00     0.165 HD
ENDROOT
BRANCH   2  11
ATOM     11  C6  <0> d           1.322  -0.731  -0.014  0.00  0.00     0.054 C 
ATOM     12  H5  <0> d           1.348  -1.418  -0.860  0.00  0.00     0.083 H 
ATOM     13  H6  <0> d           2.133  -0.008  -0.108  0.00  0.00     0.083 H 
BRANCH  11  14
ATOM     14  O3  <0> d           1.477  -1.466   1.201  0.00  0.00    -0.395 OA
ATOM     15  H7  <0> d           2.306  -1.959   1.260  0.00  0.00     0.209 HD
ENDBRANCH  11  14
ENDBRANCH   2  11
BRANCH   5  16
ATOM     16  O2  <0> d          -3.664   1.867   0.047  0.00  0.00    -0.356 OA
ATOM     17  H4  <0> d          -3.617   2.833   0.052  0.00  0.00     0.218 HD
ENDBRANCH   5  16
TORSDOF 3
