REMARK  3 active torsions:
REMARK  status: ('A' for Active; 'I' for Inactive)
REMARK    1  A    between atoms: C1_1  and  C2_2 
REMARK    2  A    between atoms: C6_7  and  C8_10 
REMARK    3  A    between atoms: C8_10  and  C9_11 
ROOT
ATOM      1  C2  <0> d          -0.637   1.672   3.762  0.00  0.00    -0.057 C 
ATOM      2  H1  <0> d          -0.732   2.767   3.725  0.00  0.00     0.039 H 
ATOM      3  C3  <0> d          -2.030   1.043   3.836  0.00  0.00    -0.062 C 
ATOM      4  C4  <0> d          -2.837   1.443   2.600  0.00  0.00    -0.064 C 
ATOM      5  C5  <0> d          -2.121   0.950   1.341  0.00  0.00    -0.061 C 
ATOM      6  C6  <0> d          -0.729   1.579   1.267  0.00  0.00    -0.045 C 
ATOM      7  H2  <0> d          -0.823   2.675   1.230  0.00  0.00     0.040 H 
ATOM      8  C7  <0> d           0.079   1.179   2.503  0.00  0.00    -0.058 C 
ATOM      9  H6  <0> d          -1.936  -0.053   3.874  0.00  0.00     0.033 H 
ATOM     10  H7  <0> d          -2.545   1.397   4.741  0.00  0.00     0.033 H 
ATOM     11  H8  <0> d          -3.839   0.991   2.654  0.00  0.00     0.033 H 
ATOM     12  H9  <0> d          -2.932   2.538   2.563  0.00  0.00     0.033 H 
ATOM     13  H10 <0> d          -2.027  -0.145   1.379  0.00  0.00     0.033 H 
ATOM     14  H11 <0> d          -2.702   1.238   0.452  0.00  0.00     0.033 H 
ATOM     15  H12 <0> d           1.080   1.631   2.450  0.00  0.00     0.034 H 
ATOM     16  H13 <0> d           0.173   0.083   2.540  0.00  0.00     0.034 H 
ENDROOT
BRANCH   6  17
ATOM     17  C8  <0> d          -0.013   1.086   0.008  0.00  0.00     0.019 C 
ATOM     18  H14 <0> d           1.019   1.467   0.000  0.00  0.00     0.049 H 
ATOM     19  H15 <0> d           0.002  -0.014   0.002  0.00  0.00     0.049 H 
BRANCH  17  20
ATOM     20  C9  <0> d          -0.742   1.585  -1.213  0.00  0.00     0.172 C 
ATOM     21  O1  <0> d          -1.732   2.266  -1.089  0.00  0.00    -0.648 OA
ATOM     22  O2  <0> d          -0.290   1.274  -2.438  0.00  0.00    -0.648 OA
ENDBRANCH  17  20
ENDBRANCH   6  17
BRANCH   1  23
ATOM     23  C1  <0> d           0.170   1.271   4.998  0.00  0.00    -0.073 C 
ATOM     24  H3  <0> d          -0.345   1.626   5.903  0.00  0.00     0.028 H 
ATOM     25  H4  <0> d           1.171   1.724   4.945  0.00  0.00     0.028 H 
ATOM     26  H5  <0> d           0.264   0.176   5.035  0.00  0.00     0.028 H 
ENDBRANCH   1  23
TORSDOF 3
