REMARK  3 active torsions:
REMARK  status: ('A' for Active; 'I' for Inactive)
REMARK    1  A    between atoms: C1_1  and  C2_2 
REMARK    2  A    between atoms: C2_2  and  N2_6 
REMARK       I    between atoms: N2_6  and  C4_7 
REMARK    3  A    between atoms: C4_7  and  C5_9 
ROOT
ATOM      1  C2  <0> d          -2.449   1.117   0.020  0.00  0.00     0.092 C 
ATOM      2  H1  <0> d          -2.328   0.204   0.604  0.00  0.00     0.095 H 
ATOM      3  C3  <0> d          -3.512   1.943   0.616  0.00  0.00     0.084 C 
ATOM      4  N1  <0> d          -4.332   2.581   1.076  0.00  0.00    -0.195 NA
ENDROOT
BRANCH   1   5
ATOM      5  C1  <0> d          -2.830   0.756  -1.417  0.00  0.00    -0.046 C 
ATOM      6  H2  <0> d          -2.043   0.144  -1.859  0.00  0.00     0.031 H 
ATOM      7  H3  <0> d          -3.766   0.198  -1.416  0.00  0.00     0.031 H 
ATOM      8  H4  <0> d          -2.951   1.668  -2.001  0.00  0.00     0.031 H 
ENDBRANCH   1   5
BRANCH   1   9
ATOM      9  N2  <0> d          -1.191   1.867   0.018  0.00  0.00    -0.345 N 
ATOM     10  C4  <0> d          -0.014   1.209   0.009  0.00  0.00     0.214 C 
ATOM     11  O1  <0> d           0.002  -0.004   0.002  0.00  0.00    -0.274 OA
ATOM     12  H5  <0> d          -1.204   2.837   0.023  0.00  0.00     0.163 HD
BRANCH  10  13
ATOM     13  C5  <0> d           1.280   1.980   0.001  0.00  0.00    -0.003 C 
ATOM     14  H6  <0> d           2.118   1.283  -0.011  0.00  0.00     0.040 H 
ATOM     15  H7  <0> d           1.321   2.612  -0.887  0.00  0.00     0.040 H 
ATOM     16  H8  <0> d           1.338   2.602   0.893  0.00  0.00     0.040 H 
ENDBRANCH  10  13
ENDBRANCH   1   9
TORSDOF 3
