REMARK  3 active torsions:
REMARK  status: ('A' for Active; 'I' for Inactive)
REMARK    1  A    between atoms: C1_1  and  C2_2 
REMARK    2  A    between atoms: C2_2  and  C3_3 
REMARK    3  A    between atoms: C4_4  and  O1_9 
ROOT
ATOM      1  C3  <0> d           1.224  -0.661  -0.013  0.00  0.00     0.067 A 
ATOM      2  C4  <0> d           0.002  -0.004   0.002  0.00  0.00     0.090 A 
ATOM      3  C5  <0> d          -0.017   1.387   0.010  0.00  0.00    -0.048 A 
ATOM      4  C6  <0> d           1.193   2.062   0.002  0.00  0.00    -0.063 A 
ATOM      5  C7  <0> d           2.370   1.337  -0.013  0.00  0.00     0.003 A 
ATOM      6  N1  <0> d           2.353   0.019  -0.020  0.00  0.00    -0.263 NA
ATOM      7  H6  <0> d          -0.952   1.927   0.017  0.00  0.00     0.087 H 
ATOM      8  H7  <0> d           1.217   3.142   0.007  0.00  0.00     0.085 H 
ATOM      9  H8  <0> d           3.316   1.858  -0.020  0.00  0.00     0.114 H 
ENDROOT
BRANCH   1  10
ATOM     10  C2  <0> d           1.260  -2.168  -0.021  0.00  0.00    -0.025 C 
ATOM     11  H4  <0> d           2.164  -2.512   0.482  0.00  0.00     0.042 H 
ATOM     12  H5  <0> d           0.385  -2.555   0.499  0.00  0.00     0.042 H 
BRANCH  10  13
ATOM     13  C1  <0> d           1.259  -2.670  -1.466  0.00  0.00    -0.071 C 
ATOM     14  H1  <0> d           0.355  -2.326  -1.970  0.00  0.00     0.028 H 
ATOM     15  H2  <0> d           2.135  -2.283  -1.987  0.00  0.00     0.028 H 
ATOM     16  H3  <0> d           1.285  -3.760  -1.472  0.00  0.00     0.028 H 
ENDBRANCH  10  13
ENDBRANCH   1  10
BRANCH   2  17
ATOM     17  O1  <0> d          -1.160  -0.709   0.010  0.00  0.00    -0.359 OA
ATOM     18  H9  <0> d          -1.505  -0.908  -0.871  0.00  0.00     0.217 HD
ENDBRANCH   2  17
TORSDOF 3
