REMARK  3 active torsions:
REMARK  status: ('A' for Active; 'I' for Inactive)
REMARK    1  A    between atoms: C4_4  and  C7_7 
REMARK    2  A    between atoms: C7_7  and  C8_8 
REMARK    3  A    between atoms: C8_8  and  O1_9 
ROOT
ATOM      1  C1  <0> d          -2.216  -4.618  -1.183  0.00  0.00    -0.065 C 
ATOM      2  C2  <0> d          -2.821  -4.123   0.133  0.00  0.00    -0.065 C 
ATOM      3  C3  <0> d          -2.841  -2.594   0.141  0.00  0.00    -0.062 C 
ATOM      4  C4  <0> d          -1.413  -2.063   0.004  0.00  0.00    -0.052 C 
ATOM      5  C5  <0> d          -0.809  -2.558  -1.311  0.00  0.00    -0.062 C 
ATOM      6  C6  <0> d          -0.788  -4.088  -1.320  0.00  0.00    -0.065 C 
ATOM      7  H1  <0> d          -2.824  -4.255  -2.025  0.00  0.00     0.033 H 
ATOM      8  H2  <0> d          -2.202  -5.718  -1.189  0.00  0.00     0.033 H 
ATOM      9  H3  <0> d          -3.848  -4.505   0.231  0.00  0.00     0.033 H 
ATOM     10  H4  <0> d          -2.213  -4.487   0.974  0.00  0.00     0.033 H 
ATOM     11  H5  <0> d          -3.449  -2.231  -0.701  0.00  0.00     0.033 H 
ATOM     12  H6  <0> d          -3.276  -2.238   1.087  0.00  0.00     0.033 H 
ATOM     13  H7  <0> d          -0.805  -2.427   0.846  0.00  0.00     0.040 H 
ATOM     14  H8  <0> d          -1.417  -2.195  -2.153  0.00  0.00     0.033 H 
ATOM     15  H9  <0> d           0.218  -2.177  -1.410  0.00  0.00     0.033 H 
ATOM     16  H10 <0> d          -0.180  -4.451  -0.478  0.00  0.00     0.033 H 
ATOM     17  H11 <0> d          -0.353  -4.444  -2.266  0.00  0.00     0.033 H 
ENDROOT
BRANCH   4  18
ATOM     18  C7  <0> d          -1.433  -0.534   0.013  0.00  0.00    -0.042 C 
ATOM     19  H12 <0> d          -1.965  -0.169  -0.878  0.00  0.00     0.036 H 
ATOM     20  H13 <0> d          -1.948  -0.179   0.918  0.00  0.00     0.036 H 
BRANCH  18  21
ATOM     21  C8  <0> d           0.002  -0.004   0.002  0.00  0.00     0.017 C 
ATOM     22  H14 <0> d           0.534  -0.369   0.893  0.00  0.00     0.073 H 
ATOM     23  H15 <0> d           0.517  -0.359  -0.903  0.00  0.00     0.073 H 
BRANCH  21  24
ATOM     24  O1  <0> d          -0.017   1.425   0.010  0.00  0.00    -0.401 OA
ATOM     25  H16 <0> d           0.928   1.988   0.004  0.00  0.00     0.209 HD
ENDBRANCH  21  24
ENDBRANCH  18  21
ENDBRANCH   4  18
TORSDOF 3
