REMARK  1 active torsions:
REMARK  status: ('A' for Active; 'I' for Inactive)
REMARK    1  A    between atoms: C5_6  and  N2_7 
ROOT
ATOM      1  C1  <0> d          -0.017   1.391   0.010  0.00  0.00    -0.038 A 
ATOM      2  C2  <0> d           1.178   2.078   0.002  0.00  0.00     0.007 A 
ATOM      3  N1  <0> d           2.333   1.438  -0.013  0.00  0.00    -0.234 NA
ATOM      4  C3  <0> d           2.401   0.115  -0.020  0.00  0.00     0.203 A 
ATOM      5  C4  <0> d           1.238  -0.647  -0.013  0.00  0.00     0.150 A 
ATOM      6  C5  <0> d           0.002  -0.004   0.002  0.00  0.00     0.065 A 
ATOM      7  O1  <0> d           1.577  -1.969  -0.025  0.00  0.00    -0.319 OA
ATOM      8  C6  <0> d           2.952  -2.007  -0.450  0.00  0.00     0.117 C 
ATOM      9  O2  <0> d           3.472  -0.730  -0.035  0.00  0.00    -0.306 OA
ATOM     10  H1  <0> d          -0.955   1.925   0.026  0.00  0.00     0.089 H 
ATOM     11  H2  <0> d           1.170   3.158   0.008  0.00  0.00     0.115 H 
ATOM     12  H5  <0> d           3.485  -2.817   0.048  0.00  0.00     0.119 H 
ATOM     13  H6  <0> d           3.017  -2.113  -1.532  0.00  0.00     0.119 H 
ENDROOT
BRANCH   6  14
ATOM     14  N2  <0> d          -1.186  -0.736   0.009  0.00  0.00    -0.397 N 
ATOM     15  H3  <0> d          -2.039  -0.275   0.019  0.00  0.00     0.156 HD
ATOM     16  H4  <0> d          -1.158  -1.706   0.004  0.00  0.00     0.156 HD
ENDBRANCH   6  14
TORSDOF 1
