REMARK  3 active torsions:
REMARK  status: ('A' for Active; 'I' for Inactive)
REMARK    1  A    between atoms: C1_1  and  C2_2 
REMARK    2  A    between atoms: C2_2  and  C3_4 
REMARK    3  A    between atoms: C2_2  and  O1_10 
ROOT
ATOM      1  C3  <0> d           2.370   1.334  -0.014  0.00  0.00     0.062 A 
ATOM      2  C4  <0> d           1.193   2.059   0.002  0.00  0.00    -0.057 A 
ATOM      3  C5  <0> d          -0.017   1.383   0.010  0.00  0.00    -0.080 A 
ATOM      4  C6  <0> d           0.002  -0.004   0.002  0.00  0.00    -0.066 A 
ATOM      5  C7  <0> d           1.218  -0.661  -0.013  0.00  0.00     0.003 A 
ATOM      6  N1  <0> d           2.350   0.015  -0.021  0.00  0.00    -0.263 NA
ATOM      7  H5  <0> d           1.216   3.139   0.007  0.00  0.00     0.086 H 
ATOM      8  H6  <0> d          -0.952   1.923   0.017  0.00  0.00     0.083 H 
ATOM      9  H7  <0> d          -0.922  -0.564   0.008  0.00  0.00     0.085 H 
ATOM     10  H8  <0> d           1.241  -1.741  -0.019  0.00  0.00     0.114 H 
ENDROOT
BRANCH   1  11
ATOM     11  C2  <0> d           3.691   2.058  -0.023  0.00  0.00     0.074 C 
ATOM     12  H1  <0> d           4.210   1.857  -0.961  0.00  0.00     0.092 H 
BRANCH  11  13
ATOM     13  C1  <0> d           4.548   1.572   1.147  0.00  0.00    -0.047 C 
ATOM     14  H2  <0> d           4.721   0.500   1.050  0.00  0.00     0.031 H 
ATOM     15  H3  <0> d           5.504   2.096   1.141  0.00  0.00     0.031 H 
ATOM     16  H4  <0> d           4.030   1.773   2.085  0.00  0.00     0.031 H 
ENDBRANCH  11  13
BRANCH  11  17
ATOM     17  O1  <0> d           3.465   3.464   0.104  0.00  0.00    -0.390 OA
ATOM     18  H9  <0> d           3.007   3.716   0.917  0.00  0.00     0.210 HD
ENDBRANCH  11  17
ENDBRANCH   1  11
TORSDOF 3
