REMARK  1 active torsions:
REMARK  status: ('A' for Active; 'I' for Inactive)
REMARK    1  A    between atoms: C3_3  and  N3_11 
ROOT
ATOM      1  C1  <0> d          -2.393   5.116   0.051  0.00  0.00    -0.079 A 
ATOM      2  C2  <0> d          -1.199   5.831   0.043  0.00  0.00    -0.055 A 
ATOM      3  C3  <0> d           0.014   5.177   0.028  0.00  0.00     0.057 A 
ATOM      4  C4  <0> d           0.041   3.764   0.021  0.00  0.00     0.111 A 
ATOM      5  C5  <0> d          -1.183   3.048   0.029  0.00  0.00     0.087 A 
ATOM      6  C6  <0> d          -2.397   3.755   0.044  0.00  0.00    -0.053 A 
ATOM      7  N1  <0> d          -1.163   1.710   0.017  0.00  0.00    -0.257 NA
ATOM      8  C7  <0> d          -0.013   1.076   0.008  0.00  0.00     0.020 A 
ATOM      9  C8  <0> d           1.191   1.783   0.000  0.00  0.00     0.020 A 
ATOM     10  N2  <0> d           1.197   3.097   0.006  0.00  0.00    -0.255 NA
ATOM     11  H1  <0> d          -3.332   5.650   0.063  0.00  0.00     0.083 H 
ATOM     12  H2  <0> d          -1.223   6.911   0.048  0.00  0.00     0.087 H 
ATOM     13  H3  <0> d          -3.334   3.218   0.050  0.00  0.00     0.087 H 
ATOM     14  H4  <0> d           0.002  -0.004   0.002  0.00  0.00     0.117 H 
ATOM     15  H5  <0> d           2.127   1.244  -0.011  0.00  0.00     0.117 H 
ENDROOT
BRANCH   3  16
ATOM     16  N3  <0> d           1.203   5.902   0.021  0.00  0.00    -0.397 N 
ATOM     17  H6  <0> d           2.054   5.437   0.010  0.00  0.00     0.156 HD
ATOM     18  H7  <0> d           1.180   6.872   0.026  0.00  0.00     0.156 HD
ENDBRANCH   3  16
TORSDOF 1
