REMARK  1 active torsions:
REMARK  status: ('A' for Active; 'I' for Inactive)
REMARK    1  A    between atoms: C1_1  and  C2_2 
ROOT
ATOM      1  C2  <0> d          -1.538   5.146  -2.192  0.00  0.00     0.030 A 
ATOM      2  C3  <0> d          -1.317   3.785  -2.273  0.00  0.00    -0.053 A 
ATOM      3  C4  <0> d          -0.993   3.078  -1.120  0.00  0.00    -0.049 A 
ATOM      4  C5  <0> d          -0.901   3.767   0.070  0.00  0.00    -0.034 A 
ATOM      5  C6  <0> d          -1.139   5.134   0.075  0.00  0.00     0.009 A 
ATOM      6  N1  <0> d          -1.445   5.773  -1.036  0.00  0.00    -0.265 NA
ATOM      7  C7  <0> d          -0.545   3.095   1.369  0.00  0.00    -0.039 C 
ATOM      8  C8  <0> d          -0.739   1.584   1.263  0.00  0.00    -0.061 C 
ATOM      9  C9  <0> d          -0.013   1.086   0.008  0.00  0.00    -0.061 C 
ATOM     10  C10 <0> d          -0.760   1.596  -1.224  0.00  0.00    -0.040 C 
ATOM     11  H4  <0> d          -1.394   3.275  -3.222  0.00  0.00     0.087 H 
ATOM     12  H5  <0> d          -1.073   5.682   1.003  0.00  0.00     0.115 H 
ATOM     13  H6  <0> d           0.497   3.306   1.609  0.00  0.00     0.040 H 
ATOM     14  H7  <0> d          -1.183   3.484   2.162  0.00  0.00     0.040 H 
ATOM     15  H8  <0> d          -1.802   1.360   1.184  0.00  0.00     0.033 H 
ATOM     16  H9  <0> d          -0.323   1.097   2.145  0.00  0.00     0.033 H 
ATOM     17  H10 <0> d           0.002  -0.004   0.002  0.00  0.00     0.033 H 
ATOM     18  H11 <0> d           1.009   1.466   0.000  0.00  0.00     0.033 H 
ATOM     19  H12 <0> d          -0.170   1.385  -2.116  0.00  0.00     0.040 H 
ATOM     20  H13 <0> d          -1.719   1.085  -1.300  0.00  0.00     0.040 H 
ENDROOT
BRANCH   1  21
ATOM     21  C1  <0> d          -1.889   5.920  -3.436  0.00  0.00    -0.035 C 
ATOM     22  H1  <0> d          -2.971   5.935  -3.562  0.00  0.00     0.035 H 
ATOM     23  H2  <0> d          -1.520   6.942  -3.343  0.00  0.00     0.035 H 
ATOM     24  H3  <0> d          -1.428   5.445  -4.302  0.00  0.00     0.035 H 
ENDBRANCH   1  21
TORSDOF 1
