REMARK  5 active torsions:
REMARK  status: ('A' for Active; 'I' for Inactive)
REMARK    1  A    between atoms: C1_1  and  C2_2 
REMARK    2  A    between atoms: C2_2  and  C3_4 
REMARK    3  A    between atoms: C2_2  and  O2_6 
REMARK    4  A    between atoms: O2_6  and  C4_7 
REMARK    5  A    between atoms: C4_7  and  C5_9 
ROOT
ATOM      1  C2  <0> d           0.021  -2.119  -1.096  0.00  0.00     0.128 C 
ATOM      2  H1  <0> d          -0.480  -2.447  -0.185  0.00  0.00     0.100 H 
ENDROOT
BRANCH   1   3
ATOM      3  C1  <0> d           1.470  -2.609  -1.086  0.00  0.00    -0.042 C 
ATOM      4  H2  <0> d           1.485  -3.698  -1.035  0.00  0.00     0.031 H 
ATOM      5  H3  <0> d           1.971  -2.281  -1.997  0.00  0.00     0.031 H 
ATOM      6  H4  <0> d           1.986  -2.197  -0.219  0.00  0.00     0.031 H 
ENDBRANCH   1   3
BRANCH   1   7
ATOM      7  C3  <0> d          -0.694  -2.688  -2.295  0.00  0.00     0.203 C 
ATOM      8  O1  <0> d          -1.091  -1.952  -3.167  0.00  0.00    -0.646 OA
ATOM      9  O4  <0> d          -0.888  -4.013  -2.394  0.00  0.00    -0.646 OA
ENDBRANCH   1   7
BRANCH   1  10
ATOM     10  O2  <0> d           0.000  -0.669  -1.164  0.00  0.00    -0.306 OA
BRANCH  10  11
ATOM     11  C4  <0> d           0.002  -0.004   0.002  0.00  0.00     0.255 C 
ATOM     12  O3  <0> d           0.020  -0.614   1.045  0.00  0.00    -0.266 OA
BRANCH  11  13
ATOM     13  C5  <0> d          -0.018   1.503   0.010  0.00  0.00     0.004 C 
ATOM     14  H5  <0> d           1.004   1.880   0.003  0.00  0.00     0.041 H 
ATOM     15  H6  <0> d          -0.545   1.864  -0.873  0.00  0.00     0.041 H 
ATOM     16  H7  <0> d          -0.529   1.854   0.907  0.00  0.00     0.041 H 
ENDBRANCH  11  13
ENDBRANCH  10  11
ENDBRANCH   1  10
TORSDOF 5
