REMARK  3 active torsions:
REMARK  status: ('A' for Active; 'I' for Inactive)
REMARK    1  A    between atoms: C1_1  and  C2_2 
REMARK    2  A    between atoms: C6_7  and  O1_8 
REMARK    3  A    between atoms: O1_8  and  C7_9 
ROOT
ATOM      1  C2  <0> d           0.677  -2.004   1.088  0.00  0.00    -0.009 A 
ATOM      2  C3  <0> d           1.315  -2.618   2.152  0.00  0.00    -0.072 A 
ATOM      3  C4  <0> d           1.881  -1.818   3.135  0.00  0.00    -0.065 A 
ATOM      4  C5  <0> d           1.792  -0.444   3.022  0.00  0.00     0.005 A 
ATOM      5  N1  <0> d           1.181   0.112   1.993  0.00  0.00    -0.237 NA
ATOM      6  C6  <0> d           0.625  -0.617   1.040  0.00  0.00     0.169 A 
ATOM      7  H4  <0> d           1.371  -3.694   2.216  0.00  0.00     0.084 H 
ATOM      8  H5  <0> d           2.387  -2.264   3.978  0.00  0.00     0.085 H 
ATOM      9  H6  <0> d           2.231   0.183   3.784  0.00  0.00     0.114 H 
ENDROOT
BRANCH   6  10
ATOM     10  O1  <0> d           0.002  -0.004   0.002  0.00  0.00    -0.339 OA
BRANCH  10  11
ATOM     11  C7  <0> d          -0.017   1.425   0.010  0.00  0.00     0.012 C 
ATOM     12  H7  <0> d          -0.549   1.789  -0.881  0.00  0.00     0.067 H 
ATOM     13  H8  <0> d           1.015   1.806   0.002  0.00  0.00     0.067 H 
ATOM     14  H9  <0> d          -0.532   1.780   0.915  0.00  0.00     0.067 H 
ENDBRANCH  10  11
ENDBRANCH   6  10
BRANCH   1  15
ATOM     15  C1  <0> d           0.046  -2.830  -0.003  0.00  0.00    -0.047 C 
ATOM     16  H1  <0> d           0.193  -3.899   0.215  0.00  0.00     0.033 H 
ATOM     17  H2  <0> d           0.516  -2.585  -0.967  0.00  0.00     0.033 H 
ATOM     18  H3  <0> d          -1.031  -2.611  -0.053  0.00  0.00     0.033 H 
ENDBRANCH   1  15
TORSDOF 3
