REMARK  2 active torsions:
REMARK  status: ('A' for Active; 'I' for Inactive)
REMARK    1  A    between atoms: C1_1  and  C2_2 
REMARK    2  A    between atoms: C5_8  and  C6_10 
ROOT
ATOM      1  C2  <0> d          -0.105   1.634   0.177  0.00  0.00    -0.015 C 
ATOM      2  H1  <0> d          -0.502   1.963   1.137  0.00  0.00     0.044 H 
ATOM      3  C3  <0> d          -0.079   0.090   0.093  0.00  0.00     0.033 C 
ATOM      4  O1  <0> d           1.119  -0.211  -0.683  0.00  0.00    -0.320 OA
ATOM      5  C4  <0> d           2.049   0.732  -0.472  0.00  0.00     0.273 C 
ATOM      6  O2  <0> d           3.233   0.596  -0.668  0.00  0.00    -0.264 OA
ATOM      7  C5  <0> d           1.392   1.992   0.049  0.00  0.00     0.119 C 
ATOM      8  H2  <0> d           1.803   2.259   1.022  0.00  0.00     0.073 H 
ATOM      9  H6  <0> d          -0.006  -0.344   1.090  0.00  0.00     0.075 H 
ATOM     10  H7  <0> d          -0.968  -0.278  -0.418  0.00  0.00     0.075 H 
ENDROOT
BRANCH   1  11
ATOM     11  C1  <0> d          -0.909   2.229  -0.981  0.00  0.00    -0.070 C 
ATOM     12  H3  <0> d          -1.939   1.875  -0.927  0.00  0.00     0.028 H 
ATOM     13  H4  <0> d          -0.894   3.317  -0.912  0.00  0.00     0.028 H 
ATOM     14  H5  <0> d          -0.467   1.919  -1.927  0.00  0.00     0.028 H 
ENDBRANCH   1  11
BRANCH   7  15
ATOM     15  C6  <0> d           1.579   3.123  -0.929  0.00  0.00     0.187 C 
ATOM     16  O3  <0> d           1.797   2.886  -2.093  0.00  0.00    -0.647 OA
ATOM     17  O4  <0> d           1.503   4.395  -0.506  0.00  0.00    -0.647 OA
ENDBRANCH   7  15
TORSDOF 2
