REMARK  1 active torsions:
REMARK  status: ('A' for Active; 'I' for Inactive)
REMARK    1  A    between atoms: C1_1  and  C2_2 
ROOT
ATOM      1  C2  <0> d          -1.505   5.029  -2.269  0.00  0.00     0.031 A 
ATOM      2  C3  <0> d          -1.432   5.777  -1.110  0.00  0.00    -0.059 A 
ATOM      3  C4  <0> d          -1.121   5.139   0.079  0.00  0.00    -0.073 A 
ATOM      4  C5  <0> d          -0.892   3.766   0.064  0.00  0.00    -0.033 A 
ATOM      5  C6  <0> d          -0.985   3.083  -1.127  0.00  0.00     0.041 A 
ATOM      6  N1  <0> d          -1.284   3.732  -2.245  0.00  0.00    -0.258 NA
ATOM      7  C7  <0> d          -0.760   1.596  -1.223  0.00  0.00    -0.024 C 
ATOM      8  C8  <0> d          -0.013   1.086   0.008  0.00  0.00    -0.060 C 
ATOM      9  C9  <0> d          -0.739   1.585   1.263  0.00  0.00    -0.061 C 
ATOM     10  C10 <0> d          -0.542   3.095   1.365  0.00  0.00    -0.039 C 
ATOM     11  H4  <0> d          -1.616   6.841  -1.130  0.00  0.00     0.086 H 
ATOM     12  H5  <0> d          -1.058   5.697   1.001  0.00  0.00     0.084 H 
ATOM     13  H6  <0> d          -1.730   1.081  -1.290  0.00  0.00     0.042 H 
ATOM     14  H7  <0> d          -0.164   1.373  -2.120  0.00  0.00     0.042 H 
ATOM     15  H8  <0> d           0.004  -0.014  -0.003  0.00  0.00     0.033 H 
ATOM     16  H9  <0> d           1.019   1.468  -0.004  0.00  0.00     0.033 H 
ATOM     17  H10 <0> d          -1.810   1.349   1.185  0.00  0.00     0.033 H 
ATOM     18  H11 <0> d          -0.319   1.089   2.151  0.00  0.00     0.033 H 
ATOM     19  H12 <0> d           0.509   3.301   1.613  0.00  0.00     0.040 H 
ATOM     20  H13 <0> d          -1.190   3.485   2.164  0.00  0.00     0.040 H 
ENDROOT
BRANCH   1  21
ATOM     21  C1  <0> d          -1.839   5.704  -3.574  0.00  0.00    -0.035 C 
ATOM     22  H1  <0> d          -1.989   6.780  -3.402  0.00  0.00     0.035 H 
ATOM     23  H2  <0> d          -2.759   5.267  -3.989  0.00  0.00     0.035 H 
ATOM     24  H3  <0> d          -1.012   5.559  -4.285  0.00  0.00     0.035 H 
ENDBRANCH   1  21
TORSDOF 1
