REMARK  4 active torsions:
REMARK  status: ('A' for Active; 'I' for Inactive)
REMARK    1  A    between atoms: C1_1  and  C2_2 
REMARK    2  A    between atoms: C5_5  and  N1_8 
REMARK    3  A    between atoms: N1_8  and  C8_9 
REMARK    4  A    between atoms: N1_8  and  C9_10 
ROOT
ATOM      1  C2  <0> d           0.002  -0.004   0.002  0.00  0.00    -0.062 A 
ATOM      2  C3  <0> d           0.006  -0.687  -1.200  0.00  0.00    -0.075 A 
ATOM      3  C4  <0> d           0.024  -2.068  -1.212  0.00  0.00    -0.057 A 
ATOM      4  C5  <0> d           0.040  -2.771  -0.013  0.00  0.00     0.029 A 
ATOM      5  C6  <0> d           0.036  -2.081   1.193  0.00  0.00    -0.057 A 
ATOM      6  C7  <0> d           0.023  -0.700   1.197  0.00  0.00    -0.075 A 
ATOM      7  H4  <0> d          -0.006  -0.141  -2.131  0.00  0.00     0.084 H 
ATOM      8  H5  <0> d           0.027  -2.601  -2.151  0.00  0.00     0.086 H 
ATOM      9  H6  <0> d           0.047  -2.624   2.126  0.00  0.00     0.086 H 
ATOM     10  H7  <0> d           0.024  -0.164   2.134  0.00  0.00     0.084 H 
ENDROOT
BRANCH   4  11
ATOM     11  N1  <0> d           0.058  -4.167  -0.021  0.00  0.00    -0.390 N 
BRANCH  11  12
ATOM     12  C8  <0> d           0.061  -4.893  -1.294  0.00  0.00    -0.019 C 
ATOM     13  H8  <0> d           1.090  -5.059  -1.614  0.00  0.00     0.056 H 
ATOM     14  H9  <0> d          -0.439  -5.853  -1.166  0.00  0.00     0.056 H 
ATOM     15  H10 <0> d          -0.464  -4.307  -2.047  0.00  0.00     0.056 H 
ENDBRANCH  11  12
BRANCH  11  16
ATOM     16  C9  <0> d           0.074  -4.907   1.244  0.00  0.00    -0.019 C 
ATOM     17  H11 <0> d          -0.950  -5.104   1.562  0.00  0.00     0.056 H 
ATOM     18  H12 <0> d           0.600  -5.851   1.106  0.00  0.00     0.056 H 
ATOM     19  H13 <0> d           0.584  -4.315   2.004  0.00  0.00     0.056 H 
ENDBRANCH  11  16
ENDBRANCH   4  11
BRANCH   1  20
ATOM     20  C1  <0> d          -0.018   1.503   0.010  0.00  0.00    -0.051 C 
ATOM     21  H1  <0> d           1.004   1.880   0.003  0.00  0.00     0.033 H 
ATOM     22  H2  <0> d          -0.545   1.864  -0.873  0.00  0.00     0.033 H 
ATOM     23  H3  <0> d          -0.529   1.854   0.907  0.00  0.00     0.033 H 
ENDBRANCH   1  20
TORSDOF 4
