REMARK  3 active torsions:
REMARK  status: ('A' for Active; 'I' for Inactive)
REMARK    1  A    between atoms: C1_1  and  C2_2 
REMARK    2  A    between atoms: C3_3  and  C6_10 
REMARK    3  A    between atoms: C4_5  and  N3_9 
ROOT
ATOM      1  C2  <0> d           0.023  -0.711   1.193  0.00  0.00     0.004 A 
ATOM      2  C3  <0> d           0.002  -0.004   0.002  0.00  0.00     0.059 A 
ATOM      3  N1  <0> d          -0.005  -0.667  -1.143  0.00  0.00    -0.068 NA
ATOM      4  C4  <0> d           0.017  -1.992  -1.159  0.00  0.00     0.721 A 
ATOM      5  N2  <0> d           0.037  -2.699  -0.039  0.00  0.00    -0.050 NA
ATOM      6  C5  <0> d           0.041  -2.098   1.141  0.00  0.00     0.153 A 
ATOM      7 Cl1  <0> d           0.068  -3.033   2.603  0.00  0.00    -0.061 Cl
ENDROOT
BRANCH   1   8
ATOM      8  C1  <0> d           0.027   0.009   2.517  0.00  0.00    -0.046 C 
ATOM      9  H1  <0> d          -1.000   0.170   2.846  0.00  0.00     0.033 H 
ATOM     10  H2  <0> d           0.556  -0.592   3.256  0.00  0.00     0.033 H 
ATOM     11  H3  <0> d           0.527   0.971   2.405  0.00  0.00     0.033 H 
ENDBRANCH   1   8
BRANCH   2  12
ATOM     12  C6  <0> d          -0.018   1.503   0.010  0.00  0.00    -0.034 C 
ATOM     13  H6  <0> d           1.004   1.880   0.003  0.00  0.00     0.035 H 
ATOM     14  H7  <0> d          -0.545   1.864  -0.873  0.00  0.00     0.035 H 
ATOM     15  H8  <0> d          -0.529   1.854   0.907  0.00  0.00     0.035 H 
ENDBRANCH   2  12
BRANCH   4  16
ATOM     16  N3  <0> d           0.014  -2.653  -2.375  0.00  0.00    -0.231 N 
ATOM     17  H4  <0> d           0.026  -3.622  -2.400  0.00  0.00     0.174 HD
ATOM     18  H5  <0> d          -0.001  -2.146  -3.202  0.00  0.00     0.174 HD
ENDBRANCH   4  16
TORSDOF 3
