REMARK  3 active torsions:
REMARK  status: ('A' for Active; 'I' for Inactive)
REMARK    1  A    between atoms: C1_1  and  N1_2 
REMARK    2  A    between atoms: N1_2  and  C2_3 
REMARK       I    between atoms: N1_2  and  C3_4 
REMARK    3  A    between atoms: C3_4  and  C4_6 
ROOT
ATOM      1  C4  <0> d          -1.330   1.944   0.019  0.00  0.00     0.027 C 
ATOM      2  C5  <0> d          -1.423   2.809   1.280  0.00  0.00    -0.034 C 
ATOM      3  C6  <0> d          -2.793   3.491   1.321  0.00  0.00     0.020 C 
ATOM      4  O2  <0> d          -3.820   2.497   1.287  0.00  0.00    -0.391 OA
ATOM      5  C7  <0> d          -3.811   1.689   0.109  0.00  0.00     0.020 C 
ATOM      6  C8  <0> d          -2.482   0.935   0.019  0.00  0.00    -0.034 C 
ATOM      7  H7  <0> d          -1.400   2.578  -0.865  0.00  0.00     0.054 H 
ATOM      8  H8  <0> d          -1.302   2.181   2.162  0.00  0.00     0.037 H 
ATOM      9  H9  <0> d          -0.640   3.567   1.261  0.00  0.00     0.037 H 
ATOM     10  H10 <0> d          -2.897   4.150   0.459  0.00  0.00     0.074 H 
ATOM     11  H11 <0> d          -2.882   4.074   2.238  0.00  0.00     0.074 H 
ATOM     12  H12 <0> d          -3.928   2.325  -0.769  0.00  0.00     0.074 H 
ATOM     13  H13 <0> d          -4.632   0.974   0.152  0.00  0.00     0.074 H 
ATOM     14  H14 <0> d          -2.455   0.352  -0.902  0.00  0.00     0.037 H 
ATOM     15  H15 <0> d          -2.382   0.268   0.876  0.00  0.00     0.037 H 
ENDROOT
BRANCH   1  16
ATOM     16  C3  <0> d          -0.014   1.209   0.009  0.00  0.00     0.223 C 
ATOM     17  N1  <0> d           1.143   1.898   0.001  0.00  0.00    -0.360 N 
ATOM     18  O1  <0> d           0.002  -0.004   0.002  0.00  0.00    -0.273 OA
BRANCH  17  19
ATOM     19  C1  <0> d           2.422   1.183  -0.015  0.00  0.00    -0.017 C 
ATOM     20  H1  <0> d           2.729   1.011  -1.046  0.00  0.00     0.056 H 
ATOM     21  H2  <0> d           3.179   1.780   0.495  0.00  0.00     0.056 H 
ATOM     22  H3  <0> d           2.309   0.226   0.495  0.00  0.00     0.056 H 
ENDBRANCH  17  19
BRANCH  17  23
ATOM     23  C2  <0> d           1.124   3.363   0.009  0.00  0.00    -0.017 C 
ATOM     24  H4  <0> d           1.129   3.721   1.039  0.00  0.00     0.056 H 
ATOM     25  H5  <0> d           2.004   3.741  -0.511  0.00  0.00     0.056 H 
ATOM     26  H6  <0> d           0.224   3.717  -0.494  0.00  0.00     0.056 H 
ENDBRANCH  17  23
ENDBRANCH   1  16
TORSDOF 3
