REMARK  2 active torsions:
REMARK  status: ('A' for Active; 'I' for Inactive)
REMARK    1  A    between atoms: C1_1  and  N1_2 
REMARK    2  A    between atoms: N1_2  and  C2_3 
ROOT
ATOM      1  C2  <0> d          -0.050   3.846   0.023  0.00  0.00     0.033 A 
ATOM      2  C3  <0> d           1.161   3.167   0.008  0.00  0.00    -0.020 A 
ATOM      3  C4  <0> d           1.178   1.783   0.000  0.00  0.00     0.121 A 
ATOM      4  C5  <0> d          -0.013   1.076   0.008  0.00  0.00    -0.008 A 
ATOM      5  C6  <0> d          -1.222   1.751   0.017  0.00  0.00     0.121 A 
ATOM      6  C7  <0> d          -1.243   3.134   0.031  0.00  0.00    -0.020 A 
ATOM      7  F1  <0> d          -2.381   1.058   0.019  0.00  0.00    -0.206 F 
ATOM      8  F2  <0> d           2.356   1.122  -0.015  0.00  0.00    -0.206 F 
ATOM      9  H5  <0> d           2.090   3.718   0.002  0.00  0.00     0.091 H 
ATOM     10  H6  <0> d           0.002  -0.004   0.002  0.00  0.00     0.092 H 
ATOM     11  H7  <0> d          -2.186   3.660   0.043  0.00  0.00     0.091 H 
ENDROOT
BRANCH   1  12
ATOM     12  N1  <0> d          -0.069   5.242   0.030  0.00  0.00    -0.394 N 
ATOM     13  H4  <0> d           0.876   5.805   0.024  0.00  0.00     0.159 HD
BRANCH  12  14
ATOM     14  C1  <0> d          -1.348   5.957   0.046  0.00  0.00    -0.021 C 
ATOM     15  H1  <0> d          -1.161   7.041   0.050  0.00  0.00     0.056 H 
ATOM     16  H2  <0> d          -1.912   5.679   0.949  0.00  0.00     0.056 H 
ATOM     17  H3  <0> d          -1.929   5.688  -0.847  0.00  0.00     0.056 H 
ENDBRANCH  12  14
ENDBRANCH   1  12
TORSDOF 2
