REMARK  9 active torsions:
REMARK  status: ('A' for Active; 'I' for Inactive)
REMARK    1  A    between atoms: C1_1  and  C2_2 
REMARK    2  A    between atoms: C2_2  and  C3_3 
REMARK    3  A    between atoms: C2_2  and  C4_4 
REMARK    4  A    between atoms: C4_4  and  C5_6 
REMARK    5  A    between atoms: C4_4  and  O2_11 
REMARK    6  A    between atoms: C5_6  and  C6_7 
REMARK    7  A    between atoms: C5_6  and  C7_8 
REMARK    8  A    between atoms: C5_6  and  C8_9 
REMARK    9  A    between atoms: C8_9  and  O1_10 
ROOT
ATOM      1  C4  <0> d           0.351   0.381   2.873  0.00  0.00     0.047 C 
ATOM      2  H1  <0> d          -0.103   0.518   3.854  0.00  0.00     0.084 H 
ENDROOT
BRANCH   1   3
ATOM      3  C2  <0> d           1.369   1.495   2.621  0.00  0.00    -0.035 C 
ATOM      4  H5  <0> d           0.850   2.450   2.539  0.00  0.00     0.042 H 
BRANCH   3   5
ATOM      5  C1  <0> d           2.361   1.552   3.785  0.00  0.00    -0.071 C 
ATOM      6  H2  <0> d           2.880   0.597   3.867  0.00  0.00     0.028 H 
ATOM      7  H3  <0> d           3.086   2.346   3.606  0.00  0.00     0.028 H 
ATOM      8  H4  <0> d           1.823   1.754   4.711  0.00  0.00     0.028 H 
ENDBRANCH   3   5
BRANCH   3   9
ATOM      9  C3  <0> d           2.124   1.212   1.321  0.00  0.00    -0.071 C 
ATOM     10  H6  <0> d           2.221   0.135   1.184  0.00  0.00     0.028 H 
ATOM     11  H7  <0> d           1.574   1.637   0.481  0.00  0.00     0.028 H 
ATOM     12  H8  <0> d           3.115   1.662   1.371  0.00  0.00     0.028 H 
ENDBRANCH   3   9
ENDBRANCH   1   3
BRANCH   1  13
ATOM     13  C5  <0> d          -0.736   0.430   1.797  0.00  0.00    -0.000 C 
BRANCH  13  14
ATOM     14  C6  <0> d          -0.132   0.044   0.445  0.00  0.00    -0.065 C 
ATOM     15  H9  <0> d           0.613  -0.738   0.590  0.00  0.00     0.028 H 
ATOM     16  H10 <0> d           0.340   0.917  -0.005  0.00  0.00     0.028 H 
ATOM     17  H11 <0> d          -0.920  -0.323  -0.213  0.00  0.00     0.028 H 
ENDBRANCH  13  14
BRANCH  13  18
ATOM     18  C7  <0> d          -1.307   1.847   1.714  0.00  0.00    -0.065 C 
ATOM     19  H12 <0> d          -2.081   1.882   0.947  0.00  0.00     0.028 H 
ATOM     20  H13 <0> d          -1.737   2.123   2.677  0.00  0.00     0.028 H 
ATOM     21  H14 <0> d          -0.510   2.546   1.458  0.00  0.00     0.028 H 
ENDBRANCH  13  18
BRANCH  13  22
ATOM     22  C8  <0> d          -1.854  -0.550   2.155  0.00  0.00     0.025 C 
ATOM     23  H15 <0> d          -1.446  -1.560   2.214  0.00  0.00     0.075 H 
ATOM     24  H16 <0> d          -2.283  -0.275   3.119  0.00  0.00     0.075 H 
BRANCH  22  25
ATOM     25  O1  <0> d          -2.868  -0.504   1.150  0.00  0.00    -0.400 OA
ATOM     26  H17 <0> d          -3.611  -1.102   1.313  0.00  0.00     0.209 HD
ENDBRANCH  22  25
ENDBRANCH  13  22
ENDBRANCH   1  13
BRANCH   1  27
ATOM     27  O2  <0> d           1.010  -0.886   2.826  0.00  0.00    -0.394 OA
ATOM     28  H18 <0> d           1.438  -1.076   1.980  0.00  0.00     0.210 HD
ENDBRANCH   1  27
TORSDOF 9
