REMARK  3 active torsions:
REMARK  status: ('A' for Active; 'I' for Inactive)
REMARK    1  A    between atoms: C1_1  and  C2_2 
REMARK    2  A    between atoms: C2_2  and  C3_3 
REMARK    3  A    between atoms: C5_5  and  N3_9 
ROOT
ATOM      1  C3  <0> d          -1.412  -0.526   0.013  0.00  0.00     0.039 A 
ATOM      2  C4  <0> d          -1.839  -1.408  -0.961  0.00  0.00    -0.015 A 
ATOM      3  C5  <0> d          -3.157  -1.864  -0.909  0.00  0.00     0.124 A 
ATOM      4  N1  <0> d          -3.949  -1.435   0.070  0.00  0.00    -0.225 NA
ATOM      5  C6  <0> d          -3.499  -0.593   0.978  0.00  0.00     0.089 A 
ATOM      6  N2  <0> d          -2.259  -0.148   0.959  0.00  0.00    -0.246 NA
ATOM      7  H6  <0> d          -1.169  -1.736  -1.742  0.00  0.00     0.092 H 
ATOM      8  H7  <0> d          -4.165  -0.261   1.761  0.00  0.00     0.146 H 
ENDROOT
BRANCH   1   9
ATOM      9  C2  <0> d           0.002  -0.004   0.002  0.00  0.00    -0.028 C 
ATOM     10  H4  <0> d           0.512  -0.356  -0.895  0.00  0.00     0.041 H 
ATOM     11  H5  <0> d           0.529  -0.365   0.885  0.00  0.00     0.041 H 
BRANCH   9  12
ATOM     12  C1  <0> d          -0.019   1.526   0.010  0.00  0.00    -0.071 C 
ATOM     13  H1  <0> d           1.004   1.903   0.003  0.00  0.00     0.028 H 
ATOM     14  H2  <0> d          -0.546   1.887  -0.873  0.00  0.00     0.028 H 
ATOM     15  H3  <0> d          -0.529   1.877   0.907  0.00  0.00     0.028 H 
ENDBRANCH   9  12
ENDBRANCH   1   9
BRANCH   3  16
ATOM     16  N3  <0> d          -3.633  -2.749  -1.862  0.00  0.00    -0.384 N 
ATOM     17  H8  <0> d          -3.049  -3.057  -2.573  0.00  0.00     0.157 HD
ATOM     18  H9  <0> d          -4.551  -3.062  -1.819  0.00  0.00     0.157 HD
ENDBRANCH   3  16
TORSDOF 3
