REMARK  3 active torsions:
REMARK  status: ('A' for Active; 'I' for Inactive)
REMARK    1  A    between atoms: C1_1  and  C2_2 
REMARK    2  A    between atoms: C2_2  and  C3_3 
REMARK    3  A    between atoms: C3_3  and  O1_9 
ROOT
ATOM      1  C3  <0> d           1.286   1.562  -0.002  0.00  0.00     0.057 C 
ATOM      2  C4  <0> d           2.064   1.114   1.238  0.00  0.00    -0.036 C 
ATOM      3  C5  <0> d           1.310   1.548   2.497  0.00  0.00    -0.062 C 
ATOM      4  C6  <0> d           1.169   3.072   2.506  0.00  0.00    -0.065 C 
ATOM      5  C7  <0> d           0.392   3.519   1.266  0.00  0.00    -0.062 C 
ATOM      6  C8  <0> d           1.145   3.085   0.008  0.00  0.00    -0.036 C 
ATOM      7  H6  <0> d           2.164   0.029   1.231  0.00  0.00     0.037 H 
ATOM      8  H7  <0> d           3.053   1.571   1.231  0.00  0.00     0.037 H 
ATOM      9  H8  <0> d           1.864   1.229   3.380  0.00  0.00     0.033 H 
ATOM     10  H9  <0> d           0.321   1.091   2.503  0.00  0.00     0.033 H 
ATOM     11  H10 <0> d           2.158   3.529   2.499  0.00  0.00     0.033 H 
ATOM     12  H11 <0> d           0.632   3.381   3.403  0.00  0.00     0.033 H 
ATOM     13  H12 <0> d           0.291   4.605   1.273  0.00  0.00     0.033 H 
ATOM     14  H13 <0> d          -0.598   3.063   1.274  0.00  0.00     0.033 H 
ATOM     15  H14 <0> d           2.135   3.542   0.001  0.00  0.00     0.037 H 
ATOM     16  H15 <0> d           0.591   3.404  -0.875  0.00  0.00     0.037 H 
ENDROOT
BRANCH   1  17
ATOM     17  C2  <0> d           2.040   1.127  -1.261  0.00  0.00    -0.040 C 
ATOM     18  H4  <0> d           1.486   1.446  -2.144  0.00  0.00     0.036 H 
ATOM     19  H5  <0> d           3.029   1.584  -1.268  0.00  0.00     0.036 H 
BRANCH  17  20
ATOM     20  C1  <0> d           2.181  -0.396  -1.270  0.00  0.00    -0.074 C 
ATOM     21  H1  <0> d           2.735  -0.715  -0.387  0.00  0.00     0.027 H 
ATOM     22  H2  <0> d           1.192  -0.853  -1.263  0.00  0.00     0.027 H 
ATOM     23  H3  <0> d           2.718  -0.706  -2.167  0.00  0.00     0.027 H 
ENDBRANCH  17  20
ENDBRANCH   1  17
BRANCH   1  24
ATOM     24  O1  <0> d          -0.011   0.963   0.007  0.00  0.00    -0.390 OA
ATOM     25  H16 <0> d           0.002  -0.004   0.002  0.00  0.00     0.210 HD
ENDBRANCH   1  24
TORSDOF 3
