REMARK  6 active torsions:
REMARK  status: ('A' for Active; 'I' for Inactive)
REMARK    1  A    between atoms: C1_1  and  C2_2 
REMARK    2  A    between atoms: C2_2  and  C3_3 
REMARK    3  A    between atoms: C3_3  and  C4_5 
REMARK    4  A    between atoms: C3_3  and  O2_12 
REMARK    5  A    between atoms: C4_5  and  C5_6 
REMARK    6  A    between atoms: C5_6  and  C6_7 
ROOT
ATOM      1  C4  <0> d           0.630  -2.023  -1.329  0.00  0.00    -0.036 C 
ATOM      2  H7  <0> d           1.181  -2.459  -0.494  0.00  0.00     0.037 H 
ATOM      3  H8  <0> d          -0.414  -2.330  -1.274  0.00  0.00     0.037 H 
ENDROOT
BRANCH   1   4
ATOM      4  C3  <0> d           0.718  -0.497  -1.257  0.00  0.00     0.035 C 
ATOM      5  H1  <0> d           0.244  -0.064  -2.138  0.00  0.00     0.082 H 
BRANCH   4   6
ATOM      6  C2  <0> d           0.002  -0.004   0.002  0.00  0.00    -0.044 C 
ATOM      7  H5  <0> d           0.529  -0.365   0.885  0.00  0.00     0.036 H 
ATOM      8  H6  <0> d          -1.020  -0.381   0.010  0.00  0.00     0.036 H 
BRANCH   6   9
ATOM      9  C1  <0> d          -0.019   1.526   0.010  0.00  0.00    -0.074 C 
ATOM     10  H2  <0> d           1.004   1.903   0.003  0.00  0.00     0.027 H 
ATOM     11  H3  <0> d          -0.546   1.887  -0.873  0.00  0.00     0.027 H 
ATOM     12  H4  <0> d          -0.529   1.877   0.907  0.00  0.00     0.027 H 
ENDBRANCH   6   9
ENDBRANCH   4   6
BRANCH   4  13
ATOM     13  O2  <0> d           2.090  -0.101  -1.210  0.00  0.00    -0.396 OA
ATOM     14  H14 <0> d           2.575  -0.451  -0.451  0.00  0.00     0.210 HD
ENDBRANCH   4  13
ENDBRANCH   1   4
BRANCH   1  15
ATOM     15  C5  <0> d           1.236  -2.507  -2.647  0.00  0.00    -0.018 C 
ATOM     16  H9  <0> d           0.686  -2.072  -3.482  0.00  0.00     0.043 H 
ATOM     17  H10 <0> d           2.281  -2.201  -2.702  0.00  0.00     0.043 H 
BRANCH  15  18
ATOM     18  C6  <0> d           1.150  -4.010  -2.718  0.00  0.00     0.052 A 
ATOM     19  O1  <0> d           2.081  -4.872  -2.278  0.00  0.00    -0.327 OA
ATOM     20  C9  <0> d           1.667  -6.130  -2.500  0.00  0.00     0.019 A 
ATOM     21  C8  <0> d           0.463  -6.083  -3.098  0.00  0.00    -0.059 A 
ATOM     22  H13 <0> d           2.211  -7.028  -2.246  0.00  0.00     0.123 H 
ATOM     23  C7  <0> d           0.129  -4.716  -3.238  0.00  0.00    -0.052 A 
ATOM     24  H12 <0> d          -0.135  -6.926  -3.410  0.00  0.00     0.086 H 
ATOM     25  H11 <0> d          -0.772  -4.315  -3.678  0.00  0.00     0.087 H 
ENDBRANCH  15  18
ENDBRANCH   1  15
TORSDOF 6
