REMARK  2 active torsions:
REMARK  status: ('A' for Active; 'I' for Inactive)
REMARK    1  A    between atoms: C3_3  and  C4_4 
REMARK    2  A    between atoms: C5_5  and  N3_9 
ROOT
ATOM      1  C1  <0> d          -0.019   1.526   0.010  0.00  0.00    -0.056 A 
ATOM      2  C2  <0> d           1.317   0.779  -0.006  0.00  0.00    -0.056 A 
ATOM      3  C3  <0> d           0.002  -0.004   0.002  0.00  0.00    -0.006 A 
ATOM      4  H1  <0> d          -0.307   2.020   0.938  0.00  0.00     0.034 H 
ATOM      5  H2  <0> d          -0.325   2.030  -0.906  0.00  0.00     0.034 H 
ATOM      6  H3  <0> d           1.889   0.792  -0.934  0.00  0.00     0.034 H 
ATOM      7  H4  <0> d           1.906   0.782   0.910  0.00  0.00     0.034 H 
ATOM      8  H5  <0> d          -0.273  -0.516   0.924  0.00  0.00     0.050 H 
ENDROOT
BRANCH   3   9
ATOM      9  C4  <0> d          -0.402  -0.698  -1.273  0.00  0.00     0.116 A 
ATOM     10  N2  <0> d           0.180  -0.567  -2.426  0.00  0.00    -0.105 NA
ATOM     11  O1  <0> d          -0.503  -1.388  -3.356  0.00  0.00    -0.105 OA
ATOM     12  N1  <0> d          -1.562  -2.026  -2.664  0.00  0.00    -0.085 NA
ATOM     13  C5  <0> d          -1.519  -1.628  -1.421  0.00  0.00     0.178 A 
BRANCH  13  14
ATOM     14  N3  <0> d          -2.389  -2.023  -0.410  0.00  0.00    -0.380 N 
ATOM     15  H6  <0> d          -2.279  -1.674   0.489  0.00  0.00     0.157 HD
ATOM     16  H7  <0> d          -3.105  -2.648  -0.603  0.00  0.00     0.157 HD
ENDBRANCH  13  14
ENDBRANCH   3   9
TORSDOF 2
