REMARK  0 active torsions:
REMARK  status: ('A' for Active; 'I' for Inactive)
ROOT
ATOM      1  C1  <0> d          -0.017   1.380   0.010  0.00  0.00    -0.061 A 
ATOM      2  C2  <0> d           1.172   2.091   0.002  0.00  0.00    -0.074 A 
ATOM      3  C3  <0> d           2.373   1.421  -0.013  0.00  0.00    -0.044 A 
ATOM      4  C4  <0> d           2.406   0.025  -0.021  0.00  0.00    -0.028 A 
ATOM      5  C5  <0> d           1.203  -0.685  -0.013  0.00  0.00    -0.052 A 
ATOM      6  C6  <0> d           0.002  -0.004   0.002  0.00  0.00     0.034 A 
ATOM      7 Cl1  <0> d          -1.492  -0.888   0.012  0.00  0.00    -0.084 Cl
ATOM      8  C7  <0> d           3.812  -0.420  -0.037  0.00  0.00    -0.076 A 
ATOM      9  C8  <0> d           4.636   0.613  -0.040  0.00  0.00    -0.098 A 
ATOM     10  C9  <0> d           3.811   1.879  -0.025  0.00  0.00    -0.025 A 
ATOM     11  H1  <0> d          -0.960   1.907   0.026  0.00  0.00     0.086 H 
ATOM     12  H2  <0> d           1.156   3.171   0.008  0.00  0.00     0.084 H 
ATOM     13  H3  <0> d           1.212  -1.765  -0.019  0.00  0.00     0.087 H 
ATOM     14  H4  <0> d           4.126  -1.453  -0.045  0.00  0.00     0.084 H 
ATOM     15  H5  <0> d           5.715   0.561  -0.051  0.00  0.00     0.077 H 
ATOM     16  H6  <0> d           4.011   2.470  -0.918  0.00  0.00     0.046 H 
ATOM     17  H7  <0> d           4.029   2.461   0.871  0.00  0.00     0.046 H 
ENDROOT
TORSDOF 0
