REMARK  5 active torsions:
REMARK  status: ('A' for Active; 'I' for Inactive)
REMARK    1  A    between atoms: C1_1  and  C2_2 
REMARK    2  A    between atoms: C2_2  and  C3_4 
REMARK    3  A    between atoms: C2_2  and  O2_12 
REMARK    4  A    between atoms: C7_8  and  O1_10 
REMARK    5  A    between atoms: O1_10  and  C9_11 
ROOT
ATOM      1  C3  <0> d          -0.051   3.844   0.022  0.00  0.00    -0.027 A 
ATOM      2  C4  <0> d          -1.237   3.133   0.030  0.00  0.00    -0.074 A 
ATOM      3  C5  <0> d          -1.218   1.751   0.017  0.00  0.00    -0.080 A 
ATOM      4  C6  <0> d          -0.013   1.076   0.008  0.00  0.00    -0.051 A 
ATOM      5  C7  <0> d           1.179   1.786   0.000  0.00  0.00     0.068 A 
ATOM      6  C8  <0> d           1.157   3.174   0.008  0.00  0.00    -0.042 A 
ATOM      7  H5  <0> d          -2.181   3.659   0.042  0.00  0.00     0.084 H 
ATOM      8  H6  <0> d          -2.146   1.198   0.019  0.00  0.00     0.083 H 
ATOM      9  H7  <0> d           0.002  -0.004   0.002  0.00  0.00     0.087 H 
ATOM     10  H8  <0> d           2.083   3.729   0.001  0.00  0.00     0.088 H 
ENDROOT
BRANCH   1  11
ATOM     11  C2  <0> d          -0.076   5.351   0.030  0.00  0.00     0.057 C 
ATOM     12  H1  <0> d           0.845   5.731  -0.411  0.00  0.00     0.089 H 
BRANCH  11  13
ATOM     13  C1  <0> d          -0.197   5.851   1.471  0.00  0.00    -0.049 C 
ATOM     14  H2  <0> d           0.656   5.499   2.050  0.00  0.00     0.031 H 
ATOM     15  H3  <0> d          -0.215   6.941   1.476  0.00  0.00     0.031 H 
ATOM     16  H4  <0> d          -1.118   5.470   1.912  0.00  0.00     0.031 H 
ENDBRANCH  11  13
BRANCH  11  17
ATOM     17  O2  <0> d          -1.194   5.812  -0.730  0.00  0.00    -0.391 OA
ATOM     18  H12 <0> d          -2.050   5.511  -0.394  0.00  0.00     0.210 HD
ENDBRANCH  11  17
ENDBRANCH   1  11
BRANCH   5  19
ATOM     19  O1  <0> d           2.366   1.125  -0.014  0.00  0.00    -0.356 OA
BRANCH  19  20
ATOM     20  C9  <0> d           2.312  -0.303  -0.020  0.00  0.00     0.010 C 
ATOM     21  H9  <0> d           1.794  -0.651   0.873  0.00  0.00     0.066 H 
ATOM     22  H10 <0> d           1.777  -0.643  -0.906  0.00  0.00     0.066 H 
ATOM     23  H11 <0> d           3.326  -0.705  -0.031  0.00  0.00     0.066 H 
ENDBRANCH  19  20
ENDBRANCH   5  19
TORSDOF 5
