REMARK  3 active torsions:
REMARK  status: ('A' for Active; 'I' for Inactive)
REMARK    1  A    between atoms: C1_1  and  C2_2 
REMARK    2  A    between atoms: C3_3  and  C5_7 
REMARK       I    between atoms: C5_7  and  N2_9 
REMARK    3  A    between atoms: N2_9  and  C6_10 
ROOT
ATOM      1  C2  <0> d           0.002  -0.004   0.002  0.00  0.00     0.053 A 
ATOM      2  C3  <0> d           0.006  -0.722  -1.174  0.00  0.00     0.098 A 
ATOM      3  S1  <0> d           0.032  -2.390  -0.537  0.00  0.00    -0.075 SA
ATOM      4  C4  <0> d           0.035  -2.012   1.103  0.00  0.00     0.041 A 
ATOM      5  N1  <0> d           0.022  -0.699   1.113  0.00  0.00    -0.257 NA
ATOM      6  H4  <0> d           0.048  -2.688   1.945  0.00  0.00     0.126 H 
ENDROOT
BRANCH   2   7
ATOM      7  C5  <0> d          -0.008  -0.248  -2.562  0.00  0.00     0.260 C 
ATOM      8  O1  <0> d          -0.025   0.946  -2.797  0.00  0.00    -0.267 OA
ATOM      9  N2  <0> d          -0.001  -1.134  -3.577  0.00  0.00    -0.361 N 
ATOM     10  H5  <0> d           0.013  -2.086  -3.389  0.00  0.00     0.162 HD
BRANCH   9  11
ATOM     11  C6  <0> d          -0.014  -0.661  -4.963  0.00  0.00    -0.018 C 
ATOM     12  H6  <0> d           0.866  -0.045  -5.145  0.00  0.00     0.056 H 
ATOM     13  H7  <0> d          -0.006  -1.516  -5.639  0.00  0.00     0.056 H 
ATOM     14  H8  <0> d          -0.913  -0.069  -5.136  0.00  0.00     0.056 H 
ENDBRANCH   9  11
ENDBRANCH   2   7
BRANCH   1  15
ATOM     15  C1  <0> d          -0.018   1.503   0.010  0.00  0.00    -0.034 C 
ATOM     16  H1  <0> d           1.004   1.880   0.003  0.00  0.00     0.035 H 
ATOM     17  H2  <0> d          -0.545   1.864  -0.873  0.00  0.00     0.035 H 
ATOM     18  H3  <0> d          -0.529   1.854   0.907  0.00  0.00     0.035 H 
ENDBRANCH   1  15
TORSDOF 3
