REMARK  3 active torsions:
REMARK  status: ('A' for Active; 'I' for Inactive)
REMARK    1  A    between atoms: C1_1  and  C2_2 
REMARK    2  A    between atoms: C5_6  and  C8_11 
REMARK    3  A    between atoms: C8_11  and  C10_13 
ROOT
ATOM      1  C2  <0> d           0.002  -0.004   0.002  0.00  0.00     0.016 C 
ATOM      2  H1  <0> d          -0.936  -0.350   0.004  0.00  0.00     0.057 H 
ATOM      3  C3  <0> d           0.719  -0.491  -1.226  0.00  0.00    -0.095 C 
ATOM      4  C4  <0> d           1.882  -1.053  -1.212  0.00  0.00    -0.098 C 
ATOM      5  C5  <0> d           2.703  -1.337   0.007  0.00  0.00    -0.011 C 
ATOM      6  H2  <0> d           2.596  -2.388   0.275  0.00  0.00     0.053 H 
ATOM      7  C6  <0> d           2.249  -0.468   1.183  0.00  0.00     0.001 C 
ATOM      8  C7  <0> d           0.734  -0.508   1.228  0.00  0.00     0.135 C 
ATOM      9  O1  <0> d           0.140  -0.922   2.194  0.00  0.00    -0.297 OA
ATOM     10  H6  <0> d           0.231  -0.364  -2.181  0.00  0.00     0.077 H 
ATOM     11  H7  <0> d           2.300  -1.343  -2.165  0.00  0.00     0.077 H 
ATOM     12  H8  <0> d           2.572   0.469   1.049  0.00  0.00     0.045 H 
ATOM     13  H9  <0> d           2.657  -0.863   2.113  0.00  0.00     0.045 H 
ENDROOT
BRANCH   5  14
ATOM     14  C8  <0> d           4.152  -1.048  -0.292  0.00  0.00    -0.085 C 
ATOM     15  C9  <0> d           5.040  -2.009  -0.218  0.00  0.00    -0.119 C 
ATOM     16  H10 <0> d           4.734  -3.007   0.058  0.00  0.00     0.067 H 
ATOM     17  H11 <0> d           6.078  -1.802  -0.433  0.00  0.00     0.067 H 
BRANCH  14  18
ATOM     18  C10 <0> d           4.579   0.344  -0.677  0.00  0.00    -0.055 C 
ATOM     19  H12 <0> d           4.842   0.905   0.220  0.00  0.00     0.033 H 
ATOM     20  H13 <0> d           5.444   0.290  -1.338  0.00  0.00     0.033 H 
ATOM     21  H14 <0> d           3.760   0.846  -1.192  0.00  0.00     0.033 H 
ENDBRANCH  14  18
ENDBRANCH   5  14
BRANCH   1  22
ATOM     22  C1  <0> d          -0.019   1.526   0.010  0.00  0.00    -0.063 C 
ATOM     23  H3  <0> d           1.004   1.903   0.003  0.00  0.00     0.028 H 
ATOM     24  H4  <0> d          -0.546   1.887  -0.873  0.00  0.00     0.028 H 
ATOM     25  H5  <0> d          -0.529   1.877   0.907  0.00  0.00     0.028 H 
ENDBRANCH   1  22
TORSDOF 3
