REMARK  1 active torsions:
REMARK  status: ('A' for Active; 'I' for Inactive)
REMARK    1  A    between atoms: C1_1  and  C2_2 
ROOT
ATOM      1  C2  <0> d          -1.987   0.856   1.371  0.00  0.00     0.155 C 
ATOM      2  H1  <0> d          -1.751  -0.198   1.576  0.00  0.00     0.095 H 
ATOM      3  C3  <0> d          -2.798   0.938   0.104  0.00  0.00    -0.019 A 
ATOM      4  C4  <0> d          -4.155   0.657   0.169  0.00  0.00    -0.074 A 
ATOM      5  C5  <0> d          -4.936   0.716  -0.968  0.00  0.00    -0.082 A 
ATOM      6  C6  <0> d          -4.363   1.055  -2.179  0.00  0.00    -0.082 A 
ATOM      7  C7  <0> d          -3.013   1.335  -2.246  0.00  0.00    -0.076 A 
ATOM      8  C8  <0> d          -2.228   1.278  -1.104  0.00  0.00    -0.048 A 
ATOM      9  C9  <0> d          -0.760   1.596  -1.224  0.00  0.00    -0.016 C 
ATOM     10  C10 <0> d          -0.013   1.086   0.008  0.00  0.00     0.116 C 
ATOM     11  N1  <0> d          -0.709   1.564   1.213  0.00  0.00     0.092 N 
ATOM     12  H5  <0> d          -4.604   0.393   1.115  0.00  0.00     0.084 H 
ATOM     13  H6  <0> d          -5.992   0.497  -0.911  0.00  0.00     0.083 H 
ATOM     14  H7  <0> d          -4.970   1.100  -3.071  0.00  0.00     0.083 H 
ATOM     15  H8  <0> d          -2.566   1.600  -3.193  0.00  0.00     0.084 H 
ATOM     16  H9  <0> d          -0.352   1.109  -2.123  0.00  0.00     0.042 H 
ATOM     17  H10 <0> d          -0.626   2.685  -1.304  0.00  0.00     0.042 H 
ATOM     18  H11 <0> d           0.004  -0.014  -0.003  0.00  0.00     0.080 H 
ATOM     19  H12 <0> d           1.019   1.468  -0.004  0.00  0.00     0.080 H 
ATOM     20  H13 <0> d          -0.897   2.644   1.117  0.00  0.00     0.316 HD
ENDROOT
BRANCH   1  21
ATOM     21  C1  <0> d          -2.775   1.493   2.517  0.00  0.00    -0.043 C 
ATOM     22  H2  <0> d          -3.733   0.968   2.640  0.00  0.00     0.030 H 
ATOM     23  H3  <0> d          -2.965   2.552   2.287  0.00  0.00     0.030 H 
ATOM     24  H4  <0> d          -2.193   1.418   3.447  0.00  0.00     0.030 H 
ENDBRANCH   1  21
TORSDOF 1
