REMARK  8 active torsions:
REMARK  status: ('A' for Active; 'I' for Inactive)
REMARK    1  A    between atoms: C1_1  and  C2_2 
REMARK    2  A    between atoms: C2_2  and  C3_3 
REMARK    3  A    between atoms: C2_2  and  C4_4 
REMARK    4  A    between atoms: C2_2  and  C5_5 
REMARK    5  A    between atoms: C6_6  and  C7_7 
REMARK    6  A    between atoms: C7_7  and  C8_8 
REMARK    7  A    between atoms: C7_7  and  C9_9 
REMARK    8  A    between atoms: C7_7  and  O1_10 
ROOT
ATOM      1  C2  <0> d          -0.018   1.468   0.010  0.00  0.00     0.013 C 
ENDROOT
BRANCH   1   2
ATOM      2  C1  <0> d           1.417   1.997  -0.001  0.00  0.00    -0.059 C 
ATOM      3  H1  <0> d           1.928   1.646  -0.897  0.00  0.00     0.029 H 
ATOM      4  H2  <0> d           1.403   3.087   0.005  0.00  0.00     0.029 H 
ATOM      5  H3  <0> d           1.945   1.636   0.882  0.00  0.00     0.029 H 
ENDBRANCH   1   2
BRANCH   1   6
ATOM      6  C3  <0> d          -0.758   1.975  -1.229  0.00  0.00    -0.059 C 
ATOM      7  H4  <0> d          -1.780   1.597  -1.222  0.00  0.00     0.029 H 
ATOM      8  H5  <0> d          -0.773   3.064  -1.223  0.00  0.00     0.029 H 
ATOM      9  H6  <0> d          -0.248   1.623  -2.126  0.00  0.00     0.029 H 
ENDBRANCH   1   6
BRANCH   1  10
ATOM     10  C4  <0> d          -0.734   1.961   1.269  0.00  0.00    -0.059 C 
ATOM     11  H7  <0> d          -0.207   1.600   2.152  0.00  0.00     0.029 H 
ATOM     12  H8  <0> d          -0.749   3.051   1.275  0.00  0.00     0.029 H 
ATOM     13  H9  <0> d          -1.757   1.584   1.277  0.00  0.00     0.029 H 
ENDBRANCH   1  10
BRANCH   1  14
ATOM     14  C5  <0> d           0.002  -0.004   0.002  0.00  0.00    -0.095 C 
ATOM     15  C6  <0> d           0.018  -1.178  -0.004  0.00  0.00    -0.068 C 
BRANCH  15  16
ATOM     16  C7  <0> d           0.038  -2.650  -0.013  0.00  0.00     0.114 C 
BRANCH  16  17
ATOM     17  C8  <0> d           0.754  -3.143  -1.271  0.00  0.00    -0.038 C 
ATOM     18  H10 <0> d           1.777  -2.766  -1.279  0.00  0.00     0.033 H 
ATOM     19  H11 <0> d           0.769  -4.233  -1.277  0.00  0.00     0.033 H 
ATOM     20  H12 <0> d           0.227  -2.782  -2.154  0.00  0.00     0.033 H 
ENDBRANCH  16  17
BRANCH  16  21
ATOM     21  C9  <0> d           0.778  -3.157   1.227  0.00  0.00    -0.038 C 
ATOM     22  H13 <0> d           0.268  -2.805   2.124  0.00  0.00     0.033 H 
ATOM     23  H14 <0> d           0.793  -4.247   1.221  0.00  0.00     0.033 H 
ATOM     24  H15 <0> d           1.800  -2.779   1.219  0.00  0.00     0.033 H 
ENDBRANCH  16  21
BRANCH  16  25
ATOM     25  O1  <0> d          -1.303  -3.144  -0.002  0.00  0.00    -0.378 OA
ATOM     26  H16 <0> d          -1.817  -2.870   0.769  0.00  0.00     0.211 HD
ENDBRANCH  16  25
ENDBRANCH  15  16
ENDBRANCH   1  14
TORSDOF 8
