REMARK  5 active torsions:
REMARK  status: ('A' for Active; 'I' for Inactive)
REMARK    1  A    between atoms: C1_1  and  C2_2 
REMARK    2  A    between atoms: C2_2  and  C3_4 
REMARK    3  A    between atoms: C2_2  and  O2_10 
REMARK       I    between atoms: C3_4  and  N1_6 
REMARK    4  A    between atoms: N1_6  and  C4_7 
REMARK    5  A    between atoms: C4_7  and  C5_8 
ROOT
ATOM      1  C3  <0> d          -0.014   1.209   0.009  0.00  0.00     0.246 C 
ATOM      2  O1  <0> d           0.002  -0.004   0.002  0.00  0.00    -0.271 OA
ATOM      3  N1  <0> d           1.143   1.898   0.001  0.00  0.00    -0.355 N 
ATOM      4  H5  <0> d           1.130   2.868   0.007  0.00  0.00     0.162 HD
ENDROOT
BRANCH   1   5
ATOM      5  C2  <0> d          -1.330   1.944   0.019  0.00  0.00     0.109 C 
ATOM      6  H1  <0> d          -1.355   2.631   0.865  0.00  0.00     0.097 H 
BRANCH   5   7
ATOM      7  C1  <0> d          -1.483   2.732  -1.283  0.00  0.00    -0.044 C 
ATOM      8  H2  <0> d          -1.458   2.045  -2.129  0.00  0.00     0.031 H 
ATOM      9  H3  <0> d          -2.434   3.264  -1.276  0.00  0.00     0.031 H 
ATOM     10  H4  <0> d          -0.667   3.449  -1.373  0.00  0.00     0.031 H 
ENDBRANCH   5   7
BRANCH   5  11
ATOM     11  O2  <0> d          -2.400   1.005   0.136  0.00  0.00    -0.387 OA
ATOM     12  H11 <0> d          -2.439   0.361  -0.584  0.00  0.00     0.210 HD
ENDBRANCH   5  11
ENDBRANCH   1   5
BRANCH   3  13
ATOM     13  C4  <0> d           2.422   1.183  -0.015  0.00  0.00     0.010 C 
ATOM     14  H6  <0> d           2.497   0.553   0.871  0.00  0.00     0.070 H 
ATOM     15  H7  <0> d           2.480   0.562  -0.909  0.00  0.00     0.070 H 
BRANCH  13  16
ATOM     16  C5  <0> d           3.554   2.178  -0.020  0.00  0.00    -0.095 C 
ATOM     17  C6  <0> d           4.484   2.116   0.900  0.00  0.00    -0.123 C 
ATOM     18  H9  <0> d           4.440   1.353   1.663  0.00  0.00     0.066 H 
ATOM     19  H10 <0> d           5.296   2.829   0.896  0.00  0.00     0.066 H 
ATOM     20  H8  <0> d           3.598   2.942  -0.783  0.00  0.00     0.078 H 
ENDBRANCH  13  16
ENDBRANCH   3  13
TORSDOF 5
