REMARK  3 active torsions:
REMARK  status: ('A' for Active; 'I' for Inactive)
REMARK    1  A    between atoms: C1_1  and  O1_2 
REMARK    2  A    between atoms: O1_2  and  C2_3 
REMARK    3  A    between atoms: C5_6  and  N2_11 
ROOT
ATOM      1  C2  <0> d           0.042  -2.783  -0.013  0.00  0.00     0.069 A 
ATOM      2  C3  <0> d           1.231  -2.064  -0.020  0.00  0.00    -0.049 A 
ATOM      3  C4  <0> d           1.212  -0.684  -0.013  0.00  0.00    -0.054 A 
ATOM      4  C5  <0> d           0.002  -0.004   0.002  0.00  0.00     0.046 A 
ATOM      5  C6  <0> d          -1.202  -0.725   0.015  0.00  0.00     0.073 A 
ATOM      6  C7  <0> d          -1.171  -2.122   0.002  0.00  0.00    -0.029 A 
ATOM      7  C8  <0> d          -2.455  -0.032   0.038  0.00  0.00     0.102 C 
ATOM      8  N1  <0> d          -3.449   0.517   0.055  0.00  0.00    -0.191 NA
ATOM      9  H4  <0> d           2.176  -2.588  -0.032  0.00  0.00     0.087 H 
ATOM     10  H5  <0> d           2.141  -0.133  -0.019  0.00  0.00     0.087 H 
ATOM     11  H6  <0> d          -2.094  -2.683   0.008  0.00  0.00     0.090 H 
ENDROOT
BRANCH   4  12
ATOM     12  N2  <0> d          -0.017   1.388   0.010  0.00  0.00    -0.398 N 
ATOM     13  H7  <0> d           0.817   1.885   0.004  0.00  0.00     0.156 HD
ATOM     14  H8  <0> d          -0.863   1.862   0.016  0.00  0.00     0.156 HD
ENDBRANCH   4  12
BRANCH   1  15
ATOM     15  O1  <0> d           0.072  -4.143  -0.020  0.00  0.00    -0.356 OA
BRANCH  15  16
ATOM     16  C1  <0> d           1.360  -4.763  -0.034  0.00  0.00     0.010 C 
ATOM     17  H1  <0> d           1.902  -4.454  -0.928  0.00  0.00     0.066 H 
ATOM     18  H2  <0> d           1.918  -4.462   0.852  0.00  0.00     0.066 H 
ATOM     19  H3  <0> d           1.241  -5.847  -0.038  0.00  0.00     0.066 H 
ENDBRANCH  15  16
ENDBRANCH   1  15
TORSDOF 3
