REMARK  3 active torsions:
REMARK  status: ('A' for Active; 'I' for Inactive)
REMARK    1  A    between atoms: C1_1  and  N1_2 
REMARK    2  A    between atoms: N1_2  and  C2_3 
REMARK    3  A    between atoms: C4_5  and  C7_9 
ROOT
ATOM      1  C2  <0> d          -1.198  -0.719   0.010  0.00  0.00     0.046 A 
ATOM      2  C3  <0> d          -1.190  -2.110   0.008  0.00  0.00    -0.038 A 
ATOM      3  C4  <0> d          -2.419  -2.779   0.016  0.00  0.00     0.060 A 
ATOM      4  C5  <0> d          -3.598  -2.029   0.025  0.00  0.00     0.018 A 
ATOM      5  N2  <0> d          -3.557  -0.713   0.026  0.00  0.00    -0.270 NA
ATOM      6  C6  <0> d          -2.417  -0.050   0.025  0.00  0.00     0.027 A 
ATOM      7  H5  <0> d          -0.260  -2.658   0.000  0.00  0.00     0.088 H 
ATOM      8  H6  <0> d          -4.553  -2.533   0.031  0.00  0.00     0.116 H 
ATOM      9  H7  <0> d          -2.429   1.030   0.031  0.00  0.00     0.118 H 
ENDROOT
BRANCH   1  10
ATOM     10  N1  <0> d           0.002  -0.004   0.002  0.00  0.00    -0.393 N 
ATOM     11  H4  <0> d           0.849  -0.478  -0.009  0.00  0.00     0.159 HD
BRANCH  10  12
ATOM     12  C1  <0> d          -0.018   1.461   0.010  0.00  0.00    -0.021 C 
ATOM     13  H1  <0> d           1.005   1.838   0.002  0.00  0.00     0.056 H 
ATOM     14  H2  <0> d          -0.545   1.822  -0.873  0.00  0.00     0.056 H 
ATOM     15  H3  <0> d          -0.528   1.812   0.907  0.00  0.00     0.056 H 
ENDBRANCH  10  12
ENDBRANCH   1  10
BRANCH   3  16
ATOM     16  C7  <0> d          -2.470  -4.254   0.014  0.00  0.00     0.210 C 
ATOM     17  O1  <0> d          -1.433  -4.901   0.005  0.00  0.00    -0.644 OA
ATOM     18  O2  <0> d          -3.549  -4.829   0.021  0.00  0.00    -0.644 OA
ENDBRANCH   3  16
TORSDOF 3
