REMARK  1 active torsions:
REMARK  status: ('A' for Active; 'I' for Inactive)
REMARK    1  A    between atoms: C5_6  and  N2_7 
ROOT
ATOM      1  C1  <0> d          -0.017   1.391   0.010  0.00  0.00    -0.038 A 
ATOM      2  C2  <0> d           1.179   2.077   0.002  0.00  0.00     0.007 A 
ATOM      3  N1  <0> d           2.332   1.436  -0.014  0.00  0.00    -0.235 NA
ATOM      4  C3  <0> d           2.400   0.111  -0.023  0.00  0.00     0.200 A 
ATOM      5  C4  <0> d           1.239  -0.649  -0.013  0.00  0.00     0.148 A 
ATOM      6  C5  <0> d           0.002  -0.004   0.002  0.00  0.00     0.065 A 
ATOM      7  O1  <0> d           1.289  -2.009  -0.014  0.00  0.00    -0.343 OA
ATOM      8  C6  <0> d           2.533  -2.606  -0.400  0.00  0.00     0.046 C 
ATOM      9  C7  <0> d           3.664  -1.871   0.332  0.00  0.00     0.048 C 
ATOM     10  O2  <0> d           3.619  -0.490  -0.044  0.00  0.00    -0.330 OA
ATOM     11  H1  <0> d          -0.955   1.925   0.026  0.00  0.00     0.089 H 
ATOM     12  H2  <0> d           1.171   3.157   0.009  0.00  0.00     0.115 H 
ATOM     13  H5  <0> d           2.537  -3.659  -0.119  0.00  0.00     0.078 H 
ATOM     14  H6  <0> d           2.668  -2.510  -1.477  0.00  0.00     0.078 H 
ATOM     15  H7  <0> d           3.526  -1.963   1.409  0.00  0.00     0.078 H 
ATOM     16  H8  <0> d           4.625  -2.298   0.046  0.00  0.00     0.078 H 
ENDROOT
BRANCH   6  17
ATOM     17  N2  <0> d          -1.186  -0.736   0.010  0.00  0.00    -0.397 N 
ATOM     18  H3  <0> d          -2.039  -0.275   0.021  0.00  0.00     0.156 HD
ATOM     19  H4  <0> d          -1.158  -1.705   0.004  0.00  0.00     0.156 HD
ENDBRANCH   6  17
TORSDOF 1
