REMARK  0 active torsions:
REMARK  status: ('A' for Active; 'I' for Inactive)
ROOT
ATOM      1  C1  <0> d           1.185   1.769   0.000  0.00  0.00    -0.065 A 
ATOM      2  C2  <0> d           1.159   3.153   0.009  0.00  0.00    -0.066 A 
ATOM      3  C3  <0> d          -0.088   3.790   0.025  0.00  0.00     0.034 A 
ATOM      4  C4  <0> d          -1.255   3.024   0.029  0.00  0.00     0.048 A 
ATOM      5  N1  <0> d          -1.171   1.705   0.017  0.00  0.00    -0.265 NA
ATOM      6  C5  <0> d          -0.013   1.076   0.008  0.00  0.00     0.003 A 
ATOM      7  C6  <0> d          -2.615   3.669   0.038  0.00  0.00    -0.023 C 
ATOM      8  C7  <0> d          -2.551   5.088   0.593  0.00  0.00    -0.053 C 
ATOM      9  C8  <0> d          -1.516   5.900  -0.197  0.00  0.00    -0.005 C 
ATOM     10  C9  <0> d          -0.163   5.263   0.044  0.00  0.00     0.161 C 
ATOM     11  O1  <0> d           0.823   5.939   0.246  0.00  0.00    -0.292 OA
ATOM     12  H1  <0> d           2.125   1.239  -0.012  0.00  0.00     0.085 H 
ATOM     13  H2  <0> d           2.075   3.726   0.004  0.00  0.00     0.085 H 
ATOM     14  H3  <0> d           0.002  -0.004   0.002  0.00  0.00     0.114 H 
ATOM     15  H4  <0> d          -3.001   3.701  -0.981  0.00  0.00     0.042 H 
ATOM     16  H5  <0> d          -3.288   3.074   0.656  0.00  0.00     0.042 H 
ATOM     17  H6  <0> d          -3.530   5.559   0.501  0.00  0.00     0.034 H 
ATOM     18  H7  <0> d          -2.262   5.055   1.644  0.00  0.00     0.034 H 
ATOM     19  H8  <0> d          -1.748   5.880  -1.169  0.00  0.00     0.044 H 
ATOM     20  H9  <0> d          -1.509   6.932   0.153  0.00  0.00     0.044 H 
ENDROOT
TORSDOF 0
