REMARK  8 active torsions:
REMARK  status: ('A' for Active; 'I' for Inactive)
REMARK    1  A    between atoms: C1_1  and  C2_2 
REMARK    2  A    between atoms: C2_2  and  C3_3 
REMARK    3  A    between atoms: C3_3  and  C4_4 
REMARK    4  A    between atoms: C4_4  and  C5_5 
REMARK    5  A    between atoms: C5_5  and  C6_6 
REMARK    6  A    between atoms: C7_7  and  C8_8 
REMARK    7  A    between atoms: C9_9  and  C10_10 
REMARK    8  A    between atoms: C10_10  and  O1_11 
ROOT
ATOM      1  C5  <0> d          -2.848  -2.593   0.015  0.00  0.00    -0.009 C 
ATOM      2  H10 <0> d          -3.358  -2.241   0.912  0.00  0.00     0.051 H 
ATOM      3  H11 <0> d          -3.375  -2.232  -0.868  0.00  0.00     0.051 H 
ENDROOT
BRANCH   1   4
ATOM      4  C4  <0> d          -1.413  -2.063   0.004  0.00  0.00    -0.056 C 
ATOM      5  H8  <0> d          -0.902  -2.415  -0.892  0.00  0.00     0.034 H 
ATOM      6  H9  <0> d          -0.885  -2.425   0.887  0.00  0.00     0.034 H 
BRANCH   4   7
ATOM      7  C3  <0> d          -1.433  -0.534   0.013  0.00  0.00    -0.065 C 
ATOM      8  H6  <0> d          -1.944  -0.182   0.910  0.00  0.00     0.033 H 
ATOM      9  H7  <0> d          -1.960  -0.173  -0.870  0.00  0.00     0.033 H 
BRANCH   7  10
ATOM     10  C2  <0> d           0.002  -0.004   0.002  0.00  0.00    -0.069 C 
ATOM     11  H4  <0> d           0.512  -0.356  -0.895  0.00  0.00     0.032 H 
ATOM     12  H5  <0> d           0.529  -0.365   0.885  0.00  0.00     0.032 H 
BRANCH  10  13
ATOM     13  C1  <0> d          -0.019   1.526   0.010  0.00  0.00    -0.077 C 
ATOM     14  H1  <0> d           1.004   1.903   0.003  0.00  0.00     0.027 H 
ATOM     15  H2  <0> d          -0.546   1.887  -0.873  0.00  0.00     0.027 H 
ATOM     16  H3  <0> d          -0.529   1.877   0.907  0.00  0.00     0.027 H 
ENDBRANCH  10  13
ENDBRANCH   7  10
ENDBRANCH   4   7
ENDBRANCH   1   4
BRANCH   1  17
ATOM     17  C6  <0> d          -2.828  -4.065   0.007  0.00  0.00    -0.102 C 
ATOM     18  C7  <0> d          -2.812  -5.239   0.001  0.00  0.00    -0.079 C 
BRANCH  18  19
ATOM     19  C8  <0> d          -2.793  -6.671  -0.007  0.00  0.00    -0.035 C 
ATOM     20  C9  <0> d          -3.934  -7.351   0.000  0.00  0.00    -0.073 C 
ATOM     21  H13 <0> d          -3.920  -8.431  -0.006  0.00  0.00     0.081 H 
ATOM     22  H12 <0> d          -1.850  -7.198  -0.019  0.00  0.00     0.097 H 
BRANCH  20  23
ATOM     23  C10 <0> d          -5.249  -6.615   0.017  0.00  0.00     0.032 C 
ATOM     24  H14 <0> d          -5.687  -6.675   1.013  0.00  0.00     0.080 H 
ATOM     25  H15 <0> d          -5.084  -5.570  -0.245  0.00  0.00     0.080 H 
BRANCH  23  26
ATOM     26  O1  <0> d          -6.139  -7.209  -0.931  0.00  0.00    -0.397 OA
ATOM     27  H16 <0> d          -7.007  -6.785  -0.974  0.00  0.00     0.209 HD
ENDBRANCH  23  26
ENDBRANCH  20  23
ENDBRANCH  18  19
ENDBRANCH   1  17
TORSDOF 8
