REMARK  4 active torsions:
REMARK  status: ('A' for Active; 'I' for Inactive)
REMARK    1  A    between atoms: C1_1  and  C2_2 
REMARK    2  A    between atoms: C2_2  and  C3_3 
REMARK    3  A    between atoms: C3_3  and  C4_4 
REMARK    4  A    between atoms: C4_4  and  C5_5 
ROOT
ATOM      1  C4  <0> d          -1.433  -0.534   0.013  0.00  0.00    -0.040 C 
ATOM      2  H9  <0> d          -1.944  -0.182   0.910  0.00  0.00     0.036 H 
ATOM      3  H10 <0> d          -1.960  -0.173  -0.870  0.00  0.00     0.036 H 
ENDROOT
BRANCH   1   4
ATOM      4  C3  <0> d           0.002  -0.004   0.002  0.00  0.00    -0.063 C 
ATOM      5  H7  <0> d           0.512  -0.356  -0.895  0.00  0.00     0.033 H 
ATOM      6  H8  <0> d           0.529  -0.365   0.885  0.00  0.00     0.033 H 
BRANCH   4   7
ATOM      7  C2  <0> d          -0.019   1.526   0.010  0.00  0.00    -0.068 C 
ATOM      8  H5  <0> d          -0.546   1.887  -0.873  0.00  0.00     0.032 H 
ATOM      9  H6  <0> d          -0.529   1.877   0.907  0.00  0.00     0.032 H 
BRANCH   7  10
ATOM     10  C1  <0> d           1.417   2.055  -0.000  0.00  0.00    -0.077 C 
ATOM     11  H2  <0> d           1.944   1.694   0.883  0.00  0.00     0.027 H 
ATOM     12  H3  <0> d           1.927   1.704  -0.897  0.00  0.00     0.027 H 
ATOM     13  H4  <0> d           1.402   3.145   0.006  0.00  0.00     0.027 H 
ENDBRANCH   7  10
ENDBRANCH   4   7
ENDBRANCH   1   4
BRANCH   1  14
ATOM     14  C5  <0> d          -1.413  -2.063   0.004  0.00  0.00     0.048 C 
ATOM     15  H1  <0> d          -0.798  -2.429  -0.819  0.00  0.00     0.084 H 
ATOM     16  O2  <0> d          -0.911  -2.571   1.278  0.00  0.00    -0.316 OA
ATOM     17  C8  <0> d          -1.462  -3.778   1.501  0.00  0.00     0.259 C 
ATOM     18  C7  <0> d          -2.860  -3.773   0.915  0.00  0.00     0.018 C 
ATOM     19  O1  <0> d          -0.935  -4.704   2.070  0.00  0.00    -0.265 OA
ATOM     20  C6  <0> d          -2.848  -2.619  -0.111  0.00  0.00    -0.032 C 
ATOM     21  H13 <0> d          -3.598  -3.582   1.694  0.00  0.00     0.048 H 
ATOM     22  H14 <0> d          -3.067  -4.721   0.419  0.00  0.00     0.048 H 
ATOM     23  H11 <0> d          -3.579  -1.856   0.159  0.00  0.00     0.037 H 
ATOM     24  H12 <0> d          -3.036  -2.995  -1.117  0.00  0.00     0.037 H 
ENDBRANCH   1  14
TORSDOF 4
