REMARK  1 active torsions:
REMARK  status: ('A' for Active; 'I' for Inactive)
REMARK    1  A    between atoms: C2_2  and  C3_3 
ROOT
ATOM      1  C1  <0> d           0.018  -1.178  -0.004  0.00  0.00    -0.149 C 
ATOM      2  C2  <0> d           0.002  -0.004   0.002  0.00  0.00    -0.078 C 
ATOM      3  H1  <0> d           0.032  -2.228  -0.010  0.00  0.00     0.166 H 
ENDROOT
BRANCH   2   4
ATOM      4  C3  <0> d          -0.017   1.428   0.010  0.00  0.00     0.022 A 
ATOM      5  C8  <0> d           1.180   2.144   0.002  0.00  0.00    -0.024 A 
ATOM      6  C7  <0> d           1.157   3.525   0.003  0.00  0.00     0.159 A 
ATOM      7  H3  <0> d           2.124   1.619  -0.009  0.00  0.00     0.090 H 
ATOM      8  C6  <0> d          -0.055   4.200   0.025  0.00  0.00     0.193 A 
ATOM      9  F1  <0> d           2.315   4.220  -0.011  0.00  0.00    -0.203 F 
ATOM     10  C5  <0> d          -1.248   3.493   0.038  0.00  0.00     0.159 A 
ATOM     11  F2  <0> d          -0.073   5.551   0.032  0.00  0.00    -0.200 F 
ATOM     12  C4  <0> d          -1.234   2.111   0.031  0.00  0.00    -0.024 A 
ATOM     13  F3  <0> d          -2.425   4.155   0.059  0.00  0.00    -0.203 F 
ATOM     14  H2  <0> d          -2.163   1.561   0.041  0.00  0.00     0.090 H 
ENDBRANCH   2   4
TORSDOF 1
