REMARK  1 active torsions:
REMARK  status: ('A' for Active; 'I' for Inactive)
REMARK    1  A    between atoms: N3_5  and  N4_6 
ROOT
ATOM      1  N4  <0> d          -2.451   1.444   0.021  0.00  0.00    -0.271 N 
ATOM      2  C3  <0> d          -2.756   0.089   0.009  0.00  0.00    -0.002 C 
ATOM      3  C4  <0> d          -3.957  -0.325  -0.325  0.00  0.00    -0.083 C 
ATOM      4  C5  <0> d          -5.040   0.635  -0.725  0.00  0.00    -0.032 C 
ATOM      5  C6  <0> d          -4.700   2.037  -0.309  0.00  0.00    -0.083 C 
ATOM      6  C7  <0> d          -3.476   2.381   0.030  0.00  0.00    -0.002 C 
ATOM      7  H3  <0> d          -1.999  -0.632   0.282  0.00  0.00     0.114 H 
ATOM      8  H4  <0> d          -4.170  -1.384  -0.317  0.00  0.00     0.079 H 
ATOM      9  H5  <0> d          -5.974   0.338  -0.249  0.00  0.00     0.044 H 
ATOM     10  H6  <0> d          -5.165   0.603  -1.807  0.00  0.00     0.044 H 
ATOM     11  H7  <0> d          -5.480   2.783  -0.289  0.00  0.00     0.079 H 
ATOM     12  H8  <0> d          -3.267   3.400   0.318  0.00  0.00     0.114 H 
ENDROOT
BRANCH   1  13
ATOM     13  N3  <0> d          -1.115   1.864   0.017  0.00  0.00    -0.234 N 
ATOM     14  C1  <0> d          -0.013   1.076   0.008  0.00  0.00     0.109 A 
ATOM     15  N1  <0> d           1.028   1.864   0.002  0.00  0.00    -0.142 NA
ATOM     16  H1  <0> d           0.002  -0.004   0.002  0.00  0.00     0.149 H 
ATOM     17  N2  <0> d           0.642   3.090   0.012  0.00  0.00    -0.142 NA
ATOM     18  C2  <0> d          -0.662   3.141   0.024  0.00  0.00     0.109 A 
ATOM     19  H2  <0> d          -1.268   4.035   0.033  0.00  0.00     0.149 H 
ENDBRANCH   1  13
TORSDOF 1
