REMARK  4 active torsions:
REMARK  status: ('A' for Active; 'I' for Inactive)
REMARK    1  A    between atoms: C1_1  and  C2_2 
REMARK    2  A    between atoms: C2_2  and  C3_3 
REMARK    3  A    between atoms: C2_2  and  C4_4 
REMARK    4  A    between atoms: C2_2  and  N1_8 
ROOT
ATOM      1  C2  <0> d           0.002  -0.004   0.002  0.00  0.00     0.244 C 
ENDROOT
BRANCH   1   2
ATOM      2  C1  <0> d          -0.019   1.526   0.010  0.00  0.00    -0.035 C 
ATOM      3  H1  <0> d           1.004   1.903   0.003  0.00  0.00     0.031 H 
ATOM      4  H2  <0> d          -0.546   1.887  -0.873  0.00  0.00     0.031 H 
ATOM      5  H3  <0> d          -0.529   1.877   0.907  0.00  0.00     0.031 H 
ENDBRANCH   1   2
BRANCH   1   6
ATOM      6  C3  <0> d           0.742  -0.511   1.242  0.00  0.00    -0.035 C 
ATOM      7  H4  <0> d           0.232  -0.159   2.138  0.00  0.00     0.031 H 
ATOM      8  H5  <0> d           0.757  -1.601   1.236  0.00  0.00     0.031 H 
ATOM      9  H6  <0> d           1.765  -0.134   1.234  0.00  0.00     0.031 H 
ENDBRANCH   1   6
BRANCH   1  10
ATOM     10  C4  <0> d          -1.433  -0.534   0.013  0.00  0.00     0.421 C 
ATOM     11  F1  <0> d          -2.110  -0.070  -1.121  0.00  0.00    -0.168 F 
ATOM     12  F2  <0> d          -1.414  -1.933   0.005  0.00  0.00    -0.168 F 
ATOM     13  F3  <0> d          -2.088  -0.083   1.164  0.00  0.00    -0.168 F 
ENDBRANCH   1  10
BRANCH   1  14
ATOM     14  N1  <0> d           0.690  -0.478  -1.207  0.00  0.00     0.096 N 
ATOM     15  H7  <0> d           0.220  -0.156  -2.039  0.00  0.00     0.314 HD
ATOM     16  H8  <0> d           1.658  -0.195  -1.206  0.00  0.00     0.314 HD
ENDBRANCH   1  14
TORSDOF 4
