REMARK  1 active torsions:
REMARK  status: ('A' for Active; 'I' for Inactive)
REMARK    1  A    between atoms: C2_2  and  C3_3 
ROOT
ATOM      1  C1  <0> d           0.018  -1.178  -0.004  0.00  0.00    -0.149 C 
ATOM      2  C2  <0> d           0.002  -0.004   0.002  0.00  0.00    -0.078 C 
ATOM      3  H1  <0> d           0.032  -2.228  -0.010  0.00  0.00     0.166 H 
ENDROOT
BRANCH   2   4
ATOM      4  C3  <0> d          -0.017   1.428   0.010  0.00  0.00     0.018 A 
ATOM      5  C8  <0> d           1.180   2.144   0.002  0.00  0.00    -0.041 A 
ATOM      6  C7  <0> d           1.155   3.524   0.005  0.00  0.00     0.073 A 
ATOM      7  H4  <0> d           2.124   1.620  -0.010  0.00  0.00     0.088 H 
ATOM      8  C6  <0> d          -0.056   4.198   0.026  0.00  0.00     0.138 A 
ATOM      9 Cl1  <0> d           2.644   4.418  -0.011  0.00  0.00    -0.081 Cl
ATOM     10  C5  <0> d          -1.248   3.490   0.039  0.00  0.00    -0.043 A 
ATOM     11  F1  <0> d          -0.076   5.549   0.034  0.00  0.00    -0.204 F 
ATOM     12  C4  <0> d          -1.234   2.111   0.031  0.00  0.00    -0.062 A 
ATOM     13  H3  <0> d          -2.189   4.020   0.055  0.00  0.00     0.088 H 
ATOM     14  H2  <0> d          -2.163   1.561   0.041  0.00  0.00     0.085 H 
ENDBRANCH   2   4
TORSDOF 1
