REMARK  8 active torsions:
REMARK  status: ('A' for Active; 'I' for Inactive)
REMARK    1  A    between atoms: C1_1  and  C2_2 
REMARK    2  A    between atoms: C2_2  and  O1_3 
REMARK    3  A    between atoms: O1_3  and  C3_4 
REMARK    4  A    between atoms: C3_4  and  C4_6 
REMARK    5  A    between atoms: C3_4  and  O4_11 
REMARK    6  A    between atoms: C4_6  and  O3_8 
REMARK    7  A    between atoms: O3_8  and  C5_9 
REMARK    8  A    between atoms: C5_9  and  C6_10 
ROOT
ATOM      1  C3  <0> d          -0.068   1.127   2.404  0.00  0.00     0.213 C 
ATOM      2  H1  <0> d           0.980   1.428   2.407  0.00  0.00     0.145 H 
ENDROOT
BRANCH   1   3
ATOM      3  O1  <0> d          -0.682   1.547   1.184  0.00  0.00    -0.353 OA
BRANCH   3   4
ATOM      4  C2  <0> d          -0.013   1.086   0.008  0.00  0.00     0.020 C 
ATOM      5  H5  <0> d           0.002  -0.004   0.002  0.00  0.00     0.073 H 
ATOM      6  H6  <0> d           1.010   1.463   0.000  0.00  0.00     0.073 H 
BRANCH   4   7
ATOM      7  C1  <0> d          -0.753   1.593  -1.232  0.00  0.00    -0.056 C 
ATOM      8  H2  <0> d          -0.767   2.683  -1.226  0.00  0.00     0.030 H 
ATOM      9  H3  <0> d          -0.242   1.241  -2.128  0.00  0.00     0.030 H 
ATOM     10  H4  <0> d          -1.775   1.215  -1.224  0.00  0.00     0.030 H 
ENDBRANCH   4   7
ENDBRANCH   3   4
ENDBRANCH   1   3
BRANCH   1  11
ATOM     11  C4  <0> d          -0.778   1.766   3.569  0.00  0.00     0.314 C 
ATOM     12  O2  <0> d          -1.376   2.805   3.417  0.00  0.00    -0.260 OA
BRANCH  11  13
ATOM     13  O3  <0> d          -0.746   1.181   4.777  0.00  0.00    -0.318 OA
BRANCH  13  14
ATOM     14  C5  <0> d          -1.452   1.853   5.854  0.00  0.00     0.026 C 
ATOM     15  H7  <0> d          -1.031   2.848   5.998  0.00  0.00     0.074 H 
ATOM     16  H8  <0> d          -2.508   1.939   5.598  0.00  0.00     0.074 H 
BRANCH  14  17
ATOM     17  C6  <0> d          -1.304   1.044   7.144  0.00  0.00    -0.056 C 
ATOM     18  H9  <0> d          -1.834   1.549   7.952  0.00  0.00     0.030 H 
ATOM     19  H10 <0> d          -1.725   0.049   6.999  0.00  0.00     0.030 H 
ATOM     20  H11 <0> d          -0.248   0.959   7.400  0.00  0.00     0.030 H 
ENDBRANCH  14  17
ENDBRANCH  13  14
ENDBRANCH  11  13
ENDBRANCH   1  11
BRANCH   1  21
ATOM     21  O4  <0> d          -0.154  -0.295   2.516  0.00  0.00    -0.363 OA
ATOM     22  H12 <0> d          -1.059  -0.635   2.520  0.00  0.00     0.213 HD
ENDBRANCH   1  21
TORSDOF 8
