REMARK  1 active torsions:
REMARK  status: ('A' for Active; 'I' for Inactive)
REMARK    1  A    between atoms: C4_5  and  C6_8 
ROOT
ATOM      1  C1  <0> d           1.172   2.068   0.002  0.00  0.00    -0.039 A 
ATOM      2  C2  <0> d           1.105   3.450   0.009  0.00  0.00    -0.024 A 
ATOM      3  C3  <0> d          -0.137   4.073   0.024  0.00  0.00     0.210 A 
ATOM      4  N1  <0> d          -1.247   3.367   0.031  0.00  0.00    -0.210 NA
ATOM      5  C4  <0> d          -1.228   2.038   0.019  0.00  0.00     0.174 A 
ATOM      6  C5  <0> d          -0.016   1.347   0.009  0.00  0.00     0.152 A 
ATOM      7  F1  <0> d           0.002  -0.004   0.002  0.00  0.00    -0.203 F 
ATOM      8  F2  <0> d          -0.205   5.422   0.031  0.00  0.00    -0.184 F 
ATOM      9  H1  <0> d           2.126   1.561  -0.010  0.00  0.00     0.088 H 
ATOM     10  H2  <0> d           2.011   4.039   0.004  0.00  0.00     0.090 H 
ENDROOT
BRANCH   5  11
ATOM     11  C6  <0> d          -2.502   1.286   0.021  0.00  0.00     0.232 C 
ATOM     12  O1  <0> d          -2.490   0.072   0.015  0.00  0.00    -0.643 OA
ATOM     13  O2  <0> d          -3.675   1.948   0.030  0.00  0.00    -0.643 OA
ENDBRANCH   5  11
TORSDOF 1
