REMARK  5 active torsions:
REMARK  status: ('A' for Active; 'I' for Inactive)
REMARK    1  A    between atoms: C1_1  and  C2_2 
REMARK    2  A    between atoms: C1_1  and  O3_8 
REMARK    3  A    between atoms: C2_2  and  O1_3 
REMARK    4  A    between atoms: O1_3  and  C3_4 
REMARK    5  A    between atoms: C3_4  and  C4_5 
REMARK       I    between atoms: C4_5  and  N1_7 
ROOT
ATOM      1  O1  <0> d           0.546   3.500   1.237  0.00  0.00    -0.380 OA
ENDROOT
BRANCH   1   2
ATOM      2  C2  <0> d           1.145   3.085   0.008  0.00  0.00     0.040 C 
ATOM      3  H3  <0> d           2.130   3.542  -0.089  0.00  0.00     0.077 H 
ATOM      4  H4  <0> d           0.516   3.397  -0.827  0.00  0.00     0.077 H 
BRANCH   2   5
ATOM      5  C1  <0> d           1.286   1.562  -0.002  0.00  0.00     0.036 C 
ATOM      6  H1  <0> d           1.840   1.243   0.881  0.00  0.00     0.077 H 
ATOM      7  H2  <0> d           1.823   1.252  -0.899  0.00  0.00     0.077 H 
BRANCH   5   8
ATOM      8  O3  <0> d          -0.011   0.963   0.007  0.00  0.00    -0.399 OA
ATOM      9  H9  <0> d           0.002  -0.004   0.002  0.00  0.00     0.209 HD
ENDBRANCH   5   8
ENDBRANCH   2   5
ENDBRANCH   1   2
BRANCH   1  10
ATOM     10  C3  <0> d           0.367   4.914   1.348  0.00  0.00     0.093 C 
ATOM     11  H5  <0> d           1.336   5.409   1.280  0.00  0.00     0.089 H 
ATOM     12  H6  <0> d          -0.277   5.263   0.542  0.00  0.00     0.089 H 
BRANCH  10  13
ATOM     13  C4  <0> d          -0.269   5.237   2.676  0.00  0.00     0.239 C 
ATOM     14  O2  <0> d          -0.542   4.344   3.450  0.00  0.00    -0.271 OA
ATOM     15  N1  <0> d          -0.533   6.517   3.003  0.00  0.00    -0.368 N 
ATOM     16  H7  <0> d          -0.314   7.231   2.383  0.00  0.00     0.159 HD
ATOM     17  H8  <0> d          -0.943   6.725   3.857  0.00  0.00     0.159 HD
ENDBRANCH  10  13
ENDBRANCH   1  10
TORSDOF 5
