REMARK  4 active torsions:
REMARK  status: ('A' for Active; 'I' for Inactive)
REMARK    1  A    between atoms: C4_4  and  N1_10 
REMARK    2  A    between atoms: C5_5  and  C7_7 
REMARK    3  A    between atoms: C7_7  and  C8_8 
REMARK    4  A    between atoms: C8_8  and  O1_9 
ROOT
ATOM      1  C1  <0> d           0.258  -0.541   4.231  0.00  0.00    -0.082 A 
ATOM      2  C2  <0> d           1.338   0.162   4.732  0.00  0.00    -0.081 A 
ATOM      3  C3  <0> d           1.753   1.325   4.114  0.00  0.00    -0.057 A 
ATOM      4  C4  <0> d           1.084   1.789   2.988  0.00  0.00     0.032 A 
ATOM      5  C5  <0> d           0.000   1.080   2.488  0.00  0.00    -0.030 A 
ATOM      6  C6  <0> d          -0.413  -0.080   3.114  0.00  0.00    -0.075 A 
ATOM      7  H1  <0> d          -0.065  -1.450   4.716  0.00  0.00     0.083 H 
ATOM      8  H2  <0> d           1.857  -0.199   5.608  0.00  0.00     0.083 H 
ATOM      9  H3  <0> d           2.597   1.874   4.506  0.00  0.00     0.086 H 
ATOM     10  H4  <0> d          -1.259  -0.629   2.727  0.00  0.00     0.084 H 
ENDROOT
BRANCH   5  11
ATOM     11  C7  <0> d          -0.729   1.579   1.267  0.00  0.00    -0.019 C 
ATOM     12  H5  <0> d          -0.744   2.669   1.273  0.00  0.00     0.043 H 
ATOM     13  H6  <0> d          -1.751   1.202   1.275  0.00  0.00     0.043 H 
BRANCH  11  14
ATOM     14  C8  <0> d          -0.013   1.086   0.008  0.00  0.00     0.020 C 
ATOM     15  H7  <0> d           0.002  -0.004   0.002  0.00  0.00     0.074 H 
ATOM     16  H8  <0> d           1.010   1.463   0.000  0.00  0.00     0.074 H 
BRANCH  14  17
ATOM     17  O1  <0> d          -0.704   1.559  -1.150  0.00  0.00    -0.401 OA
ATOM     18  H9  <0> d          -0.304   1.284  -1.986  0.00  0.00     0.209 HD
ENDBRANCH  14  17
ENDBRANCH  11  14
ENDBRANCH   5  11
BRANCH   4  19
ATOM     19  N1  <0> d           1.501   2.965   2.361  0.00  0.00    -0.399 N 
ATOM     20  H10 <0> d           1.033   3.288   1.575  0.00  0.00     0.156 HD
ATOM     21  H11 <0> d           2.259   3.460   2.712  0.00  0.00     0.156 HD
ENDBRANCH   4  19
TORSDOF 4
