REMARK  3 active torsions:
REMARK  status: ('A' for Active; 'I' for Inactive)
REMARK    1  A    between atoms: C1_1  and  O1_2 
REMARK    2  A    between atoms: O1_2  and  C2_3 
REMARK    3  A    between atoms: C2_3  and  C3_5 
ROOT
ATOM      1  C3  <0> d          -1.548   2.844  -0.678  0.00  0.00     0.037 C 
ATOM      2  H1  <0> d          -0.896   3.717  -0.640  0.00  0.00     0.056 H 
ATOM      3  C4  <0> d          -0.784   1.609  -1.221  0.00  0.00    -0.047 C 
ATOM      4  C5  <0> d          -0.013   1.086   0.008  0.00  0.00    -0.009 C 
ATOM      5  C6  <0> d          -0.747   1.587   1.234  0.00  0.00     0.127 C 
ATOM      6  O3  <0> d          -0.439   1.386   2.385  0.00  0.00    -0.298 OA
ATOM      7  C7  <0> d          -1.943   2.388   0.748  0.00  0.00     0.002 C 
ATOM      8  H5  <0> d          -0.093   1.903  -2.011  0.00  0.00     0.034 H 
ATOM      9  H6  <0> d          -1.481   0.855  -1.586  0.00  0.00     0.034 H 
ATOM     10  H7  <0> d           0.009   0.086  -0.013  0.00  0.00     0.044 H 
ATOM     11  H8  <0> d           1.007   1.472   0.000  0.00  0.00     0.044 H 
ATOM     12  H9  <0> d          -2.120   3.191   1.317  0.00  0.00     0.045 H 
ATOM     13  H10 <0> d          -2.835   1.762   0.715  0.00  0.00     0.045 H 
ENDROOT
BRANCH   1  14
ATOM     14  C2  <0> d          -2.773   3.125  -1.510  0.00  0.00     0.263 C 
ATOM     15  O2  <0> d          -3.036   2.420  -2.455  0.00  0.00    -0.265 OA
BRANCH  14  16
ATOM     16  O1  <0> d          -3.572   4.158  -1.200  0.00  0.00    -0.326 OA
BRANCH  16  17
ATOM     17  C1  <0> d          -4.734   4.369  -2.045  0.00  0.00     0.013 C 
ATOM     18  H2  <0> d          -4.411   4.545  -3.071  0.00  0.00     0.067 H 
ATOM     19  H3  <0> d          -5.372   3.486  -2.012  0.00  0.00     0.067 H 
ATOM     20  H4  <0> d          -5.292   5.234  -1.686  0.00  0.00     0.067 H 
ENDBRANCH  16  17
ENDBRANCH  14  16
ENDBRANCH   1  14
TORSDOF 3
