REMARK  6 active torsions:
REMARK  status: ('A' for Active; 'I' for Inactive)
REMARK    1  A    between atoms: C1_1  and  C2_2 
REMARK    2  A    between atoms: C2_2  and  C3_3 
REMARK    3  A    between atoms: C3_3  and  C4_5 
REMARK    4  A    between atoms: C3_3  and  O2_8 
REMARK       I    between atoms: C4_5  and  N1_7 
REMARK    5  A    between atoms: O2_8  and  C5_9 
REMARK    6  A    between atoms: C5_9  and  C6_10 
ROOT
ATOM      1  C3  <0> d          -0.801   1.423   1.302  0.00  0.00     0.114 C 
ATOM      2  H1  <0> d          -1.782   1.048   0.974  0.00  0.00     0.098 H 
ENDROOT
BRANCH   1   3
ATOM      3  C2  <0> d           0.285   1.152   0.260  0.00  0.00    -0.036 C 
ATOM      4  H5  <0> d           0.467   0.069   0.192  0.00  0.00     0.036 H 
ATOM      5  H6  <0> d           1.214   1.661   0.557  0.00  0.00     0.036 H 
BRANCH   3   6
ATOM      6  C1  <0> d          -0.171   1.678  -1.103  0.00  0.00    -0.074 C 
ATOM      7  H2  <0> d           0.610   1.483  -1.852  0.00  0.00     0.027 H 
ATOM      8  H3  <0> d          -0.353   2.761  -1.035  0.00  0.00     0.027 H 
ATOM      9  H4  <0> d          -1.100   1.168  -1.400  0.00  0.00     0.027 H 
ENDBRANCH   3   6
ENDBRANCH   1   3
BRANCH   1  10
ATOM     10  C4  <0> d          -0.408   0.793   2.613  0.00  0.00     0.244 C 
ATOM     11  O1  <0> d          -0.182   1.492   3.578  0.00  0.00    -0.271 OA
ATOM     12  N1  <0> d          -0.308  -0.547   2.714  0.00  0.00    -0.368 N 
ATOM     13  H7  <0> d          -0.021  -1.007   3.671  0.00  0.00     0.159 HD
ATOM     14  H8  <0> d          -0.513  -1.181   1.839  0.00  0.00     0.159 HD
ENDBRANCH   1  10
BRANCH   1  15
ATOM     15  O2  <0> d          -0.952   2.833   1.477  0.00  0.00    -0.377 OA
BRANCH  15  16
ATOM     16  C5  <0> d          -2.186   3.353   0.978  0.00  0.00     0.017 C 
ATOM     17  H9  <0> d          -2.225   3.220  -0.114  0.00  0.00     0.073 H 
ATOM     18  H10 <0> d          -3.025   2.815   1.443  0.00  0.00     0.073 H 
BRANCH  16  19
ATOM     19  C6  <0> d          -2.286   4.842   1.314  0.00  0.00    -0.056 C 
ATOM     20  H11 <0> d          -3.236   5.242   0.929  0.00  0.00     0.030 H 
ATOM     21  H12 <0> d          -1.447   5.380   0.848  0.00  0.00     0.030 H 
ATOM     22  H13 <0> d          -2.247   4.975   2.405  0.00  0.00     0.030 H 
ENDBRANCH  16  19
ENDBRANCH  15  16
ENDBRANCH   1  15
TORSDOF 6
