REMARK  2 active torsions:
REMARK  status: ('A' for Active; 'I' for Inactive)
REMARK    1  A    between atoms: C1_1  and  N1_2 
REMARK    2  A    between atoms: N1_2  and  C2_3 
ROOT
ATOM      1  C2  <0> d           1.713  -0.270  -0.016  0.00  0.00     0.090 A 
ATOM      2  C3  <0> d           2.235   1.018  -0.014  0.00  0.00     0.078 A 
ATOM      3  C4  <0> d           1.282   2.104   0.001  0.00  0.00    -0.054 A 
ATOM      4  C5  <0> d          -0.022   1.776   0.012  0.00  0.00    -0.041 A 
ATOM      5  S1  <0> d           0.002  -0.004   0.002  0.00  0.00    -0.083 SA
ATOM      6  C6  <0> d           3.646   1.258  -0.026  0.00  0.00     0.102 C 
ATOM      7  N2  <0> d           4.766   1.447  -0.036  0.00  0.00    -0.191 NA
ATOM      8  H5  <0> d           1.604   3.135   0.003  0.00  0.00     0.086 H 
ATOM      9  H6  <0> d          -0.878   2.435   0.020  0.00  0.00     0.095 H 
ENDROOT
BRANCH   1  10
ATOM     10  N1  <0> d           2.396  -1.474  -0.029  0.00  0.00    -0.387 N 
ATOM     11  H4  <0> d           3.366  -1.481  -0.039  0.00  0.00     0.159 HD
BRANCH  10  12
ATOM     12  C1  <0> d           1.653  -2.737  -0.029  0.00  0.00    -0.020 C 
ATOM     13  H1  <0> d           1.018  -2.785  -0.913  0.00  0.00     0.056 H 
ATOM     14  H2  <0> d           2.355  -3.571  -0.040  0.00  0.00     0.056 H 
ATOM     15  H3  <0> d           1.035  -2.795   0.867  0.00  0.00     0.056 H 
ENDBRANCH  10  12
ENDBRANCH   1  10
TORSDOF 2
