REMARK  3 active torsions:
REMARK  status: ('A' for Active; 'I' for Inactive)
REMARK    1  A    between atoms: C2_2  and  C3_3 
REMARK    2  A    between atoms: C3_3  and  O1_4 
REMARK    3  A    between atoms: O1_4  and  C4_5 
ROOT
ATOM      1  C1  <0> d          -4.723  -1.424   0.018  0.00  0.00    -0.152 C 
ATOM      2  C2  <0> d          -3.645  -0.958   0.015  0.00  0.00    -0.091 C 
ATOM      3  H1  <0> d          -5.732  -1.860   0.021  0.00  0.00     0.166 H 
ENDROOT
BRANCH   2   4
ATOM      4  C3  <0> d          -2.294  -0.373   0.012  0.00  0.00     0.080 C 
ATOM      5  H2  <0> d          -1.747  -0.708   0.905  0.00  0.00     0.094 H 
ATOM      6  H3  <0> d          -1.756  -0.699  -0.891  0.00  0.00     0.094 H 
BRANCH   4   7
ATOM      7  O1  <0> d          -2.392   1.053   0.020  0.00  0.00    -0.340 OA
BRANCH   7   8
ATOM      8  C4  <0> d          -1.226   1.751   0.017  0.00  0.00     0.071 A 
ATOM      9  C9  <0> d          -1.249   3.135   0.030  0.00  0.00    -0.031 A 
ATOM     10  C8  <0> d          -0.049   3.849   0.022  0.00  0.00     0.047 A 
ATOM     11  H7  <0> d          -2.192   3.662   0.041  0.00  0.00     0.090 H 
ATOM     12  C7  <0> d           1.166   3.161   0.007  0.00  0.00    -0.063 A 
ATOM     13  C10 <0> d          -0.064   5.280   0.028  0.00  0.00     0.099 C 
ATOM     14  C6  <0> d           1.177   1.781   0.000  0.00  0.00    -0.079 A 
ATOM     15  H6  <0> d           2.097   3.708   0.000  0.00  0.00     0.085 H 
ATOM     16  C5  <0> d          -0.013   1.076   0.008  0.00  0.00    -0.051 A 
ATOM     17  H5  <0> d           2.117   1.250  -0.011  0.00  0.00     0.083 H 
ATOM     18  H4  <0> d           0.002  -0.004   0.002  0.00  0.00     0.087 H 
ATOM     19  N1  <0> d          -0.076   6.416   0.033  0.00  0.00    -0.191 NA
ENDBRANCH   7   8
ENDBRANCH   4   7
ENDBRANCH   2   4
TORSDOF 3
