REMARK  1 active torsions:
REMARK  status: ('A' for Active; 'I' for Inactive)
REMARK    1  A    between atoms: C2_2  and  C3_3 
ROOT
ATOM      1  C1  <0> d           0.018  -1.178  -0.004  0.00  0.00    -0.149 C 
ATOM      2  C2  <0> d           0.002  -0.004   0.002  0.00  0.00    -0.076 C 
ATOM      3  H1  <0> d           0.032  -2.228  -0.010  0.00  0.00     0.166 H 
ENDROOT
BRANCH   2   4
ATOM      4  C3  <0> d          -0.017   1.428   0.010  0.00  0.00     0.041 A 
ATOM      5  C6  <0> d          -1.113   2.234   0.019  0.00  0.00     0.036 A 
ATOM      6  O1  <0> d          -0.700   3.510   0.027  0.00  0.00    -0.333 OA
ATOM      7  H4  <0> d          -2.141   1.903   0.021  0.00  0.00     0.125 H 
ATOM      8  C5  <0> d           0.640   3.576   0.015  0.00  0.00     0.020 A 
ATOM      9  C4  <0> d           1.141   2.330   0.004  0.00  0.00    -0.042 A 
ATOM     10  H3  <0> d           1.222   4.486   0.014  0.00  0.00     0.123 H 
ATOM     11  H2  <0> d           2.184   2.049  -0.007  0.00  0.00     0.088 H 
ENDBRANCH   2   4
TORSDOF 1
