REMARK  3 active torsions:
REMARK  status: ('A' for Active; 'I' for Inactive)
REMARK    1  A    between atoms: C1_1  and  C2_2 
REMARK    2  A    between atoms: C2_2  and  O1_3 
REMARK    3  A    between atoms: O1_3  and  C3_4 
ROOT
ATOM      1  C3  <0> d           0.034   3.798   0.022  0.00  0.00     0.186 A 
ATOM      2  C4  <0> d          -1.193   3.145   0.030  0.00  0.00     0.086 A 
ATOM      3  C5  <0> d          -1.220   1.761   0.017  0.00  0.00    -0.056 A 
ATOM      4  C6  <0> d          -0.013   1.076   0.008  0.00  0.00    -0.064 A 
ATOM      5  C7  <0> d           1.169   1.789   0.001  0.00  0.00     0.005 A 
ATOM      6  N1  <0> d           1.163   3.109   0.008  0.00  0.00    -0.236 NA
ATOM      7 Cl1  <0> d          -2.673   4.054   0.050  0.00  0.00    -0.080 Cl
ATOM      8  H6  <0> d          -2.158   1.226   0.018  0.00  0.00     0.086 H 
ATOM      9  H7  <0> d           0.002  -0.004   0.002  0.00  0.00     0.085 H 
ATOM     10  H8  <0> d           2.111   1.261  -0.012  0.00  0.00     0.114 H 
ENDROOT
BRANCH   1  11
ATOM     11  O1  <0> d           0.074   5.154   0.029  0.00  0.00    -0.334 OA
BRANCH  11  12
ATOM     12  C2  <0> d           1.366   5.765   0.019  0.00  0.00     0.024 C 
ATOM     13  H4  <0> d           1.923   5.451   0.902  0.00  0.00     0.074 H 
ATOM     14  H5  <0> d           1.906   5.460  -0.878  0.00  0.00     0.074 H 
BRANCH  12  15
ATOM     15  C1  <0> d           1.211   7.287   0.028  0.00  0.00    -0.056 C 
ATOM     16  H1  <0> d           2.196   7.753   0.021  0.00  0.00     0.030 H 
ATOM     17  H2  <0> d           0.654   7.601  -0.855  0.00  0.00     0.030 H 
ATOM     18  H3  <0> d           0.672   7.592   0.925  0.00  0.00     0.030 H 
ENDBRANCH  12  15
ENDBRANCH  11  12
ENDBRANCH   1  11
TORSDOF 3
