REMARK  3 active torsions:
REMARK  status: ('A' for Active; 'I' for Inactive)
REMARK    1  A    between atoms: C4_4  and  C7_7 
REMARK    2  A    between atoms: C7_7  and  C8_9 
REMARK    3  A    between atoms: C8_9  and  O1_10 
ROOT
ATOM      1  C7  <0> d          -0.729   1.579   1.267  0.00  0.00     0.076 C 
ATOM      2  H1  <0> d          -1.776   1.277   1.232  0.00  0.00     0.073 H 
ATOM      3  C9  <0> d          -0.644   3.047   1.336  0.00  0.00     0.070 C 
ATOM      4  N1  <0> d          -0.579   4.180   1.389  0.00  0.00    -0.196 NA
ENDROOT
BRANCH   1   5
ATOM      5  C4  <0> d          -0.074   0.981   2.485  0.00  0.00    -0.038 A 
ATOM      6  C3  <0> d          -0.809   0.185   3.344  0.00  0.00    -0.075 A 
ATOM      7  C2  <0> d          -0.208  -0.364   4.462  0.00  0.00    -0.082 A 
ATOM      8  H4  <0> d          -1.852  -0.006   3.143  0.00  0.00     0.084 H 
ATOM      9  C1  <0> d           1.128  -0.118   4.719  0.00  0.00    -0.083 A 
ATOM     10  H3  <0> d          -0.782  -0.984   5.133  0.00  0.00     0.083 H 
ATOM     11  C6  <0> d           1.863   0.676   3.859  0.00  0.00    -0.082 A 
ATOM     12  H2  <0> d           1.597  -0.547   5.592  0.00  0.00     0.083 H 
ATOM     13  C5  <0> d           1.263   1.222   2.739  0.00  0.00    -0.075 A 
ATOM     14  H6  <0> d           2.907   0.868   4.060  0.00  0.00     0.083 H 
ATOM     15  H5  <0> d           1.839   1.839   2.065  0.00  0.00     0.084 H 
ENDBRANCH   1   5
BRANCH   1  16
ATOM     16  C8  <0> d          -0.013   1.086   0.008  0.00  0.00     0.035 C 
ATOM     17  H7  <0> d           0.002  -0.004   0.002  0.00  0.00     0.076 H 
ATOM     18  H8  <0> d           1.010   1.463   0.000  0.00  0.00     0.076 H 
BRANCH  16  19
ATOM     19  O1  <0> d          -0.704   1.559  -1.150  0.00  0.00    -0.399 OA
ATOM     20  H9  <0> d          -0.304   1.284  -1.986  0.00  0.00     0.209 HD
ENDBRANCH  16  19
ENDBRANCH   1  16
TORSDOF 3
