REMARK  1 active torsions:
REMARK  status: ('A' for Active; 'I' for Inactive)
REMARK    1  A    between atoms: C6_8  and  O1_12 
ROOT
ATOM      1  C1  <0> d           1.076   1.861   0.002  0.00  0.00    -0.056 A 
ATOM      2  C2  <0> d          -0.013   1.076   0.008  0.00  0.00    -0.022 A 
ATOM      3  N1  <0> d          -1.144   1.846   0.017  0.00  0.00    -0.365 N 
ATOM      4  H1  <0> d          -2.135   1.369   0.016  0.00  0.00     0.165 HD
ATOM      5  C3  <0> d          -0.801   3.182   0.027  0.00  0.00     0.045 A 
ATOM      6  C4  <0> d           0.604   3.248   0.014  0.00  0.00    -0.005 A 
ATOM      7  C5  <0> d           1.245   4.489   0.014  0.00  0.00    -0.036 A 
ATOM      8  C6  <0> d           0.492   5.646   0.027  0.00  0.00     0.105 A 
ATOM      9  C7  <0> d          -0.900   5.578   0.039  0.00  0.00     0.151 A 
ATOM     10  C8  <0> d          -1.543   4.358   0.039  0.00  0.00    -0.016 A 
ATOM     11  F1  <0> d          -1.627   6.717   0.052  0.00  0.00    -0.203 F 
ATOM     12  H2  <0> d           2.105   1.533  -0.010  0.00  0.00     0.086 H 
ATOM     13  H3  <0> d           0.002  -0.004   0.002  0.00  0.00     0.111 H 
ATOM     14  H4  <0> d           2.323   4.544   0.004  0.00  0.00     0.089 H 
ATOM     15  H5  <0> d          -2.622   4.316   0.049  0.00  0.00     0.091 H 
ENDROOT
BRANCH   8  16
ATOM     16  O1  <0> d           1.111   6.857   0.027  0.00  0.00    -0.358 OA
ATOM     17  H6  <0> d           0.513   7.781   0.037  0.00  0.00     0.217 HD
ENDBRANCH   8  16
TORSDOF 1
