REMARK  1 active torsions:
REMARK  status: ('A' for Active; 'I' for Inactive)
REMARK    1  A    between atoms: C1_1  and  C2_2 
ROOT
ATOM      1  C2  <0> d           0.002  -0.004   0.002  0.00  0.00    -0.060 A 
ATOM      2  C3  <0> d           0.006  -0.685  -1.202  0.00  0.00    -0.077 A 
ATOM      3  C4  <0> d           0.024  -2.069  -1.210  0.00  0.00    -0.074 A 
ATOM      4  C5  <0> d           0.039  -2.762  -0.020  0.00  0.00    -0.023 A 
ATOM      5  C6  <0> d           0.036  -2.090   1.195  0.00  0.00     0.042 A 
ATOM      6  C7  <0> d           0.023  -0.696   1.195  0.00  0.00    -0.051 A 
ATOM      7  N1  <0> d           0.053  -3.002   2.251  0.00  0.00    -0.326 N 
ATOM      8  C8  <0> d           0.069  -4.275   1.823  0.00  0.00     0.226 A 
ATOM      9  O1  <0> d           0.086  -5.269   2.518  0.00  0.00    -0.273 OA
ATOM     10  C9  <0> d           0.061  -4.237   0.310  0.00  0.00     0.035 A 
ATOM     11  H4  <0> d          -0.006  -0.138  -2.133  0.00  0.00     0.084 H 
ATOM     12  H5  <0> d           0.027  -2.604  -2.148  0.00  0.00     0.084 H 
ATOM     13  H6  <0> d           0.024  -0.157   2.131  0.00  0.00     0.087 H 
ATOM     14  H7  <0> d           0.055  -2.746   3.187  0.00  0.00     0.169 HD
ATOM     15  H8  <0> d          -0.830  -4.729  -0.080  0.00  0.00     0.054 H 
ATOM     16  H9  <0> d           0.962  -4.704  -0.089  0.00  0.00     0.054 H 
ENDROOT
BRANCH   1  17
ATOM     17  C1  <0> d          -0.018   1.503   0.010  0.00  0.00    -0.051 C 
ATOM     18  H1  <0> d           1.004   1.880   0.003  0.00  0.00     0.033 H 
ATOM     19  H2  <0> d          -0.545   1.864  -0.873  0.00  0.00     0.033 H 
ATOM     20  H3  <0> d          -0.529   1.854   0.907  0.00  0.00     0.033 H 
ENDBRANCH   1  17
TORSDOF 1
