REMARK  2 active torsions:
REMARK  status: ('A' for Active; 'I' for Inactive)
REMARK    1  A    between atoms: C3_4  and  C4_6 
REMARK    2  A    between atoms: C4_6  and  O2_7 
ROOT
ATOM      1  C1  <0> d          -0.103   1.071   2.579  0.00  0.00    -0.019 C 
ATOM      2  C2  <0> d          -0.293   2.510   3.095  0.00  0.00     0.022 C 
ATOM      3  O1  <0> d          -0.309   2.888   1.702  0.00  0.00    -0.384 OA
ATOM      4  C3  <0> d          -0.729   1.579   1.267  0.00  0.00     0.060 C 
ATOM      5  H1  <0> d          -1.811   1.457   1.218  0.00  0.00     0.086 H 
ATOM      6  H2  <0> d          -0.713   0.332   3.100  0.00  0.00     0.040 H 
ATOM      7  H3  <0> d           0.941   0.772   2.483  0.00  0.00     0.040 H 
ATOM      8  H4  <0> d          -1.242   2.674   3.606  0.00  0.00     0.074 H 
ATOM      9  H5  <0> d           0.562   2.896   3.651  0.00  0.00     0.074 H 
ENDROOT
BRANCH   4  10
ATOM     10  C4  <0> d          -0.013   1.086   0.008  0.00  0.00     0.041 C 
ATOM     11  H6  <0> d           0.002  -0.004   0.002  0.00  0.00     0.077 H 
ATOM     12  H7  <0> d           1.010   1.463   0.000  0.00  0.00     0.077 H 
BRANCH  10  13
ATOM     13  O2  <0> d          -0.704   1.559  -1.150  0.00  0.00    -0.398 OA
ATOM     14  H8  <0> d          -0.304   1.284  -1.986  0.00  0.00     0.209 HD
ENDBRANCH  10  13
ENDBRANCH   4  10
TORSDOF 2
