REMARK  1 active torsions:
REMARK  status: ('A' for Active; 'I' for Inactive)
REMARK    1  A    between atoms: C1_1  and  C2_2 
ROOT
ATOM      1  C2  <0> d           0.002  -0.004   0.002  0.00  0.00    -0.087 C 
ATOM      2  C3  <0> d           0.005  -0.605  -1.145  0.00  0.00    -0.101 C 
ATOM      3  C4  <0> d           0.013  -2.096  -1.313  0.00  0.00    -0.050 C 
ATOM      4  C5  <0> d           0.442  -2.771  -0.008  0.00  0.00    -0.062 C 
ATOM      5  C6  <0> d          -0.386  -2.179   1.139  0.00  0.00    -0.061 C 
ATOM      6  C7  <0> d           0.024  -0.715   1.324  0.00  0.00    -0.045 C 
ATOM      7  H4  <0> d          -0.000   0.005  -2.036  0.00  0.00     0.077 H 
ATOM      8  H5  <0> d          -0.987  -2.435  -1.583  0.00  0.00     0.038 H 
ATOM      9  H6  <0> d           0.711  -2.366  -2.105  0.00  0.00     0.038 H 
ATOM     10  H7  <0> d           0.263  -3.844  -0.074  0.00  0.00     0.033 H 
ATOM     11  H8  <0> d           1.501  -2.584   0.170  0.00  0.00     0.033 H 
ATOM     12  H9  <0> d          -1.446  -2.238   0.894  0.00  0.00     0.033 H 
ATOM     13  H10 <0> d          -0.188  -2.732   2.058  0.00  0.00     0.033 H 
ATOM     14  H11 <0> d           1.029  -0.667   1.742  0.00  0.00     0.039 H 
ATOM     15  H12 <0> d          -0.673  -0.229   2.007  0.00  0.00     0.039 H 
ENDROOT
BRANCH   1  16
ATOM     16  C1  <0> d          -0.018   1.503   0.010  0.00  0.00    -0.055 C 
ATOM     17  H1  <0> d           1.004   1.880   0.003  0.00  0.00     0.033 H 
ATOM     18  H2  <0> d          -0.545   1.864  -0.873  0.00  0.00     0.033 H 
ATOM     19  H3  <0> d          -0.529   1.854   0.907  0.00  0.00     0.033 H 
ENDBRANCH   1  16
TORSDOF 1
