REMARK  2 active torsions:
REMARK  status: ('A' for Active; 'I' for Inactive)
REMARK    1  A    between atoms: C1_1  and  N4_7 
REMARK    2  A    between atoms: C2_4  and  N3_6 
ROOT
ATOM      1  C1  <0> d           1.118   2.043   0.002  0.00  0.00     0.189 A 
ATOM      2  N1  <0> d          -0.017   1.371   0.010  0.00  0.00    -0.122 NA
ATOM      3  N2  <0> d           0.002  -0.004   0.002  0.00  0.00    -0.122 NA
ATOM      4  C2  <0> d           1.155  -0.645  -0.012  0.00  0.00     0.189 A 
ATOM      5  S1  <0> d           2.313   0.715  -0.016  0.00  0.00    -0.012 SA
ENDROOT
BRANCH   1   6
ATOM      6  N4  <0> d           1.328   3.417   0.008  0.00  0.00    -0.377 N 
ATOM      7  H3  <0> d           0.470   4.105   0.020  0.00  0.00     0.158 HD
ATOM      8  H4  <0> d           2.353   3.817  -0.000  0.00  0.00     0.158 HD
ENDBRANCH   1   6
BRANCH   4   9
ATOM      9  N3  <0> d           1.402  -2.012  -0.022  0.00  0.00    -0.377 N 
ATOM     10  H1  <0> d           2.437  -2.384  -0.034  0.00  0.00     0.158 HD
ATOM     11  H2  <0> d           0.562  -2.723  -0.019  0.00  0.00     0.158 HD
ENDBRANCH   4   9
TORSDOF 2
