REMARK  4 active torsions:
REMARK  status: ('A' for Active; 'I' for Inactive)
REMARK    1  A    between atoms: C1_1  and  C2_2 
REMARK    2  A    between atoms: C2_2  and  C3_3 
REMARK    3  A    between atoms: C3_3  and  N1_4 
REMARK    4  A    between atoms: C7_8  and  O2_11 
ROOT
ATOM      1  N1  <0> d          -0.020   1.094   2.454  0.00  0.00    -0.322 N 
ATOM      2  C4  <0> d           0.974   1.845   2.997  0.00  0.00    -0.017 A 
ATOM      3  C5  <0> d           1.644   1.420   4.092  0.00  0.00    -0.065 A 
ATOM      4  C6  <0> d           1.316   0.190   4.681  0.00  0.00    -0.044 A 
ATOM      5  C7  <0> d           0.317  -0.566   4.136  0.00  0.00     0.134 A 
ATOM      6  C8  <0> d          -0.365  -0.089   2.997  0.00  0.00     0.280 A 
ATOM      7  O1  <0> d          -1.263  -0.750   2.502  0.00  0.00    -0.265 OA
ATOM      8  H8  <0> d           1.232   2.793   2.548  0.00  0.00     0.111 H 
ATOM      9  H9  <0> d           2.432   2.027   4.513  0.00  0.00     0.085 H 
ATOM     10  H10 <0> d           1.847  -0.155   5.556  0.00  0.00     0.088 H 
ENDROOT
BRANCH   1  11
ATOM     11  C3  <0> d          -0.729   1.579   1.267  0.00  0.00     0.002 C 
ATOM     12  H6  <0> d          -0.744   2.679   1.273  0.00  0.00     0.065 H 
ATOM     13  H7  <0> d          -1.761   1.198   1.275  0.00  0.00     0.065 H 
BRANCH  11  14
ATOM     14  C2  <0> d          -0.013   1.086   0.008  0.00  0.00    -0.053 C 
ATOM     15  H4  <0> d           0.002  -0.014   0.002  0.00  0.00     0.034 H 
ATOM     16  H5  <0> d           1.019   1.466   0.000  0.00  0.00     0.034 H 
BRANCH  14  17
ATOM     17  C1  <0> d          -0.753   1.593  -1.232  0.00  0.00    -0.075 C 
ATOM     18  H1  <0> d          -0.238   1.238  -2.136  0.00  0.00     0.027 H 
ATOM     19  H2  <0> d          -0.768   2.693  -1.225  0.00  0.00     0.027 H 
ATOM     20  H3  <0> d          -1.785   1.212  -1.224  0.00  0.00     0.027 H 
ENDBRANCH  14  17
ENDBRANCH  11  14
ENDBRANCH   1  11
BRANCH   5  21
ATOM     21  O2  <0> d          -0.020  -1.762   4.689  0.00  0.00    -0.356 OA
ATOM     22  H11 <0> d          -0.826  -2.366   4.245  0.00  0.00     0.218 HD
ENDBRANCH   5  21
TORSDOF 4
