REMARK  2 active torsions:
REMARK  status: ('A' for Active; 'I' for Inactive)
REMARK    1  A    between atoms: C1_1  and  O3_10 
REMARK    2  A    between atoms: C3_4  and  N3_8 
ROOT
ATOM      1  C1  <0> d           1.226   1.534  -0.001  0.00  0.00     0.177 A 
ATOM      2  C2  <0> d           1.882   1.832   1.190  0.00  0.00     0.231 A 
ATOM      3  N1  <0> d           3.091   2.383   1.142  0.00  0.00    -0.163 N 
ATOM      4  C3  <0> d           3.664   2.659  -0.019  0.00  0.00     0.702 A 
ATOM      5  N2  <0> d           3.068   2.396  -1.171  0.00  0.00    -0.034 NA
ATOM      6  C4  <0> d           1.862   1.839  -1.202  0.00  0.00     0.256 A 
ATOM      7  O1  <0> d           1.258   1.573  -2.387  0.00  0.00    -0.166 OA
ATOM      8  O2  <0> d           1.299   1.557   2.384  0.00  0.00    -0.168 OA
ATOM      9  H4  <0> d           3.627   2.615   2.074  0.00  0.00     0.186 HD
ENDROOT
BRANCH   4  10
ATOM     10  N3  <0> d           4.923   3.240  -0.028  0.00  0.00    -0.233 N 
ATOM     11  H1  <0> d           5.413   3.476  -0.984  0.00  0.00     0.174 HD
ATOM     12  H2  <0> d           5.432   3.466   0.921  0.00  0.00     0.174 HD
ENDBRANCH   4  10
BRANCH   1  13
ATOM     13  O3  <0> d          -0.011   0.963   0.007  0.00  0.00    -0.353 OA
ATOM     14  H3  <0> d          -0.501   0.727   0.963  0.00  0.00     0.218 HD
ENDBRANCH   1  13
TORSDOF 2
