REMARK  4 active torsions:
REMARK  status: ('A' for Active; 'I' for Inactive)
REMARK    1  A    between atoms: C2_2  and  C3_3 
REMARK    2  A    between atoms: C3_3  and  S1_4 
REMARK    3  A    between atoms: S1_4  and  C4_5 
REMARK    4  A    between atoms: C5_7  and  N4_11 
ROOT
ATOM      1  C4  <0> d           0.002  -0.004   0.002  0.00  0.00     0.226 A 
ATOM      2  N1  <0> d          -1.076  -0.796   0.013  0.00  0.00    -0.035 NA
ATOM      3  C5  <0> d          -0.699  -2.057  -0.002  0.00  0.00     0.716 A 
ATOM      4  N2  <0> d           0.650  -2.088  -0.015  0.00  0.00    -0.105 N 
ATOM      5  H1  <0> d           1.212  -2.879  -0.023  0.00  0.00     0.208 HD
ATOM      6  N3  <0> d           1.079  -0.752  -0.012  0.00  0.00    -0.132 NA
ENDROOT
BRANCH   1   7
ATOM      7  S1  <0> d          -0.022   1.758   0.012  0.00  0.00    -0.084 SA
BRANCH   7   8
ATOM      8  C3  <0> d           1.732   2.220  -0.003  0.00  0.00    -0.002 C 
ATOM      9  H5  <0> d           2.223   1.812   0.881  0.00  0.00     0.055 H 
ATOM     10  H6  <0> d           2.206   1.821  -0.899  0.00  0.00     0.055 H 
BRANCH   8  11
ATOM     11  C2  <0> d           1.855   3.722   0.004  0.00  0.00    -0.103 C 
ATOM     12  C1  <0> d           2.397   4.330   1.031  0.00  0.00    -0.124 C 
ATOM     13  H2  <0> d           2.755   3.755   1.872  0.00  0.00     0.066 H 
ATOM     14  H3  <0> d           2.485   5.407   1.036  0.00  0.00     0.066 H 
ATOM     15  H4  <0> d           1.498   4.298  -0.837  0.00  0.00     0.076 H 
ENDBRANCH   8  11
ENDBRANCH   7   8
ENDBRANCH   1   7
BRANCH   3  16
ATOM     16  N4  <0> d          -1.537  -3.157   0.000  0.00  0.00    -0.231 N 
ATOM     17  H7  <0> d          -1.164  -4.052  -0.008  0.00  0.00     0.174 HD
ATOM     18  H8  <0> d          -2.499  -3.033   0.010  0.00  0.00     0.174 HD
ENDBRANCH   3  16
TORSDOF 4
