REMARK  1 active torsions:
REMARK  status: ('A' for Active; 'I' for Inactive)
REMARK    1  A    between atoms: C2_2  and  O2_9 
ROOT
ATOM      1  C1  <0> d          -0.132   3.674   0.023  0.00  0.00     0.041 A 
ATOM      2  C2  <0> d           1.092   3.071   0.008  0.00  0.00     0.152 A 
ATOM      3  C3  <0> d           1.149   1.657  -0.000  0.00  0.00     0.281 A 
ATOM      4  O1  <0> d           2.221   1.076  -0.013  0.00  0.00    -0.265 OA
ATOM      5  N1  <0> d          -0.011   0.966   0.007  0.00  0.00    -0.316 N 
ATOM      6  H1  <0> d           0.004  -0.134   0.006  0.00  0.00     0.170 HD
ATOM      7  C4  <0> d          -1.188   1.625   0.017  0.00  0.00     0.066 A 
ATOM      8  N2  <0> d          -1.241   2.929   0.030  0.00  0.00    -0.253 NA
ATOM      9  H2  <0> d          -0.204   4.752   0.030  0.00  0.00     0.119 H 
ATOM     10  H3  <0> d          -2.108   1.060   0.017  0.00  0.00     0.143 H 
ENDROOT
BRANCH   2  11
ATOM     11  O2  <0> d           2.233   3.813   0.001  0.00  0.00    -0.355 OA
ATOM     12  H4  <0> d           3.213   3.314  -0.011  0.00  0.00     0.218 HD
ENDBRANCH   2  11
TORSDOF 1
