REMARK  0 active torsions:
REMARK  status: ('A' for Active; 'I' for Inactive)
ROOT
ATOM      1  C1  <0> d          -2.991   4.045   0.050  0.00  0.00    -0.079 A 
ATOM      2  C2  <0> d          -1.639   4.307   0.039  0.00  0.00    -0.056 A 
ATOM      3  C3  <0> d          -0.729   3.256   0.026  0.00  0.00     0.044 A 
ATOM      4  C4  <0> d          -1.202   1.931   0.018  0.00  0.00     0.014 A 
ATOM      5  C5  <0> d          -0.013   1.076   0.008  0.00  0.00    -0.054 A 
ATOM      6  C6  <0> d           1.055   1.889   0.002  0.00  0.00    -0.022 A 
ATOM      7  N1  <0> d           0.647   3.195   0.013  0.00  0.00    -0.365 N 
ATOM      8  H1  <0> d           1.239   3.964   0.011  0.00  0.00     0.165 HD
ATOM      9  C7  <0> d          -2.576   1.682   0.035  0.00  0.00     0.046 A 
ATOM     10  C8  <0> d          -3.460   2.739   0.048  0.00  0.00    -0.061 A 
ATOM     11 Cl1  <0> d          -3.167   0.050   0.033  0.00  0.00    -0.083 Cl
ATOM     12  H2  <0> d          -3.695   4.865   0.060  0.00  0.00     0.083 H 
ATOM     13  H3  <0> d          -1.286   5.328   0.041  0.00  0.00     0.086 H 
ATOM     14  H4  <0> d           0.002  -0.004   0.002  0.00  0.00     0.087 H 
ATOM     15  H5  <0> d           2.084   1.561  -0.009  0.00  0.00     0.111 H 
ATOM     16  H6  <0> d          -4.523   2.549   0.057  0.00  0.00     0.086 H 
ENDROOT
TORSDOF 0
