REMARK  0 active torsions:
REMARK  status: ('A' for Active; 'I' for Inactive)
ROOT
ATOM      1  C1  <0> d           0.002  -0.004   0.002  0.00  0.00    -0.053 A 
ATOM      2  C2  <0> d           1.237  -0.660  -0.018  0.00  0.00     0.062 A 
ATOM      3  C3  <0> d           2.401   0.110  -0.031  0.00  0.00     0.022 A 
ATOM      4  N1  <0> d           2.330   1.421  -0.021  0.00  0.00    -0.263 NA
ATOM      5  C4  <0> d           1.176   2.076   0.002  0.00  0.00     0.040 A 
ATOM      6  C5  <0> d          -0.017   1.385   0.010  0.00  0.00    -0.032 A 
ATOM      7  C6  <0> d          -1.357   2.070   0.019  0.00  0.00    -0.039 C 
ATOM      8  C7  <0> d          -1.212   3.526   0.458  0.00  0.00    -0.061 C 
ATOM      9  C8  <0> d          -0.111   4.178  -0.387  0.00  0.00    -0.060 C 
ATOM     10  C9  <0> d           1.232   3.582   0.027  0.00  0.00    -0.024 C 
ATOM     11  C10 <0> d           1.305  -2.091  -0.027  0.00  0.00     0.101 C 
ATOM     12  N2  <0> d           1.359  -3.225  -0.034  0.00  0.00    -0.191 NA
ATOM     13  H1  <0> d          -0.920  -0.567   0.011  0.00  0.00     0.086 H 
ATOM     14  H2  <0> d           3.366  -0.376  -0.049  0.00  0.00     0.117 H 
ATOM     15  H3  <0> d          -1.784   2.037  -0.984  0.00  0.00     0.040 H 
ATOM     16  H4  <0> d          -2.022   1.550   0.709  0.00  0.00     0.040 H 
ATOM     17  H5  <0> d          -0.939   3.566   1.512  0.00  0.00     0.033 H 
ATOM     18  H6  <0> d          -2.154   4.052   0.302  0.00  0.00     0.033 H 
ATOM     19  H7  <0> d          -0.105   5.253  -0.213  0.00  0.00     0.033 H 
ATOM     20  H8  <0> d          -0.290   3.978  -1.444  0.00  0.00     0.033 H 
ATOM     21  H9  <0> d           1.477   3.916   1.036  0.00  0.00     0.042 H 
ATOM     22  H10 <0> d           2.005   3.925  -0.661  0.00  0.00     0.042 H 
ENDROOT
TORSDOF 0
