REMARK  4 active torsions:
REMARK  status: ('A' for Active; 'I' for Inactive)
REMARK    1  A    between atoms: C1_1  and  N1_2 
REMARK    2  A    between atoms: N1_2  and  C2_3 
REMARK    3  A    between atoms: N1_2  and  S1_4 
REMARK    4  A    between atoms: S1_4  and  N2_7 
ROOT
ATOM      1  N1  <0> d          -0.872   1.871   1.353  0.00  0.00    -0.303 N 
ENDROOT
BRANCH   1   2
ATOM      2  C1  <0> d          -1.846   0.952   1.947  0.00  0.00    -0.008 C 
ATOM      3  H1  <0> d          -1.351   0.332   2.695  0.00  0.00     0.057 H 
ATOM      4  H2  <0> d          -2.644   1.524   2.420  0.00  0.00     0.057 H 
ATOM      5  H3  <0> d          -2.267   0.316   1.169  0.00  0.00     0.057 H 
ENDBRANCH   1   2
BRANCH   1   6
ATOM      6  C2  <0> d          -0.654   3.192   1.948  0.00  0.00    -0.008 C 
ATOM      7  H4  <0> d          -0.887   3.964   1.214  0.00  0.00     0.057 H 
ATOM      8  H5  <0> d          -1.301   3.310   2.817  0.00  0.00     0.057 H 
ATOM      9  H6  <0> d           0.388   3.285   2.255  0.00  0.00     0.057 H 
ENDBRANCH   1   6
BRANCH   1  10
ATOM     10  S1  <0> d          -0.017   1.417   0.010  0.00  0.00     0.314 S 
ATOM     11  O1  <0> d           0.002  -0.004   0.002  0.00  0.00    -0.183 OA
ATOM     12  O2  <0> d           1.172   2.195   0.003  0.00  0.00    -0.183 OA
BRANCH  10  13
ATOM     13  N2  <0> d          -0.897   1.885  -1.312  0.00  0.00    -0.311 N 
ATOM     14  H7  <0> d          -1.747   2.338  -1.194  0.00  0.00     0.170 HD
ATOM     15  H8  <0> d          -0.563   1.708  -2.205  0.00  0.00     0.170 HD
ENDBRANCH  10  13
ENDBRANCH   1  10
TORSDOF 4
