REMARK  4 active torsions:
REMARK  status: ('A' for Active; 'I' for Inactive)
REMARK    1  A    between atoms: C1_1  and  C2_2 
REMARK    2  A    between atoms: C2_2  and  C3_3 
REMARK    3  A    between atoms: C6_6  and  O1_9 
REMARK    4  A    between atoms: O1_9  and  C9_10 
ROOT
ATOM      1  C3  <0> d           0.731  -0.503   1.223  0.00  0.00    -0.058 A 
ATOM      2  C4  <0> d           2.097  -0.709   1.175  0.00  0.00    -0.074 A 
ATOM      3  C5  <0> d           2.768  -1.167   2.292  0.00  0.00    -0.050 A 
ATOM      4  C6  <0> d           2.069  -1.420   3.464  0.00  0.00     0.068 A 
ATOM      5  C7  <0> d           0.698  -1.212   3.510  0.00  0.00    -0.050 A 
ATOM      6  C8  <0> d           0.033  -0.749   2.391  0.00  0.00    -0.074 A 
ATOM      7  H6  <0> d           2.641  -0.512   0.263  0.00  0.00     0.084 H 
ATOM      8  H7  <0> d           3.835  -1.329   2.254  0.00  0.00     0.087 H 
ATOM      9  H8  <0> d           0.152  -1.409   4.420  0.00  0.00     0.087 H 
ATOM     10  H9  <0> d          -1.034  -0.583   2.427  0.00  0.00     0.084 H 
ENDROOT
BRANCH   1  11
ATOM     11  C2  <0> d           0.002  -0.004   0.002  0.00  0.00    -0.044 C 
ATOM     12  H4  <0> d          -1.020  -0.381   0.010  0.00  0.00     0.039 H 
ATOM     13  H5  <0> d           0.512  -0.356  -0.895  0.00  0.00     0.039 H 
BRANCH  11  14
ATOM     14  C1  <0> d          -0.019   1.526   0.010  0.00  0.00    -0.073 C 
ATOM     15  H1  <0> d           1.004   1.903   0.003  0.00  0.00     0.028 H 
ATOM     16  H2  <0> d          -0.546   1.887  -0.873  0.00  0.00     0.028 H 
ATOM     17  H3  <0> d          -0.529   1.877   0.907  0.00  0.00     0.028 H 
ENDBRANCH  11  14
ENDBRANCH   1  11
BRANCH   4  18
ATOM     18  O1  <0> d           2.726  -1.871   4.565  0.00  0.00    -0.356 OA
BRANCH  18  19
ATOM     19  C9  <0> d           1.942  -2.110   5.736  0.00  0.00     0.010 C 
ATOM     20  H10 <0> d           1.457  -1.184   6.043  0.00  0.00     0.066 H 
ATOM     21  H11 <0> d           1.185  -2.863   5.518  0.00  0.00     0.066 H 
ATOM     22  H12 <0> d           2.588  -2.466   6.538  0.00  0.00     0.066 H 
ENDBRANCH  18  19
ENDBRANCH   4  18
TORSDOF 4
