REMARK  3 active torsions:
REMARK  status: ('A' for Active; 'I' for Inactive)
REMARK    1  A    between atoms: C1_1  and  C2_2 
REMARK    2  A    between atoms: C4_4  and  C6_10 
REMARK       I    between atoms: N1_5  and  C5_7 
REMARK    3  A    between atoms: C5_7  and  O2_9 
ROOT
ATOM      1  C2  <0> d          -2.640   3.516   0.033  0.00  0.00     0.053 A 
ATOM      2  C3  <0> d          -3.336   2.300   0.031  0.00  0.00    -0.034 A 
ATOM      3  C4  <0> d          -2.429   1.300   0.015  0.00  0.00     0.040 A 
ATOM      4  N1  <0> d          -1.191   1.868   0.018  0.00  0.00    -0.182 N 
ATOM      5  N2  <0> d          -1.359   3.259   0.026  0.00  0.00    -0.168 NA
ATOM      6  C5  <0> d          -0.014   1.210   0.009  0.00  0.00     0.278 C 
ATOM      7  O1  <0> d           0.002  -0.004   0.002  0.00  0.00    -0.630 OA
ATOM      8  H4  <0> d          -4.410   2.183   0.035  0.00  0.00     0.089 H 
ENDROOT
BRANCH   1   9
ATOM      9  C1  <0> d          -3.263   4.888   0.043  0.00  0.00    -0.034 C 
ATOM     10  H1  <0> d          -3.418   5.224  -0.982  0.00  0.00     0.035 H 
ATOM     11  H2  <0> d          -4.221   4.849   0.561  0.00  0.00     0.035 H 
ATOM     12  H3  <0> d          -2.600   5.585   0.557  0.00  0.00     0.035 H 
ENDBRANCH   1   9
BRANCH   3  13
ATOM     13  C6  <0> d          -2.731  -0.177   0.001  0.00  0.00    -0.035 C 
ATOM     14  H6  <0> d          -2.801  -0.543   1.025  0.00  0.00     0.035 H 
ATOM     15  H7  <0> d          -3.677  -0.349  -0.512  0.00  0.00     0.035 H 
ATOM     16  H8  <0> d          -1.933  -0.706  -0.520  0.00  0.00     0.035 H 
ENDBRANCH   3  13
BRANCH   6  17
ATOM     17  O2  <0> d           1.141   1.898   0.001  0.00  0.00    -0.758 OA
ATOM     18  H5  <0> d           1.960   1.383  -0.009  0.00  0.00     0.169 HD
ENDBRANCH   6  17
TORSDOF 3
