REMARK  3 active torsions:
REMARK  status: ('A' for Active; 'I' for Inactive)
REMARK    1  A    between atoms: C2_2  and  C3_3 
REMARK    2  A    between atoms: C3_3  and  O1_4 
REMARK    3  A    between atoms: O1_4  and  C4_5 
ROOT
ATOM      1  C1  <0> d           5.765   4.601  -0.030  0.00  0.00    -0.152 C 
ATOM      2  C2  <0> d           4.688   4.133  -0.022  0.00  0.00    -0.091 C 
ATOM      3  H1  <0> d           6.774   5.038  -0.038  0.00  0.00     0.166 H 
ENDROOT
BRANCH   2   4
ATOM      4  C3  <0> d           3.338   3.547  -0.011  0.00  0.00     0.081 C 
ATOM      5  H2  <0> d           2.804   3.873   0.894  0.00  0.00     0.094 H 
ATOM      6  H3  <0> d           2.786   3.882  -0.902  0.00  0.00     0.094 H 
BRANCH   4   7
ATOM      7  O1  <0> d           3.437   2.122  -0.020  0.00  0.00    -0.320 OA
BRANCH   7   8
ATOM      8  C4  <0> d           2.275   1.425  -0.012  0.00  0.00     0.205 A 
ATOM      9  N2  <0> d           1.115   2.064   0.003  0.00  0.00    -0.233 NA
ATOM     10  C7  <0> d          -0.017   1.382   0.010  0.00  0.00     0.022 A 
ATOM     11  C6  <0> d           0.002  -0.004   0.002  0.00  0.00     0.021 A 
ATOM     12  H5  <0> d          -0.961   1.906   0.017  0.00  0.00     0.117 H 
ATOM     13  N1  <0> d           1.149  -0.654  -0.013  0.00  0.00    -0.244 NA
ATOM     14  H4  <0> d          -0.927  -0.554   0.008  0.00  0.00     0.117 H 
ATOM     15  C5  <0> d           2.296   0.021  -0.020  0.00  0.00     0.189 A 
ATOM     16  C8  <0> d           3.544  -0.680  -0.035  0.00  0.00     0.124 C 
ATOM     17  N3  <0> d           4.534  -1.237  -0.047  0.00  0.00    -0.190 NA
ENDBRANCH   7   8
ENDBRANCH   4   7
ENDBRANCH   2   4
TORSDOF 3
