REMARK  4 active torsions:
REMARK  status: ('A' for Active; 'I' for Inactive)
REMARK    1  A    between atoms: C1_1  and  C2_2 
REMARK    2  A    between atoms: C4_4  and  C6_8 
REMARK    3  A    between atoms: N1_5  and  C5_7 
REMARK    4  A    between atoms: C6_8  and  O1_9 
ROOT
ATOM      1  C2  <0> d          -1.030   2.233   3.276  0.00  0.00     0.053 A 
ATOM      2  C3  <0> d          -2.252   2.222   2.596  0.00  0.00    -0.032 A 
ATOM      3  C4  <0> d          -2.019   1.810   1.328  0.00  0.00     0.055 A 
ATOM      4  N1  <0> d          -0.698   1.558   1.213  0.00  0.00    -0.276 N 
ATOM      5  N2  <0> d          -0.098   1.835   2.448  0.00  0.00    -0.178 NA
ATOM      6  H4  <0> d          -3.211   2.499   3.008  0.00  0.00     0.089 H 
ENDROOT
BRANCH   3   7
ATOM      7  C6  <0> d          -3.051   1.654   0.241  0.00  0.00     0.056 C 
ATOM      8  H8  <0> d          -2.796   2.302  -0.597  0.00  0.00     0.083 H 
ATOM      9  H9  <0> d          -3.072   0.618  -0.094  0.00  0.00     0.083 H 
BRANCH   7  10
ATOM     10  O1  <0> d          -4.337   2.017   0.749  0.00  0.00    -0.395 OA
ATOM     11  H10 <0> d          -5.051   1.941   0.102  0.00  0.00     0.209 HD
ENDBRANCH   7  10
ENDBRANCH   3   7
BRANCH   4  12
ATOM     12  C5  <0> d          -0.013   1.086   0.008  0.00  0.00     0.003 C 
ATOM     13  H5  <0> d           0.002  -0.004   0.002  0.00  0.00     0.059 H 
ATOM     14  H6  <0> d           1.010   1.463   0.000  0.00  0.00     0.059 H 
ATOM     15  H7  <0> d          -0.540   1.447  -0.875  0.00  0.00     0.059 H 
ENDBRANCH   4  12
BRANCH   1  16
ATOM     16  C1  <0> d          -0.822   2.633   4.714  0.00  0.00    -0.034 C 
ATOM     17  H1  <0> d          -0.617   3.702   4.768  0.00  0.00     0.035 H 
ATOM     18  H2  <0> d          -1.721   2.405   5.288  0.00  0.00     0.035 H 
ATOM     19  H3  <0> d           0.022   2.080   5.127  0.00  0.00     0.035 H 
ENDBRANCH   1  16
TORSDOF 4
