REMARK  1 active torsions:
REMARK  status: ('A' for Active; 'I' for Inactive)
REMARK    1  A    between atoms: C6_7  and  O2_8 
ROOT
ATOM      1  C1  <0> d           1.223   3.019   1.141  0.00  0.00    -0.035 C 
ATOM      2  C2  <0> d           1.274   1.997   0.001  0.00  0.00    -0.007 C 
ATOM      3  C3  <0> d          -0.014   1.203   0.009  0.00  0.00     0.127 C 
ATOM      4  O1  <0> d           0.002  -0.004   0.002  0.00  0.00    -0.298 OA
ATOM      5  C4  <0> d          -1.323   1.961   0.019  0.00  0.00    -0.007 C 
ATOM      6  C5  <0> d          -1.280   2.985   1.164  0.00  0.00    -0.035 C 
ATOM      7  C6  <0> d          -0.041   3.869   1.006  0.00  0.00     0.036 C 
ATOM      8  H1  <0> d           1.210   2.497   2.097  0.00  0.00     0.037 H 
ATOM      9  H2  <0> d           2.101   3.663   1.091  0.00  0.00     0.037 H 
ATOM     10  H3  <0> d           2.054   1.386   0.135  0.00  0.00     0.044 H 
ATOM     11  H4  <0> d           1.378   2.516  -0.952  0.00  0.00     0.044 H 
ATOM     12  H5  <0> d          -1.445   2.428  -0.857  0.00  0.00     0.044 H 
ATOM     13  H6  <0> d          -2.148   1.266   0.179  0.00  0.00     0.044 H 
ATOM     14  H7  <0> d          -1.234   2.463   2.120  0.00  0.00     0.037 H 
ATOM     15  H8  <0> d          -2.175   3.605   1.131  0.00  0.00     0.037 H 
ATOM     16  H9  <0> d          -0.057   4.342   0.024  0.00  0.00     0.082 H 
ENDROOT
BRANCH   7  17
ATOM     17  O2  <0> d          -0.046   4.878   2.018  0.00  0.00    -0.396 OA
ATOM     18  H10 <0> d          -0.820   5.456   1.993  0.00  0.00     0.210 HD
ENDBRANCH   7  17
TORSDOF 1
