REMARK  3 active torsions:
REMARK  status: ('A' for Active; 'I' for Inactive)
REMARK    1  A    between atoms: C1_1  and  C2_2 
REMARK    2  A    between atoms: C2_2  and  C3_4 
REMARK    3  A    between atoms: C7_8  and  N1_10 
ROOT
ATOM      1  C3  <0> d          -1.298   1.926   0.019  0.00  0.00     0.012 A 
ATOM      2  C4  <0> d          -1.319   3.325   0.032  0.00  0.00    -0.067 A 
ATOM      3  C5  <0> d          -2.524   3.996   0.035  0.00  0.00    -0.043 A 
ATOM      4  C6  <0> d          -3.715   3.289   0.037  0.00  0.00     0.142 A 
ATOM      5  C7  <0> d          -3.704   1.896   0.030  0.00  0.00     0.065 A 
ATOM      6  C8  <0> d          -2.501   1.213   0.021  0.00  0.00    -0.041 A 
ATOM      7  F1  <0> d          -4.892   3.953   0.045  0.00  0.00    -0.204 F 
ATOM      8  H4  <0> d          -0.393   3.880   0.035  0.00  0.00     0.085 H 
ATOM      9  H5  <0> d          -2.539   5.075   0.041  0.00  0.00     0.088 H 
ATOM     10  H6  <0> d          -2.490   0.133   0.015  0.00  0.00     0.088 H 
ENDROOT
BRANCH   1  11
ATOM     11  C2  <0> d          -0.014   1.208   0.009  0.00  0.00     0.155 C 
ATOM     12  O1  <0> d           0.002  -0.004   0.002  0.00  0.00    -0.293 OA
BRANCH  11  13
ATOM     13  C1  <0> d           1.280   1.980   0.001  0.00  0.00    -0.017 C 
ATOM     14  H1  <0> d           1.065   3.058   0.008  0.00  0.00     0.038 H 
ATOM     15  H2  <0> d           1.852   1.727  -0.904  0.00  0.00     0.038 H 
ATOM     16  H3  <0> d           1.869   1.717   0.892  0.00  0.00     0.038 H 
ENDBRANCH  11  13
ENDBRANCH   1  11
BRANCH   5  17
ATOM     17  N1  <0> d          -4.910   1.187   0.032  0.00  0.00    -0.397 N 
ATOM     18  H7  <0> d          -4.902   0.087   0.026  0.00  0.00     0.156 HD
ATOM     19  H8  <0> d          -5.867   1.730   0.039  0.00  0.00     0.156 HD
ENDBRANCH   5  17
TORSDOF 3
