REMARK  7 active torsions:
REMARK  status: ('A' for Active; 'I' for Inactive)
REMARK    1  A    between atoms: C1_1  and  C2_2 
REMARK    2  A    between atoms: C2_2  and  C3_4 
REMARK    3  A    between atoms: C2_2  and  O2_9 
REMARK    4  A    between atoms: C3_4  and  C4_5 
REMARK    5  A    between atoms: C4_5  and  C5_6 
REMARK    6  A    between atoms: C4_5  and  C6_7 
REMARK    7  A    between atoms: C4_5  and  O1_8 
ROOT
ATOM      1  C3  <0> d           1.335   1.451  -0.035  0.00  0.00    -0.014 C 
ATOM      2  H5  <0> d           1.047   2.483   0.165  0.00  0.00     0.041 H 
ATOM      3  H6  <0> d           0.441   0.846  -0.182  0.00  0.00     0.041 H 
ENDROOT
BRANCH   1   4
ATOM      4  C2  <0> d           2.200   1.398  -1.296  0.00  0.00     0.035 C 
ATOM      5  H1  <0> d           3.144   1.911  -1.111  0.00  0.00     0.082 H 
BRANCH   4   6
ATOM      6  C1  <0> d           1.464   2.084  -2.449  0.00  0.00    -0.052 C 
ATOM      7  H2  <0> d           1.267   3.123  -2.186  0.00  0.00     0.030 H 
ATOM      8  H3  <0> d           2.080   2.046  -3.347  0.00  0.00     0.030 H 
ATOM      9  H4  <0> d           0.520   1.571  -2.634  0.00  0.00     0.030 H 
ENDBRANCH   4   6
BRANCH   4  10
ATOM     10  O2  <0> d           2.458   0.035  -1.640  0.00  0.00    -0.396 OA
ATOM     11  H14 <0> d           3.002  -0.075  -2.432  0.00  0.00     0.210 HD
ENDBRANCH   4  10
ENDBRANCH   1   4
BRANCH   1  12
ATOM     12  C4  <0> d           2.131   0.905   1.152  0.00  0.00     0.053 C 
BRANCH  12  13
ATOM     13  C5  <0> d           3.452   1.666   1.274  0.00  0.00    -0.048 C 
ATOM     14  H7  <0> d           3.248   2.725   1.430  0.00  0.00     0.031 H 
ATOM     15  H8  <0> d           4.019   1.277   2.120  0.00  0.00     0.031 H 
ATOM     16  H9  <0> d           4.031   1.538   0.360  0.00  0.00     0.031 H 
ENDBRANCH  12  13
BRANCH  12  17
ATOM     17  C6  <0> d           1.318   1.084   2.436  0.00  0.00    -0.048 C 
ATOM     18  H10 <0> d           0.358   0.579   2.332  0.00  0.00     0.031 H 
ATOM     19  H11 <0> d           1.866   0.654   3.275  0.00  0.00     0.031 H 
ATOM     20  H12 <0> d           1.152   2.146   2.616  0.00  0.00     0.031 H 
ENDBRANCH  12  17
BRANCH  12  21
ATOM     21  O1  <0> d           2.398  -0.484   0.948  0.00  0.00    -0.391 OA
ATOM     22  H13 <0> d           2.911  -0.673   0.150  0.00  0.00     0.210 HD
ENDBRANCH  12  21
ENDBRANCH   1  12
TORSDOF 7
