REMARK  3 active torsions:
REMARK  status: ('A' for Active; 'I' for Inactive)
REMARK    1  A    between atoms: C1_1  and  N1_2 
REMARK    2  A    between atoms: N1_2  and  C2_3 
REMARK       I    between atoms: N1_2  and  C3_4 
REMARK    3  A    between atoms: C3_4  and  C4_6 
ROOT
ATOM      1  C4  <0> d           0.021  -2.178  -1.177  0.00  0.00     0.125 C 
ATOM      2  H1  <0> d           0.875  -2.550  -0.612  0.00  0.00     0.099 H 
ATOM      3  C5  <0> d          -1.303  -2.743  -0.595  0.00  0.00    -0.024 C 
ATOM      4  C6  <0> d          -1.349  -4.112  -1.331  0.00  0.00     0.019 C 
ATOM      5  C7  <0> d          -0.685  -3.786  -2.657  0.00  0.00     0.259 C 
ATOM      6  O2  <0> d          -0.802  -4.430  -3.673  0.00  0.00    -0.265 OA
ATOM      7  O3  <0> d           0.056  -2.673  -2.525  0.00  0.00    -0.306 OA
ATOM      8  H8  <0> d          -1.238  -2.874   0.485  0.00  0.00     0.038 H 
ATOM      9  H9  <0> d          -2.154  -2.118  -0.866  0.00  0.00     0.038 H 
ATOM     10  H10 <0> d          -0.780  -4.864  -0.785  0.00  0.00     0.048 H 
ATOM     11  H11 <0> d          -2.379  -4.436  -1.482  0.00  0.00     0.048 H 
ENDROOT
BRANCH   1  12
ATOM     12  C3  <0> d           0.000  -0.672  -1.169  0.00  0.00     0.248 C 
ATOM     13  N1  <0> d           0.002  -0.004   0.002  0.00  0.00    -0.359 N 
ATOM     14  O1  <0> d          -0.018  -0.060  -2.216  0.00  0.00    -0.270 OA
BRANCH  13  15
ATOM     15  C1  <0> d          -0.018   1.461   0.010  0.00  0.00    -0.017 C 
ATOM     16  H2  <0> d           1.005   1.838   0.002  0.00  0.00     0.056 H 
ATOM     17  H3  <0> d          -0.545   1.822  -0.873  0.00  0.00     0.056 H 
ATOM     18  H4  <0> d          -0.528   1.812   0.907  0.00  0.00     0.056 H 
ENDBRANCH  13  15
BRANCH  13  19
ATOM     19  C2  <0> d           0.024  -0.743   1.267  0.00  0.00    -0.017 C 
ATOM     20  H5  <0> d           0.022  -0.040   2.099  0.00  0.00     0.056 H 
ATOM     21  H6  <0> d          -0.857  -1.382   1.329  0.00  0.00     0.056 H 
ATOM     22  H7  <0> d           0.923  -1.358   1.312  0.00  0.00     0.056 H 
ENDBRANCH  13  19
ENDBRANCH   1  12
TORSDOF 3
