REMARK  0 active torsions:
REMARK  status: ('A' for Active; 'I' for Inactive)
ROOT
ATOM      1  C1  <0> d          -0.122   3.948  -0.601  0.00  0.00     0.049 C 
ATOM      2  C2  <0> d           1.110   3.088  -0.900  0.00  0.00     0.049 C 
ATOM      3  O1  <0> d           1.128   1.944   0.002  0.00  0.00    -0.311 OA
ATOM      4  C3  <0> d          -0.014   1.208   0.009  0.00  0.00     0.359 C 
ATOM      5  O2  <0> d           0.002  -0.004   0.002  0.00  0.00    -0.253 OA
ATOM      6  C4  <0> d          -1.304   1.990   0.019  0.00  0.00     0.359 C 
ATOM      7  O3  <0> d          -2.271   1.624   0.651  0.00  0.00    -0.253 OA
ATOM      8  O4  <0> d          -1.321   3.127  -0.717  0.00  0.00    -0.311 OA
ATOM      9  H1  <0> d          -0.050   4.346   0.411  0.00  0.00     0.078 H 
ATOM     10  H2  <0> d          -0.174   4.771  -1.313  0.00  0.00     0.078 H 
ATOM     11  H3  <0> d           2.012   3.681  -0.753  0.00  0.00     0.078 H 
ATOM     12  H4  <0> d           1.067   2.738  -1.932  0.00  0.00     0.078 H 
ENDROOT
TORSDOF 0
