REMARK  4 active torsions:
REMARK  status: ('A' for Active; 'I' for Inactive)
REMARK    1  A    between atoms: C2_2  and  C3_3 
REMARK    2  A    between atoms: C3_3  and  O1_4 
REMARK    3  A    between atoms: O1_4  and  C4_5 
REMARK    4  A    between atoms: C7_8  and  N1_11 
ROOT
ATOM      1  C4  <0> d           1.175   2.087   0.002  0.00  0.00     0.069 A 
ATOM      2  C5  <0> d          -0.017   1.377   0.010  0.00  0.00    -0.049 A 
ATOM      3  C6  <0> d           0.002  -0.004   0.002  0.00  0.00    -0.055 A 
ATOM      4  C7  <0> d           1.214  -0.681  -0.013  0.00  0.00     0.025 A 
ATOM      5  C8  <0> d           2.406   0.030  -0.021  0.00  0.00    -0.055 A 
ATOM      6  C9  <0> d           2.386   1.411  -0.013  0.00  0.00    -0.049 A 
ATOM      7  H6  <0> d          -0.959   1.904   0.017  0.00  0.00     0.087 H 
ATOM      8  H7  <0> d          -0.926  -0.557   0.008  0.00  0.00     0.087 H 
ATOM      9  H8  <0> d           3.349  -0.496  -0.032  0.00  0.00     0.087 H 
ATOM     10  H9  <0> d           3.313   1.965  -0.019  0.00  0.00     0.087 H 
ENDROOT
BRANCH   1  11
ATOM     11  O1  <0> d           1.155   3.447   0.009  0.00  0.00    -0.348 OA
BRANCH  11  12
ATOM     12  C3  <0> d           2.419   4.114   0.001  0.00  0.00     0.040 C 
ATOM     13  H4  <0> d           2.989   3.824   0.884  0.00  0.00     0.081 H 
ATOM     14  H5  <0> d           2.972   3.833  -0.896  0.00  0.00     0.081 H 
BRANCH  12  15
ATOM     15  C2  <0> d           2.200   5.605   0.010  0.00  0.00    -0.089 C 
ATOM     16  C1  <0> d           2.907   6.365   0.810  0.00  0.00    -0.123 C 
ATOM     17  H1  <0> d           2.750   7.434   0.817  0.00  0.00     0.066 H 
ATOM     18  H2  <0> d           3.646   5.924   1.462  0.00  0.00     0.066 H 
ATOM     19  H3  <0> d           1.462   6.046  -0.642  0.00  0.00     0.078 H 
ENDBRANCH  12  15
ENDBRANCH  11  12
ENDBRANCH   1  11
BRANCH   4  20
ATOM     20  N1  <0> d           1.234  -2.081  -0.021  0.00  0.00    -0.399 N 
ATOM     21  H10 <0> d           0.401  -2.578  -0.015  0.00  0.00     0.156 HD
ATOM     22  H11 <0> d           2.081  -2.554  -0.031  0.00  0.00     0.156 HD
ENDBRANCH   4  20
TORSDOF 4
