REMARK  4 active torsions:
REMARK  status: ('A' for Active; 'I' for Inactive)
REMARK    1  A    between atoms: C1_1  and  O1_2 
REMARK    2  A    between atoms: O1_2  and  C2_3 
REMARK    3  A    between atoms: C4_5  and  O3_10 
REMARK    4  A    between atoms: C7_8  and  O2_9 
ROOT
ATOM      1  C2  <0> d           0.606  -0.608  -1.056  0.00  0.00     0.103 A 
ATOM      2  C3  <0> d           1.173   0.159  -2.062  0.00  0.00    -0.016 A 
ATOM      3  C4  <0> d           1.788  -0.458  -3.140  0.00  0.00     0.068 A 
ATOM      4  C5  <0> d           1.837  -1.842  -3.212  0.00  0.00    -0.048 A 
ATOM      5  C6  <0> d           1.272  -2.609  -2.210  0.00  0.00    -0.046 A 
ATOM      6  C7  <0> d           0.661  -1.996  -1.128  0.00  0.00     0.099 A 
ATOM      7  H4  <0> d           1.134   1.237  -2.006  0.00  0.00     0.092 H 
ATOM      8  H5  <0> d           2.316  -2.322  -4.053  0.00  0.00     0.087 H 
ATOM      9  H6  <0> d           1.311  -3.687  -2.269  0.00  0.00     0.088 H 
ENDROOT
BRANCH   1  10
ATOM     10  O1  <0> d           0.002  -0.004   0.002  0.00  0.00    -0.353 OA
BRANCH  10  11
ATOM     11  C1  <0> d          -0.017   1.425   0.010  0.00  0.00     0.010 C 
ATOM     12  H1  <0> d           1.005   1.802   0.002  0.00  0.00     0.066 H 
ATOM     13  H2  <0> d          -0.544   1.786  -0.873  0.00  0.00     0.066 H 
ATOM     14  H3  <0> d          -0.527   1.776   0.907  0.00  0.00     0.066 H 
ENDBRANCH  10  11
ENDBRANCH   1  10
BRANCH   6  15
ATOM     15  O2  <0> d           0.111  -2.751  -0.139  0.00  0.00    -0.358 OA
ATOM     16  H7  <0> d          -0.817  -2.978  -0.287  0.00  0.00     0.217 HD
ENDBRANCH   6  15
BRANCH   3  17
ATOM     17  O3  <0> d           2.344   0.294  -4.127  0.00  0.00    -0.361 OA
ATOM     18  H8  <0> d           3.273   0.516  -3.977  0.00  0.00     0.217 HD
ENDBRANCH   3  17
TORSDOF 4
