REMARK  3 active torsions:
REMARK  status: ('A' for Active; 'I' for Inactive)
REMARK    1  A    between atoms: C1_1  and  C2_2 
REMARK    2  A    between atoms: C2_2  and  C3_4 
REMARK    3  A    between atoms: C2_2  and  O1_7 
ROOT
ATOM      1  C3  <0> d           0.714  -0.492   1.195  0.00  0.00    -0.063 C 
ATOM      2  C4  <0> d           1.282  -0.881   2.146  0.00  0.00    -0.021 C 
ATOM      3 Br1  <0> d           2.201  -1.510   3.685  0.00  0.00     0.010 Br
ENDROOT
BRANCH   1   4
ATOM      4  C2  <0> d           0.002  -0.004   0.002  0.00  0.00     0.091 C 
ATOM      5  H1  <0> d           0.512  -0.356  -0.895  0.00  0.00     0.102 H 
BRANCH   4   6
ATOM      6  C1  <0> d          -0.019   1.526   0.010  0.00  0.00    -0.043 C 
ATOM      7  H2  <0> d           1.004   1.903   0.003  0.00  0.00     0.032 H 
ATOM      8  H3  <0> d          -0.546   1.887  -0.873  0.00  0.00     0.032 H 
ATOM      9  H4  <0> d          -0.529   1.877   0.907  0.00  0.00     0.032 H 
ENDBRANCH   4   6
BRANCH   4  10
ATOM     10  O1  <0> d          -1.339  -0.499   0.012  0.00  0.00    -0.384 OA
ATOM     11  H5  <0> d          -1.868  -0.216  -0.746  0.00  0.00     0.211 HD
ENDBRANCH   4  10
ENDBRANCH   1   4
TORSDOF 3
