REMARK  5 active torsions:
REMARK  status: ('A' for Active; 'I' for Inactive)
REMARK    1  A    between atoms: C1_1  and  C2_2 
REMARK    2  A    between atoms: C2_2  and  C3_3 
REMARK    3  A    between atoms: C2_2  and  C4_4 
REMARK    4  A    between atoms: C2_2  and  O1_10 
REMARK    5  A    between atoms: O1_10  and  C10_11 
ROOT
ATOM      1  C2  <0> d           0.002  -0.004   0.002  0.00  0.00     0.080 C 
ENDROOT
BRANCH   1   2
ATOM      2  C1  <0> d          -1.233  -0.535   0.732  0.00  0.00    -0.044 C 
ATOM      3  H1  <0> d          -2.133  -0.181   0.229  0.00  0.00     0.032 H 
ATOM      4  H2  <0> d          -1.218  -1.625   0.726  0.00  0.00     0.032 H 
ATOM      5  H3  <0> d          -1.228  -0.177   1.762  0.00  0.00     0.032 H 
ENDBRANCH   1   2
BRANCH   1   6
ATOM      6  C3  <0> d          -0.005  -0.506  -1.443  0.00  0.00    -0.044 C 
ATOM      7  H4  <0> d           0.875  -0.128  -1.963  0.00  0.00     0.032 H 
ATOM      8  H5  <0> d           0.010  -1.596  -1.449  0.00  0.00     0.032 H 
ATOM      9  H6  <0> d          -0.904  -0.152  -1.947  0.00  0.00     0.032 H 
ENDBRANCH   1   6
BRANCH   1  10
ATOM     10  C4  <0> d          -0.018   1.503   0.010  0.00  0.00    -0.025 A 
ATOM     11  C9  <0> d           1.169   2.210   0.003  0.00  0.00    -0.074 A 
ATOM     12  C8  <0> d           1.151   3.592   0.010  0.00  0.00    -0.082 A 
ATOM     13  H11 <0> d           2.112   1.683  -0.009  0.00  0.00     0.084 H 
ATOM     14  C7  <0> d          -0.056   4.267   0.025  0.00  0.00    -0.083 A 
ATOM     15  H10 <0> d           2.078   4.145   0.004  0.00  0.00     0.083 H 
ATOM     16  C6  <0> d          -1.244   3.560   0.032  0.00  0.00    -0.082 A 
ATOM     17  H9  <0> d          -0.070   5.347   0.031  0.00  0.00     0.083 H 
ATOM     18  C5  <0> d          -1.225   2.178   0.020  0.00  0.00    -0.074 A 
ATOM     19  H8  <0> d          -2.186   4.087   0.044  0.00  0.00     0.083 H 
ATOM     20  H7  <0> d          -2.153   1.625   0.021  0.00  0.00     0.084 H 
ENDBRANCH   1  10
BRANCH   1  21
ATOM     21  O1  <0> d           1.182  -0.468   0.662  0.00  0.00    -0.381 OA
BRANCH  21  22
ATOM     22  C10 <0> d           1.299  -1.891   0.710  0.00  0.00     0.005 C 
ATOM     23  H12 <0> d           2.220  -2.163   1.226  0.00  0.00     0.066 H 
ATOM     24  H13 <0> d           0.446  -2.309   1.244  0.00  0.00     0.066 H 
ATOM     25  H14 <0> d           1.321  -2.288  -0.305  0.00  0.00     0.066 H 
ENDBRANCH  21  22
ENDBRANCH   1  21
TORSDOF 5
