REMARK  2 active torsions:
REMARK  status: ('A' for Active; 'I' for Inactive)
REMARK    1  A    between atoms: C2_2  and  N7_12 
REMARK    2  A    between atoms: C3_4  and  N6_11 
ROOT
ATOM      1  C1  <0> d           1.267   2.020   0.001  0.00  0.00     0.174 A 
ATOM      2  C2  <0> d          -0.016   1.322   0.009  0.00  0.00     0.175 A 
ATOM      3  N1  <0> d           0.002  -0.004   0.002  0.00  0.00    -0.043 NA
ATOM      4  C3  <0> d           1.148  -0.682  -0.013  0.00  0.00     0.724 A 
ATOM      5  N2  <0> d           2.332  -0.108  -0.020  0.00  0.00    -0.039 NA
ATOM      6  C4  <0> d           2.454   1.229  -0.014  0.00  0.00     0.223 A 
ATOM      7  N3  <0> d           3.450   2.096  -0.019  0.00  0.00    -0.134 NA
ATOM      8  N4  <0> d           2.962   3.288  -0.008  0.00  0.00    -0.194 N 
ATOM      9  H1  <0> d           3.515   4.122  -0.009  0.00  0.00     0.213 HD
ATOM     10  N5  <0> d           1.673   3.274   0.004  0.00  0.00    -0.149 NA
ENDROOT
BRANCH   2  11
ATOM     11  N7  <0> d          -1.205   2.017   0.019  0.00  0.00    -0.381 N 
ATOM     12  H4  <0> d          -2.048   1.537   0.020  0.00  0.00     0.157 HD
ATOM     13  H5  <0> d          -1.199   2.987   0.024  0.00  0.00     0.157 HD
ENDBRANCH   2  11
BRANCH   4  14
ATOM     14  N6  <0> d           1.090  -2.064  -0.019  0.00  0.00    -0.231 N 
ATOM     15  H2  <0> d           0.231  -2.514  -0.014  0.00  0.00     0.174 HD
ATOM     16  H3  <0> d           1.909  -2.584  -0.030  0.00  0.00     0.174 HD
ENDBRANCH   4  14
TORSDOF 2
