REMARK  2 active torsions:
REMARK  status: ('A' for Active; 'I' for Inactive)
REMARK    1  A    between atoms: C2_2  and  C3_3 
REMARK    2  A    between atoms: C5_5  and  N1_10 
ROOT
ATOM      1  C1  <0> d          -5.883   0.301   0.031  0.00  0.00    -0.149 C 
ATOM      2  C2  <0> d          -4.871   0.897   0.030  0.00  0.00    -0.075 C 
ATOM      3  H1  <0> d          -6.831  -0.257   0.032  0.00  0.00     0.166 H 
ENDROOT
BRANCH   2   4
ATOM      4  C3  <0> d          -3.637   1.623   0.029  0.00  0.00     0.057 A 
ATOM      5  C8  <0> d          -3.646   3.021   0.037  0.00  0.00     0.135 A 
ATOM      6  C7  <0> d          -2.453   3.719   0.035  0.00  0.00    -0.042 A 
ATOM      7  F1  <0> d          -4.820   3.689   0.046  0.00  0.00    -0.205 F 
ATOM      8  C6  <0> d          -1.250   3.038   0.030  0.00  0.00    -0.055 A 
ATOM      9  H4  <0> d          -2.461   4.798   0.041  0.00  0.00     0.088 H 
ATOM     10  C5  <0> d          -1.232   1.649   0.017  0.00  0.00     0.027 A 
ATOM     11  H3  <0> d          -0.321   3.589   0.033  0.00  0.00     0.087 H 
ATOM     12  C4  <0> d          -2.422   0.939   0.019  0.00  0.00    -0.037 A 
ATOM     13  H2  <0> d          -2.409  -0.141   0.013  0.00  0.00     0.089 H 
BRANCH  10  14
ATOM     14  N1  <0> d          -0.011   0.966   0.007  0.00  0.00    -0.399 N 
ATOM     15  H5  <0> d           0.934   1.529   0.006  0.00  0.00     0.156 HD
ATOM     16  H6  <0> d           0.004  -0.134   0.001  0.00  0.00     0.156 HD
ENDBRANCH  10  14
ENDBRANCH   2   4
TORSDOF 2
