REMARK  1 active torsions:
REMARK  status: ('A' for Active; 'I' for Inactive)
REMARK    1  A    between atoms: C5_6  and  N3_12 
ROOT
ATOM      1  C1  <0> d          -0.013   1.076   0.008  0.00  0.00    -0.080 A 
ATOM      2  C2  <0> d          -1.234   1.766   0.018  0.00  0.00    -0.068 A 
ATOM      3  C3  <0> d          -1.255   3.116   0.031  0.00  0.00    -0.019 A 
ATOM      4  N1  <0> d          -0.091   3.834   0.024  0.00  0.00    -0.343 N 
ATOM      5  C4  <0> d           0.139   5.186   0.028  0.00  0.00     0.083 A 
ATOM      6  C5  <0> d           1.471   5.417   0.017  0.00  0.00     0.052 A 
ATOM      7  C6  <0> d           2.127   4.157   0.004  0.00  0.00     0.095 A 
ATOM      8  C7  <0> d           1.114   3.181   0.009  0.00  0.00     0.058 A 
ATOM      9  C8  <0> d           1.156   1.779   0.001  0.00  0.00    -0.055 A 
ATOM     10  C9  <0> d           3.540   3.927  -0.011  0.00  0.00     0.104 C 
ATOM     11  N2  <0> d           4.661   3.744  -0.022  0.00  0.00    -0.191 NA
ATOM     12  H1  <0> d           0.002  -0.004   0.002  0.00  0.00     0.083 H 
ATOM     13  H2  <0> d          -2.163   1.215   0.018  0.00  0.00     0.085 H 
ATOM     14  H3  <0> d          -2.202   3.635   0.043  0.00  0.00     0.111 H 
ATOM     15  H4  <0> d           2.104   1.262  -0.012  0.00  0.00     0.087 H 
ATOM     16  H6  <0> d           0.231   5.675   0.896  0.00  0.00     0.087 H 
ENDROOT
BRANCH   6  17
ATOM     17  N3  <0> d           2.093   6.673   0.017  0.00  0.00    -0.399 N 
ATOM     18  H5  <0> d           3.191   6.743   0.007  0.00  0.00     0.156 HD
ATOM     19  H7  <0> d           1.483   7.589   0.028  0.00  0.00     0.156 HD
ENDBRANCH   6  17
TORSDOF 1
