REMARK  1 active torsions:
REMARK  status: ('A' for Active; 'I' for Inactive)
REMARK    1  A    between atoms: C5_5  and  N1_7 
ROOT
ATOM      1  C1  <0> d          -0.017   1.375   0.010  0.00  0.00    -0.080 A 
ATOM      2  C2  <0> d           1.170   2.091   0.002  0.00  0.00    -0.076 A 
ATOM      3  C3  <0> d           2.384   1.437  -0.013  0.00  0.00    -0.042 A 
ATOM      4  C4  <0> d           2.424   0.041  -0.021  0.00  0.00     0.042 A 
ATOM      5  C5  <0> d           1.212  -0.683  -0.013  0.00  0.00     0.040 A 
ATOM      6  C6  <0> d           0.002  -0.004   0.002  0.00  0.00    -0.057 A 
ATOM      7  C7  <0> d           3.810  -0.438  -0.037  0.00  0.00     0.162 A 
ATOM      8  O1  <0> d           4.161  -1.599  -0.048  0.00  0.00    -0.292 OA
ATOM      9  C8  <0> d           4.724   0.763  -0.040  0.00  0.00    -0.001 A 
ATOM     10  C9  <0> d           3.792   1.982  -0.024  0.00  0.00    -0.034 A 
ATOM     11  H1  <0> d          -0.961   1.899   0.026  0.00  0.00     0.083 H 
ATOM     12  H2  <0> d           1.143   3.171   0.008  0.00  0.00     0.084 H 
ATOM     13  H3  <0> d          -0.926  -0.556   0.008  0.00  0.00     0.086 H 
ATOM     14  H6  <0> d           5.356   0.759   0.848  0.00  0.00     0.045 H 
ATOM     15  H7  <0> d           5.338   0.768  -0.941  0.00  0.00     0.045 H 
ATOM     16  H8  <0> d           3.952   2.588  -0.916  0.00  0.00     0.040 H 
ATOM     17  H9  <0> d           3.970   2.578   0.871  0.00  0.00     0.040 H 
ENDROOT
BRANCH   5  18
ATOM     18  N1  <0> d           1.231  -2.070  -0.021  0.00  0.00    -0.398 N 
ATOM     19  H4  <0> d           2.078  -2.543  -0.031  0.00  0.00     0.156 HD
ATOM     20  H5  <0> d           0.398  -2.567  -0.016  0.00  0.00     0.156 HD
ENDBRANCH   5  18
TORSDOF 1
