REMARK  6 active torsions:
REMARK  status: ('A' for Active; 'I' for Inactive)
REMARK    1  A    between atoms: C1_1  and  C2_2 
REMARK    2  A    between atoms: C2_2  and  C3_3 
REMARK    3  A    between atoms: C2_2  and  C4_4 
REMARK    4  A    between atoms: C4_4  and  C5_5 
REMARK       I    between atoms: C5_5  and  N1_7 
REMARK    5  A    between atoms: N1_7  and  C6_8 
REMARK    6  A    between atoms: C6_8  and  C7_9 
ROOT
ATOM      1  C4  <0> d           4.371   5.290  -0.011  0.00  0.00     0.012 C 
ATOM      2  H8  <0> d           4.878   4.902   0.872  0.00  0.00     0.047 H 
ATOM      3  H9  <0> d           4.862   4.912  -0.908  0.00  0.00     0.047 H 
ENDROOT
BRANCH   1   4
ATOM      4  C2  <0> d           4.430   6.819  -0.004  0.00  0.00    -0.053 C 
ATOM      5  H4  <0> d           3.863   7.200   0.846  0.00  0.00     0.039 H 
BRANCH   4   6
ATOM      6  C1  <0> d           5.887   7.272   0.111  0.00  0.00    -0.073 C 
ATOM      7  H1  <0> d           6.454   6.891  -0.739  0.00  0.00     0.028 H 
ATOM      8  H2  <0> d           5.929   8.361   0.116  0.00  0.00     0.028 H 
ATOM      9  H3  <0> d           6.316   6.887   1.036  0.00  0.00     0.028 H 
ENDBRANCH   4   6
BRANCH   4  10
ATOM     10  C3  <0> d           3.828   7.359  -1.302  0.00  0.00    -0.073 C 
ATOM     11  H5  <0> d           4.395   6.978  -2.152  0.00  0.00     0.028 H 
ATOM     12  H6  <0> d           2.790   7.036  -1.384  0.00  0.00     0.028 H 
ATOM     13  H7  <0> d           3.870   8.448  -1.297  0.00  0.00     0.028 H 
ENDBRANCH   4  10
ENDBRANCH   1   4
BRANCH   1  14
ATOM     14  C5  <0> d           2.932   4.843   0.000  0.00  0.00     0.218 C 
ATOM     15  O1  <0> d           2.041   5.667   0.013  0.00  0.00    -0.274 OA
ATOM     16  N1  <0> d           2.634   3.529  -0.004  0.00  0.00    -0.351 N 
ATOM     17  H10 <0> d           3.346   2.870  -0.015  0.00  0.00     0.163 HD
BRANCH  16  18
ATOM     18  C6  <0> d           1.235   3.094   0.007  0.00  0.00     0.075 C 
ATOM     19  H11 <0> d           0.727   3.482  -0.876  0.00  0.00     0.080 H 
ATOM     20  H12 <0> d           0.744   3.473   0.904  0.00  0.00     0.080 H 
BRANCH  18  21
ATOM     21  C7  <0> d           1.177   1.588  -0.001  0.00  0.00     0.191 C 
ATOM     22  O2  <0> d           2.199   0.944  -0.014  0.00  0.00    -0.647 OA
ATOM     23  O3  <0> d          -0.011   0.963   0.007  0.00  0.00    -0.647 OA
ENDBRANCH  18  21
ENDBRANCH  16  18
ENDBRANCH   1  14
TORSDOF 6
