REMARK  2 active torsions:
REMARK  status: ('A' for Active; 'I' for Inactive)
REMARK    1  A    between atoms: C3_3  and  O1_9 
REMARK    2  A    between atoms: C4_4  and  N1_8 
ROOT
ATOM      1  C1  <0> d          -0.017   1.379   0.010  0.00  0.00    -0.059 A 
ATOM      2  C2  <0> d           1.170   2.090   0.002  0.00  0.00    -0.047 A 
ATOM      3  C3  <0> d           2.380   1.419  -0.013  0.00  0.00     0.091 A 
ATOM      4  C4  <0> d           2.401   0.025  -0.021  0.00  0.00     0.060 A 
ATOM      5  C5  <0> d           1.208  -0.682  -0.013  0.00  0.00    -0.034 A 
ATOM      6  C6  <0> d           0.002  -0.004   0.002  0.00  0.00     0.036 A 
ATOM      7 Cl1  <0> d          -1.490  -0.891   0.011  0.00  0.00    -0.084 Cl
ATOM      8  H1  <0> d          -0.960   1.905   0.026  0.00  0.00     0.086 H 
ATOM      9  H2  <0> d           1.152   3.170   0.008  0.00  0.00     0.087 H 
ATOM     10  H3  <0> d           1.220  -1.762  -0.019  0.00  0.00     0.089 H 
ENDROOT
BRANCH   4  11
ATOM     11  N1  <0> d           3.622  -0.658  -0.037  0.00  0.00    -0.397 N 
ATOM     12  H4  <0> d           4.455  -0.162  -0.042  0.00  0.00     0.156 HD
ATOM     13  H5  <0> d           3.635  -1.628  -0.042  0.00  0.00     0.156 HD
ENDBRANCH   4  11
BRANCH   3  14
ATOM     14  O1  <0> d           3.547   2.117  -0.021  0.00  0.00    -0.358 OA
ATOM     15  H6  <0> d           3.893   2.315   0.860  0.00  0.00     0.217 HD
ENDBRANCH   3  14
TORSDOF 2
