REMARK  7 active torsions:
REMARK  status: ('A' for Active; 'I' for Inactive)
REMARK    1  A    between atoms: C1_1  and  C2_2 
REMARK    2  A    between atoms: C2_2  and  C4_4 
REMARK    3  A    between atoms: C5_5  and  C6_6 
REMARK    4  A    between atoms: C6_6  and  C7_7 
REMARK    5  A    between atoms: C7_7  and  C8_8 
REMARK    6  A    between atoms: C7_7  and  C9_9 
REMARK    7  A    between atoms: C7_7  and  O1_11 
ROOT
ATOM      1  C6  <0> d          -3.759   2.277   0.032  0.00  0.00    -0.018 C 
ATOM      2  H8  <0> d          -4.284   2.070   0.965  0.00  0.00     0.043 H 
ATOM      3  H9  <0> d          -3.577   3.348  -0.052  0.00  0.00     0.043 H 
ENDROOT
BRANCH   1   4
ATOM      4  C5  <0> d          -2.444   1.541   0.022  0.00  0.00    -0.099 C 
ATOM      5  C4  <0> d          -1.302   2.221   0.020  0.00  0.00    -0.082 C 
ATOM      6  H6  <0> d          -1.317   3.301   0.026  0.00  0.00     0.083 H 
ATOM      7  H7  <0> d          -2.429   0.461   0.016  0.00  0.00     0.076 H 
BRANCH   5   8
ATOM      8  C2  <0> d          -0.018   1.503   0.010  0.00  0.00    -0.072 C 
ATOM      9  C3  <0> d           1.123   2.183   0.003  0.00  0.00    -0.116 C 
ATOM     10  H4  <0> d           1.109   3.263   0.009  0.00  0.00     0.067 H 
ATOM     11  H5  <0> d           2.066   1.655  -0.009  0.00  0.00     0.067 H 
BRANCH   8  12
ATOM     12  C1  <0> d           0.002  -0.004   0.002  0.00  0.00    -0.052 C 
ATOM     13  H1  <0> d           1.034  -0.353  -0.010  0.00  0.00     0.033 H 
ATOM     14  H2  <0> d          -0.498  -0.379   0.895  0.00  0.00     0.033 H 
ATOM     15  H3  <0> d          -0.515  -0.370  -0.885  0.00  0.00     0.033 H 
ENDBRANCH   8  12
ENDBRANCH   5   8
ENDBRANCH   1   4
BRANCH   1  16
ATOM     16  C7  <0> d          -4.614   1.810  -1.148  0.00  0.00     0.074 C 
BRANCH  16  17
ATOM     17  C8  <0> d          -3.827   1.985  -2.448  0.00  0.00    -0.044 C 
ATOM     18  H10 <0> d          -2.914   1.391  -2.403  0.00  0.00     0.032 H 
ATOM     19  H11 <0> d          -4.436   1.653  -3.289  0.00  0.00     0.032 H 
ATOM     20  H12 <0> d          -3.570   3.037  -2.579  0.00  0.00     0.032 H 
ENDBRANCH  16  17
BRANCH  16  21
ATOM     21  C9  <0> d          -5.876   2.631  -1.210  0.00  0.00    -0.080 C 
ATOM     22  C10 <0> d          -7.043   2.046  -1.109  0.00  0.00    -0.122 C 
ATOM     23  H14 <0> d          -7.948   2.635  -1.154  0.00  0.00     0.066 H 
ATOM     24  H15 <0> d          -7.102   0.975  -0.982  0.00  0.00     0.066 H 
ATOM     25  H13 <0> d          -5.817   3.702  -1.337  0.00  0.00     0.080 H 
ENDBRANCH  16  21
BRANCH  16  26
ATOM     26  O1  <0> d          -4.950   0.432  -0.977  0.00  0.00    -0.386 OA
ATOM     27  H16 <0> d          -5.451   0.246  -0.171  0.00  0.00     0.211 HD
ENDBRANCH  16  26
ENDBRANCH   1  16
TORSDOF 7
