REMARK  2 active torsions:
REMARK  status: ('A' for Active; 'I' for Inactive)
REMARK    1  A    between atoms: C1_1  and  C2_2 
REMARK    2  A    between atoms: C7_7  and  N1_8 
ROOT
ATOM      1  C2  <0> d           0.002  -0.004   0.002  0.00  0.00    -0.034 A 
ATOM      2  C3  <0> d           0.006  -0.672  -1.188  0.00  0.00    -0.047 A 
ATOM      3  C4  <0> d           0.025  -2.064  -1.208  0.00  0.00     0.062 A 
ATOM      4  C5  <0> d           0.041  -2.777   0.006  0.00  0.00     0.013 A 
ATOM      5  C6  <0> d           0.037  -2.081   1.220  0.00  0.00    -0.044 A 
ATOM      6  C7  <0> d           0.023  -0.700   1.211  0.00  0.00     0.032 A 
ATOM      7  C8  <0> d           0.058  -4.193  -0.348  0.00  0.00     0.034 A 
ATOM      8  N2  <0> d           0.053  -4.278  -1.648  0.00  0.00    -0.186 NA
ATOM      9  N3  <0> d           0.033  -2.999  -2.213  0.00  0.00    -0.278 N 
ATOM     10  H1  <0> d           0.025  -2.803  -3.163  0.00  0.00     0.189 HD
ATOM     11  H5  <0> d          -0.007  -0.120  -2.117  0.00  0.00     0.088 H 
ATOM     12  H6  <0> d           0.049  -2.619   2.157  0.00  0.00     0.088 H 
ATOM     13  H9  <0> d           0.073  -5.022   0.343  0.00  0.00     0.118 H 
ENDROOT
BRANCH   1  14
ATOM     14  C1  <0> d          -0.018   1.503   0.010  0.00  0.00    -0.049 C 
ATOM     15  H2  <0> d           1.004   1.880   0.003  0.00  0.00     0.033 H 
ATOM     16  H3  <0> d          -0.545   1.864  -0.873  0.00  0.00     0.033 H 
ATOM     17  H4  <0> d          -0.529   1.854   0.907  0.00  0.00     0.033 H 
ENDBRANCH   1  14
BRANCH   6  18
ATOM     18  N1  <0> d           0.024   0.004   2.420  0.00  0.00    -0.399 N 
ATOM     19  H7  <0> d           0.011   0.974   2.416  0.00  0.00     0.156 HD
ATOM     20  H8  <0> d           0.039  -0.477   3.262  0.00  0.00     0.156 HD
ENDBRANCH   6  18
TORSDOF 2
