REMARK  4 active torsions:
REMARK  status: ('A' for Active; 'I' for Inactive)
REMARK    1  A    between atoms: C1_1  and  C2_2 
REMARK    2  A    between atoms: C2_2  and  O1_3 
REMARK    3  A    between atoms: O1_3  and  C3_4 
REMARK    4  A    between atoms: C3_4  and  C4_6 
ROOT
ATOM      1  C4  <0> d           1.151   1.745   0.000  0.00  0.00     0.062 C 
ATOM      2  C5  <0> d          -0.013   1.076   0.008  0.00  0.00    -0.011 C 
ATOM      3  N1  <0> d          -1.214   1.724   0.017  0.00  0.00    -0.305 NA
ATOM      4  C6  <0> d          -1.248   3.159   0.341  0.00  0.00     0.014 C 
ATOM      5  C7  <0> d          -0.115   3.841  -0.438  0.00  0.00    -0.047 C 
ATOM      6  C8  <0> d           1.219   3.247   0.021  0.00  0.00    -0.047 C 
ATOM      7  H6  <0> d           0.002  -0.004   0.007  0.00  0.00     0.108 H 
ATOM      8  H7  <0> d           0.853   1.932  -0.936  0.00  0.00     0.064 H 
ATOM      9  H8  <0> d          -1.099   3.303   1.411  0.00  0.00     0.067 H 
ATOM     10  H9  <0> d          -2.208   3.580   0.041  0.00  0.00     0.067 H 
ATOM     11  H10 <0> d          -0.127   4.912  -0.238  0.00  0.00     0.035 H 
ATOM     12  H11 <0> d          -0.247   3.663  -1.506  0.00  0.00     0.035 H 
ATOM     13  H12 <0> d           1.435   3.585   1.034  0.00  0.00     0.034 H 
ATOM     14  H13 <0> d           2.011   3.582  -0.649  0.00  0.00     0.034 H 
ENDROOT
BRANCH   1  15
ATOM     15  C3  <0> d           2.357   1.011  -0.027  0.00  0.00     0.268 C 
ATOM     16  O2  <0> d           2.329  -0.205  -0.043  0.00  0.00    -0.264 OA
BRANCH  15  17
ATOM     17  O1  <0> d           3.541   1.659  -0.035  0.00  0.00    -0.321 OA
BRANCH  17  18
ATOM     18  C2  <0> d           4.721   0.853  -0.063  0.00  0.00     0.025 C 
ATOM     19  H4  <0> d           4.744   0.212   0.818  0.00  0.00     0.074 H 
ATOM     20  H5  <0> d           4.718   0.236  -0.962  0.00  0.00     0.074 H 
BRANCH  18  21
ATOM     21  C1  <0> d           5.956   1.757  -0.069  0.00  0.00    -0.056 C 
ATOM     22  H1  <0> d           5.958   2.374   0.830  0.00  0.00     0.030 H 
ATOM     23  H2  <0> d           6.856   1.142  -0.090  0.00  0.00     0.030 H 
ATOM     24  H3  <0> d           5.933   2.398  -0.950  0.00  0.00     0.030 H 
ENDBRANCH  18  21
ENDBRANCH  17  18
ENDBRANCH  15  17
ENDBRANCH   1  15
TORSDOF 4
