REMARK  5 active torsions:
REMARK  status: ('A' for Active; 'I' for Inactive)
REMARK    1  A    between atoms: C2_2  and  C3_3 
REMARK    2  A    between atoms: C2_2  and  C6_7 
REMARK    3  A    between atoms: C3_3  and  C4_4 
REMARK    4  A    between atoms: C4_4  and  C5_5 
REMARK    5  A    between atoms: C5_5  and  O1_6 
ROOT
ATOM      1  C6  <0> d           1.252  -0.703  -0.014  0.00  0.00    -0.083 C 
ATOM      2  C7  <0> d           2.276  -1.276  -0.026  0.00  0.00    -0.149 C 
ATOM      3  H10 <0> d           3.193  -1.789  -0.038  0.00  0.00     0.166 H 
ENDROOT
BRANCH   1   4
ATOM      4  C2  <0> d           0.002  -0.004   0.002  0.00  0.00    -0.015 C 
ATOM      5  C1  <0> d          -0.016   1.325   0.009  0.00  0.00    -0.108 C 
ATOM      6  H1  <0> d           0.912   1.877   0.003  0.00  0.00     0.068 H 
ATOM      7  H2  <0> d          -0.959   1.852   0.017  0.00  0.00     0.068 H 
BRANCH   4   8
ATOM      8  C3  <0> d          -1.293  -0.775   0.010  0.00  0.00    -0.032 C 
ATOM      9  H3  <0> d          -1.168  -1.688   0.594  0.00  0.00     0.041 H 
ATOM     10  H4  <0> d          -2.077  -0.163   0.455  0.00  0.00     0.041 H 
BRANCH   8  11
ATOM     11  C4  <0> d          -1.680  -1.137  -1.425  0.00  0.00    -0.041 C 
ATOM     12  H5  <0> d          -1.804  -0.224  -2.009  0.00  0.00     0.036 H 
ATOM     13  H6  <0> d          -0.896  -1.748  -1.870  0.00  0.00     0.036 H 
BRANCH  11  14
ATOM     14  C5  <0> d          -2.995  -1.919  -1.417  0.00  0.00     0.017 C 
ATOM     15  H7  <0> d          -2.870  -2.832  -0.833  0.00  0.00     0.073 H 
ATOM     16  H8  <0> d          -3.779  -1.308  -0.972  0.00  0.00     0.073 H 
BRANCH  14  17
ATOM     17  O1  <0> d          -3.357  -2.257  -2.757  0.00  0.00    -0.401 OA
ATOM     18  H9  <0> d          -4.182  -2.756  -2.828  0.00  0.00     0.209 HD
ENDBRANCH  14  17
ENDBRANCH  11  14
ENDBRANCH   8  11
ENDBRANCH   4   8
ENDBRANCH   1   4
TORSDOF 5
