REMARK  2 active torsions:
REMARK  status: ('A' for Active; 'I' for Inactive)
REMARK    1  A    between atoms: C2_2  and  O2_9 
REMARK    2  A    between atoms: C6_6  and  O1_7 
ROOT
ATOM      1  C1  <0> d          -0.017   1.382   0.010  0.00  0.00    -0.019 A 
ATOM      2  C2  <0> d           1.175   2.091   0.002  0.00  0.00     0.071 A 
ATOM      3  C3  <0> d           2.385   1.411  -0.013  0.00  0.00    -0.014 A 
ATOM      4  C4  <0> d           2.402   0.028  -0.021  0.00  0.00     0.121 A 
ATOM      5  C5  <0> d           1.213  -0.681  -0.014  0.00  0.00    -0.014 A 
ATOM      6  C6  <0> d           0.002  -0.004   0.002  0.00  0.00     0.071 A 
ATOM      7  F1  <0> d           3.581  -0.632  -0.037  0.00  0.00    -0.206 F 
ATOM      8  H1  <0> d          -0.959   1.910   0.026  0.00  0.00     0.092 H 
ATOM      9  H2  <0> d           3.313   1.963  -0.019  0.00  0.00     0.092 H 
ATOM     10  H3  <0> d           1.228  -1.760  -0.020  0.00  0.00     0.092 H 
ENDROOT
BRANCH   2  11
ATOM     11  O2  <0> d           1.159   3.449   0.009  0.00  0.00    -0.361 OA
ATOM     12  H5  <0> d           1.162   3.838   0.894  0.00  0.00     0.217 HD
ENDBRANCH   2  11
BRANCH   6  13
ATOM     13  O1  <0> d          -1.165  -0.700   0.010  0.00  0.00    -0.361 OA
ATOM     14  H4  <0> d          -1.512  -0.896  -0.871  0.00  0.00     0.217 HD
ENDBRANCH   6  13
TORSDOF 2
