REMARK  4 active torsions:
REMARK  status: ('A' for Active; 'I' for Inactive)
REMARK    1  A    between atoms: C1_1  and  C2_2 
REMARK    2  A    between atoms: C2_2  and  C3_3 
REMARK    3  A    between atoms: C3_3  and  C4_5 
REMARK    4  A    between atoms: C4_5  and  C5_7 
ROOT
ATOM      1  C4  <0> d           0.863  -1.968  -1.486  0.00  0.00     0.084 C 
ATOM      2  H1  <0> d          -0.018  -2.494  -1.116  0.00  0.00     0.074 H 
ATOM      3  C6  <0> d           1.008  -2.211  -2.930  0.00  0.00     0.071 C 
ATOM      4  N1  <0> d           1.119  -2.398  -4.045  0.00  0.00    -0.196 NA
ENDROOT
BRANCH   1   5
ATOM      5  C3  <0> d           0.707  -0.490  -1.238  0.00  0.00     0.143 C 
ATOM      6  O1  <0> d           1.148   0.305  -2.033  0.00  0.00    -0.297 OA
BRANCH   5   7
ATOM      7  C2  <0> d           0.002  -0.004   0.002  0.00  0.00    -0.012 C 
ATOM      8  H5  <0> d           0.529  -0.365   0.885  0.00  0.00     0.043 H 
ATOM      9  H6  <0> d          -1.020  -0.381   0.010  0.00  0.00     0.043 H 
BRANCH   7  10
ATOM     10  C1  <0> d          -0.019   1.526   0.010  0.00  0.00    -0.070 C 
ATOM     11  H2  <0> d           1.004   1.903   0.003  0.00  0.00     0.028 H 
ATOM     12  H3  <0> d          -0.546   1.887  -0.873  0.00  0.00     0.028 H 
ATOM     13  H4  <0> d          -0.529   1.877   0.907  0.00  0.00     0.028 H 
ENDBRANCH   7  10
ENDBRANCH   5   7
ENDBRANCH   1   5
BRANCH   1  14
ATOM     14  C5  <0> d           2.106  -2.480  -0.755  0.00  0.00    -0.054 C 
ATOM     15  H7  <0> d           1.999  -2.300   0.314  0.00  0.00     0.029 H 
ATOM     16  H8  <0> d           2.219  -3.549  -0.935  0.00  0.00     0.029 H 
ATOM     17  H9  <0> d           2.987  -1.955  -1.126  0.00  0.00     0.029 H 
ENDBRANCH   1  14
TORSDOF 4
