REMARK  3 active torsions:
REMARK  status: ('A' for Active; 'I' for Inactive)
REMARK    1  A    between atoms: C1_1  and  N1_2 
REMARK    2  A    between atoms: N1_2  and  C2_3 
REMARK       I    between atoms: N1_2  and  C3_4 
REMARK       I    between atoms: C3_4  and  N2_6 
REMARK    3  A    between atoms: N2_6  and  C4_7 
ROOT
ATOM      1  N1  <0> d           3.594  -3.116   0.053  0.00  0.00    -0.342 N 
ATOM      2  C3  <0> d           3.107  -1.862  -0.033  0.00  0.00     0.336 C 
ATOM      3  O1  <0> d           3.869  -0.920  -0.133  0.00  0.00    -0.246 OA
ATOM      4  N2  <0> d           1.776  -1.653  -0.008  0.00  0.00    -0.135 N 
ATOM      5  H7  <0> d           1.167  -2.408  -0.002  0.00  0.00     0.189 HD
ENDROOT
BRANCH   1   6
ATOM      6  C1  <0> d           5.040  -3.336   0.143  0.00  0.00    -0.015 C 
ATOM      7  H1  <0> d           5.342  -3.342   1.190  0.00  0.00     0.056 H 
ATOM      8  H2  <0> d           5.291  -4.293  -0.313  0.00  0.00     0.056 H 
ATOM      9  H3  <0> d           5.562  -2.535  -0.381  0.00  0.00     0.056 H 
ENDBRANCH   1   6
BRANCH   1  10
ATOM     10  C2  <0> d           2.678  -4.259   0.056  0.00  0.00    -0.015 C 
ATOM     11  H4  <0> d           1.659  -3.909  -0.111  0.00  0.00     0.056 H 
ATOM     12  H5  <0> d           2.958  -4.951  -0.738  0.00  0.00     0.056 H 
ATOM     13  H6  <0> d           2.734  -4.767   1.018  0.00  0.00     0.056 H 
ENDBRANCH   1  10
BRANCH   4  14
ATOM     14  C4  <0> d           1.273  -0.347   0.009  0.00  0.00     0.770 A 
ATOM     15  N5  <0> d           1.993   0.775   0.003  0.00  0.00     0.067 NA
ATOM     16  N4  <0> d           1.212   1.796   0.023  0.00  0.00    -0.006 NA
ATOM     17  N6  <0> d          -0.003   1.392   0.042  0.00  0.00    -0.006 NA
ATOM     18  N3  <0> d           0.003  -0.003   0.033  0.00  0.00     0.067 NA
ENDBRANCH   4  14
TORSDOF 3
