REMARK  5 active torsions:
REMARK  status: ('A' for Active; 'I' for Inactive)
REMARK    1  A    between atoms: C1_1  and  C2_2 
REMARK    2  A    between atoms: C3_3  and  C6_9 
REMARK    3  A    between atoms: C4_4  and  O1_8 
REMARK    4  A    between atoms: C6_9  and  O3_11 
REMARK    5  A    between atoms: O3_11  and  C7_12 
ROOT
ATOM      1  C2  <0> d           1.651  -2.888  -0.623  0.00  0.00     0.024 A 
ATOM      2  C3  <0> d           0.659  -2.069  -1.122  0.00  0.00     0.096 A 
ATOM      3  C4  <0> d          -0.332  -2.962  -1.739  0.00  0.00     0.099 A 
ATOM      4  C5  <0> d           0.136  -4.216  -1.575  0.00  0.00     0.010 A 
ATOM      5  N1  <0> d           1.325  -4.163  -0.900  0.00  0.00    -0.366 N 
ATOM      6  H1  <0> d           1.858  -4.936  -0.655  0.00  0.00     0.165 HD
ATOM      7  H5  <0> d          -0.352  -5.117  -1.916  0.00  0.00     0.115 H 
ENDROOT
BRANCH   2   8
ATOM      8  C6  <0> d           0.601  -0.602  -1.047  0.00  0.00     0.297 C 
ATOM      9  O2  <0> d           1.093   0.071  -1.931  0.00  0.00    -0.259 OA
BRANCH   8  10
ATOM     10  O3  <0> d           0.002  -0.004   0.002  0.00  0.00    -0.322 OA
BRANCH  10  11
ATOM     11  C7  <0> d          -0.018   1.448   0.010  0.00  0.00     0.013 C 
ATOM     12  H7  <0> d           1.005   1.825   0.002  0.00  0.00     0.067 H 
ATOM     13  H8  <0> d          -0.545   1.809  -0.873  0.00  0.00     0.067 H 
ATOM     14  H9  <0> d          -0.528   1.799   0.907  0.00  0.00     0.067 H 
ENDBRANCH  10  11
ENDBRANCH   8  10
ENDBRANCH   2   8
BRANCH   1  15
ATOM     15  C1  <0> d           2.887  -2.431   0.108  0.00  0.00    -0.036 C 
ATOM     16  H2  <0> d           2.681  -2.386   1.178  0.00  0.00     0.035 H 
ATOM     17  H3  <0> d           3.699  -3.134  -0.077  0.00  0.00     0.035 H 
ATOM     18  H4  <0> d           3.175  -1.442  -0.248  0.00  0.00     0.035 H 
ENDBRANCH   1  15
BRANCH   3  19
ATOM     19  O1  <0> d          -1.488  -2.597  -2.356  0.00  0.00    -0.358 OA
ATOM     20  H6  <0> d          -1.394  -2.435  -3.305  0.00  0.00     0.217 HD
ENDBRANCH   3  19
TORSDOF 5
