REMARK  2 active torsions:
REMARK  status: ('A' for Active; 'I' for Inactive)
REMARK    1  A    between atoms: C1_1  and  C2_2 
REMARK    2  A    between atoms: C3_3  and  N1_9 
ROOT
ATOM      1  C2  <0> d           0.002  -0.004   0.002  0.00  0.00    -0.014 A 
ATOM      2  C3  <0> d           0.006  -0.693  -1.204  0.00  0.00     0.033 A 
ATOM      3  C4  <0> d           0.025  -2.082  -1.208  0.00  0.00    -0.057 A 
ATOM      4  C5  <0> d           0.040  -2.774  -0.012  0.00  0.00    -0.079 A 
ATOM      5  C6  <0> d           0.035  -2.087   1.187  0.00  0.00    -0.061 A 
ATOM      6  C7  <0> d           0.023  -0.702   1.194  0.00  0.00     0.042 A 
ATOM      7 Cl1  <0> d           0.026   0.157   2.703  0.00  0.00    -0.084 Cl
ATOM      8  H4  <0> d           0.027  -2.620  -2.144  0.00  0.00     0.086 H 
ATOM      9  H5  <0> d           0.054  -3.854  -0.015  0.00  0.00     0.083 H 
ATOM     10  H6  <0> d           0.046  -2.630   2.120  0.00  0.00     0.086 H 
ENDROOT
BRANCH   1  11
ATOM     11  C1  <0> d          -0.018   1.503   0.010  0.00  0.00    -0.048 C 
ATOM     12  H1  <0> d           1.004   1.880   0.003  0.00  0.00     0.033 H 
ATOM     13  H2  <0> d          -0.545   1.864  -0.873  0.00  0.00     0.033 H 
ATOM     14  H3  <0> d          -0.529   1.854   0.907  0.00  0.00     0.033 H 
ENDBRANCH   1  11
BRANCH   2  15
ATOM     15  N1  <0> d          -0.010   0.010  -2.411  0.00  0.00    -0.399 N 
ATOM     16  H7  <0> d          -0.023   0.980  -2.408  0.00  0.00     0.156 HD
ATOM     17  H8  <0> d          -0.007  -0.472  -3.253  0.00  0.00     0.156 HD
ENDBRANCH   2  15
TORSDOF 2
