REMARK  2 active torsions:
REMARK  status: ('A' for Active; 'I' for Inactive)
REMARK    1  A    between atoms: C2_2  and  C3_3 
REMARK    2  A    between atoms: C3_3  and  N1_4 
ROOT
ATOM      1  C1  <0> d           4.395   3.585  -2.505  0.00  0.00    -0.152 C 
ATOM      2  C2  <0> d           4.033   3.734  -1.399  0.00  0.00    -0.097 C 
ATOM      3  H1  <0> d           4.719   3.452  -3.495  0.00  0.00     0.166 H 
ENDROOT
BRANCH   2   4
ATOM      4  C3  <0> d           3.578   3.921  -0.011  0.00  0.00     0.055 C 
ATOM      5  H2  <0> d           4.081   4.785   0.423  0.00  0.00     0.084 H 
ATOM      6  H3  <0> d           3.816   3.031   0.572  0.00  0.00     0.084 H 
BRANCH   4   7
ATOM      7  N1  <0> d           2.130   4.141   0.003  0.00  0.00    -0.328 N 
ATOM      8  C6  <0> d           1.154   3.164   0.008  0.00  0.00     0.065 A 
ATOM      9  C5  <0> d          -0.075   3.845   0.022  0.00  0.00     0.085 A 
ATOM     10  C7  <0> d           1.175   1.777   0.000  0.00  0.00    -0.055 A 
ATOM     11  N2  <0> d           0.208   5.173   0.026  0.00  0.00    -0.242 NA
ATOM     12  C10 <0> d          -1.266   3.114   0.030  0.00  0.00    -0.053 A 
ATOM     13  C4  <0> d           1.498   5.345   0.015  0.00  0.00     0.068 A 
ATOM     14  H4  <0> d           1.994   6.305   0.015  0.00  0.00     0.143 H 
ATOM     15  C9  <0> d          -1.226   1.748   0.017  0.00  0.00    -0.081 A 
ATOM     16  H8  <0> d          -2.216   3.627   0.042  0.00  0.00     0.087 H 
ATOM     17  C8  <0> d          -0.013   1.076   0.008  0.00  0.00    -0.081 A 
ATOM     18  H7  <0> d          -2.148   1.187   0.019  0.00  0.00     0.083 H 
ATOM     19  H6  <0> d           0.002  -0.004   0.002  0.00  0.00     0.083 H 
ATOM     20  H5  <0> d           2.117   1.248  -0.011  0.00  0.00     0.087 H 
ENDBRANCH   4   7
ENDBRANCH   2   4
TORSDOF 2
