REMARK  2 active torsions:
REMARK  status: ('A' for Active; 'I' for Inactive)
REMARK    1  A    between atoms: C3_6  and  N3_7 
REMARK       I    between atoms: N3_7  and  C4_8 
REMARK    2  A    between atoms: C4_8  and  C5_10 
ROOT
ATOM      1  C5  <0> d           1.280   1.980   0.001  0.00  0.00     0.088 C 
ATOM      2  C6  <0> d           2.412   1.039  -0.015  0.00  0.00     0.068 C 
ATOM      3  N4  <0> d           3.285   0.312  -0.028  0.00  0.00    -0.197 NA
ATOM      4  H5  <0> d           1.321   2.612  -0.887  0.00  0.00     0.069 H 
ATOM      5  H6  <0> d           1.338   2.603   0.893  0.00  0.00     0.069 H 
ENDROOT
BRANCH   1   6
ATOM      6  C4  <0> d          -0.014   1.209   0.009  0.00  0.00     0.236 C 
ATOM      7  N3  <0> d          -1.191   1.867   0.018  0.00  0.00    -0.311 N 
ATOM      8  H4  <0> d          -1.204   2.837   0.023  0.00  0.00     0.170 HD
ATOM      9  O1  <0> d           0.002  -0.004   0.002  0.00  0.00    -0.272 OA
BRANCH   7  10
ATOM     10  C3  <0> d          -2.389   1.153   0.020  0.00  0.00     0.125 A 
ATOM     11  C1  <0> d          -2.518  -0.202   0.013  0.00  0.00    -0.021 A 
ATOM     12  C2  <0> d          -3.883  -0.502   0.018  0.00  0.00     0.025 A 
ATOM     13  H2  <0> d          -1.709  -0.918   0.005  0.00  0.00     0.091 H 
ATOM     14  N1  <0> d          -4.551   0.623   0.027  0.00  0.00    -0.186 NA
ATOM     15  H3  <0> d          -4.313  -1.493   0.015  0.00  0.00     0.117 H 
ATOM     16  N2  <0> d          -3.634   1.681   0.034  0.00  0.00    -0.263 N 
ATOM     17  H1  <0> d          -3.859   2.656   0.048  0.00  0.00     0.190 HD
ENDBRANCH   7  10
ENDBRANCH   1   6
TORSDOF 2
