REMARK  1 active torsions:
REMARK  status: ('A' for Active; 'I' for Inactive)
REMARK    1  A    between atoms: C7_7  and  C9_10 
ROOT
ATOM      1  C1  <0> d          -3.549   1.339  -0.984  0.00  0.00    -0.061 C 
ATOM      2  C2  <0> d          -4.421   2.502  -0.633  0.00  0.00    -0.050 C 
ATOM      3  C3  <0> d          -3.756   3.831  -0.874  0.00  0.00    -0.107 C 
ATOM      4  C4  <0> d          -2.981   4.292   0.086  0.00  0.00    -0.106 C 
ATOM      5  C5  <0> d          -2.819   3.456   1.331  0.00  0.00    -0.049 C 
ATOM      6  C6  <0> d          -1.444   2.792   1.308  0.00  0.00    -0.050 C 
ATOM      7  C7  <0> d          -1.329   1.940   0.019  0.00  0.00     0.031 C 
ATOM      8  H1  <0> d          -1.399   2.583  -0.858  0.00  0.00     0.056 H 
ATOM      9  C8  <0> d          -2.491   0.931   0.019  0.00  0.00    -0.052 C 
ATOM     10  H2  <0> d          -3.047   1.570  -1.924  0.00  0.00     0.033 H 
ATOM     11  H3  <0> d          -4.195   0.479  -1.157  0.00  0.00     0.033 H 
ATOM     12  H4  <0> d          -5.330   2.452  -1.232  0.00  0.00     0.038 H 
ATOM     13  H5  <0> d          -4.693   2.431   0.420  0.00  0.00     0.038 H 
ATOM     14  H6  <0> d          -3.908   4.381  -1.790  0.00  0.00     0.076 H 
ATOM     15  H7  <0> d          -2.475   5.240  -0.016  0.00  0.00     0.076 H 
ATOM     16  H8  <0> d          -2.902   4.094   2.211  0.00  0.00     0.038 H 
ATOM     17  H9  <0> d          -3.594   2.690   1.359  0.00  0.00     0.038 H 
ATOM     18  H10 <0> d          -1.333   2.151   2.182  0.00  0.00     0.034 H 
ATOM     19  H11 <0> d          -0.668   3.557   1.310  0.00  0.00     0.034 H 
ATOM     20  H12 <0> d          -2.110  -0.056  -0.242  0.00  0.00     0.034 H 
ATOM     21  H13 <0> d          -2.935   0.893   1.014  0.00  0.00     0.034 H 
ENDROOT
BRANCH   7  22
ATOM     22  C9  <0> d          -0.014   1.204   0.009  0.00  0.00     0.177 C 
ATOM     23  O1  <0> d           0.002  -0.004   0.002  0.00  0.00    -0.648 OA
ATOM     24  O2  <0> d           1.139   1.891   0.001  0.00  0.00    -0.648 OA
ENDBRANCH   7  22
TORSDOF 1
