REMARK  2 active torsions:
REMARK  status: ('A' for Active; 'I' for Inactive)
REMARK    1  A    between atoms: C1_1  and  C2_2 
REMARK    2  A    between atoms: C6_6  and  O2_10 
ROOT
ATOM      1  C2  <0> d          -0.718   1.572   1.248  0.00  0.00    -0.058 A 
ATOM      2  C3  <0> d          -2.094   1.759   1.122  0.00  0.00    -0.074 A 
ATOM      3  C4  <0> d          -3.001   2.183   2.067  0.00  0.00    -0.044 A 
ATOM      4  C5  <0> d          -2.774   2.548   3.397  0.00  0.00     0.144 A 
ATOM      5  C6  <0> d          -1.571   2.566   4.093  0.00  0.00     0.153 A 
ATOM      6  C7  <0> d          -0.286   2.218   3.622  0.00  0.00     0.208 A 
ATOM      7  O1  <0> d           0.626   2.317   4.433  0.00  0.00    -0.285 OA
ATOM      8  C8  <0> d           0.079   1.773   2.338  0.00  0.00    -0.026 A 
ATOM      9  O3  <0> d          -3.868   2.934   4.099  0.00  0.00    -0.189 OA
ATOM     10  H4  <0> d          -2.506   1.536   0.149  0.00  0.00     0.084 H 
ATOM     11  H5  <0> d          -4.027   2.247   1.734  0.00  0.00     0.088 H 
ATOM     12  H6  <0> d           1.129   1.562   2.196  0.00  0.00     0.090 H 
ENDROOT
BRANCH   1  13
ATOM     13  C1  <0> d          -0.013   1.086   0.008  0.00  0.00    -0.051 C 
ATOM     14  H1  <0> d          -0.744   0.958  -0.804  0.00  0.00     0.033 H 
ATOM     15  H2  <0> d           0.475   0.122   0.217  0.00  0.00     0.033 H 
ATOM     16  H3  <0> d           0.746   1.822  -0.295  0.00  0.00     0.033 H 
ENDBRANCH   1  13
BRANCH   5  17
ATOM     17  O2  <0> d          -1.640   2.966   5.387  0.00  0.00    -0.355 OA
ATOM     18  H7  <0> d          -0.728   3.005   6.000  0.00  0.00     0.218 HD
ENDBRANCH   5  17
TORSDOF 2
