REMARK  4 active torsions:
REMARK  status: ('A' for Active; 'I' for Inactive)
REMARK    1  A    between atoms: C1_1  and  C2_2 
REMARK    2  A    between atoms: C3_4  and  N3_10 
REMARK    3  A    between atoms: C5_6  and  O1_8 
REMARK    4  A    between atoms: O1_8  and  C6_9 
ROOT
ATOM      1  C2  <0> d          -2.396   3.623   0.034  0.00  0.00     0.127 A 
ATOM      2  N1  <0> d          -1.250   2.973   0.030  0.00  0.00    -0.217 NA
ATOM      3  C3  <0> d          -1.221   1.643   0.017  0.00  0.00     0.127 A 
ATOM      4  C4  <0> d          -2.424   0.940   0.019  0.00  0.00     0.012 A 
ATOM      5  C5  <0> d          -3.608   1.664   0.029  0.00  0.00     0.169 A 
ATOM      6  N2  <0> d          -3.554   2.994   0.036  0.00  0.00    -0.210 NA
ATOM      7  H4  <0> d          -2.434  -0.140   0.012  0.00  0.00     0.096 H 
ENDROOT
BRANCH   5   8
ATOM      8  O1  <0> d          -4.804   1.026   0.031  0.00  0.00    -0.339 OA
BRANCH   8   9
ATOM      9  C6  <0> d          -5.976   1.843   0.042  0.00  0.00     0.012 C 
ATOM     10  H5  <0> d          -6.870   1.202   0.043  0.00  0.00     0.067 H 
ATOM     11  H6  <0> d          -5.985   2.483  -0.853  0.00  0.00     0.067 H 
ATOM     12  H7  <0> d          -5.976   2.474   0.944  0.00  0.00     0.067 H 
ENDBRANCH   8   9
ENDBRANCH   5   8
BRANCH   3  13
ATOM     13  N3  <0> d          -0.011   0.966   0.007  0.00  0.00    -0.384 N 
ATOM     14  H8  <0> d           0.004  -0.134  -0.003  0.00  0.00     0.157 HD
ATOM     15  H9  <0> d           0.934   1.529   0.011  0.00  0.00     0.157 HD
ENDBRANCH   3  13
BRANCH   1  16
ATOM     16  C1  <0> d          -2.383   5.130   0.042  0.00  0.00    -0.019 C 
ATOM     17  H1  <0> d          -1.343   5.488   0.039  0.00  0.00     0.037 H 
ATOM     18  H2  <0> d          -2.894   5.496   0.945  0.00  0.00     0.037 H 
ATOM     19  H3  <0> d          -2.903   5.506  -0.851  0.00  0.00     0.037 H 
ENDBRANCH   1  16
TORSDOF 4
