REMARK  2 active torsions:
REMARK  status: ('A' for Active; 'I' for Inactive)
REMARK    1  A    between atoms: C3_3  and  N3_9 
REMARK    2  A    between atoms: C4_5  and  N2_8 
ROOT
ATOM      1  C1  <0> d          -3.623   1.613   0.028  0.00  0.00    -0.001 A 
ATOM      2  C2  <0> d          -3.596   2.999   0.035  0.00  0.00     0.164 A 
ATOM      3  C3  <0> d          -2.370   3.655   0.033  0.00  0.00     0.162 A 
ATOM      4  N1  <0> d          -1.236   2.970   0.029  0.00  0.00    -0.208 NA
ATOM      5  C4  <0> d          -1.227   1.646   0.017  0.00  0.00     0.162 A 
ATOM      6  C5  <0> d          -2.417   0.927   0.019  0.00  0.00     0.164 A 
ATOM      7  F1  <0> d          -2.400  -0.424   0.012  0.00  0.00    -0.202 F 
ATOM      8  F2  <0> d          -4.749   3.704   0.045  0.00  0.00    -0.202 F 
ATOM      9  H1  <0> d          -4.561   1.079   0.030  0.00  0.00     0.093 H 
ENDROOT
BRANCH   3  10
ATOM     10  N3  <0> d          -2.334   5.048   0.040  0.00  0.00    -0.381 N 
ATOM     11  H4  <0> d          -3.161   5.555   0.046  0.00  0.00     0.157 HD
ATOM     12  H5  <0> d          -1.481   5.511   0.039  0.00  0.00     0.157 HD
ENDBRANCH   3  10
BRANCH   5  13
ATOM     13  N2  <0> d          -0.011   0.966   0.007  0.00  0.00    -0.381 N 
ATOM     14  H2  <0> d           0.002  -0.004   0.002  0.00  0.00     0.157 HD
ATOM     15  H3  <0> d           0.822   1.462   0.002  0.00  0.00     0.157 HD
ENDBRANCH   5  13
TORSDOF 2
