REMARK  1 active torsions:
REMARK  status: ('A' for Active; 'I' for Inactive)
REMARK    1  A    between atoms: C5_5  and  O1_7 
ROOT
ATOM      1  C1  <0> d           0.002  -0.004   0.002  0.00  0.00    -0.080 A 
ATOM      2  C2  <0> d          -0.017   1.381   0.010  0.00  0.00    -0.076 A 
ATOM      3  C3  <0> d           1.163   2.097   0.002  0.00  0.00    -0.041 A 
ATOM      4  C4  <0> d           2.386   1.425  -0.013  0.00  0.00     0.049 A 
ATOM      5  C5  <0> d           2.398   0.016  -0.021  0.00  0.00     0.080 A 
ATOM      6  C6  <0> d           1.203  -0.684  -0.013  0.00  0.00    -0.050 A 
ATOM      7  C7  <0> d           3.502   2.379  -0.019  0.00  0.00     0.163 A 
ATOM      8  O2  <0> d           4.682   2.095  -0.032  0.00  0.00    -0.292 OA
ATOM      9  C8  <0> d           2.929   3.775  -0.007  0.00  0.00    -0.001 A 
ATOM     10  C9  <0> d           1.405   3.588   0.007  0.00  0.00    -0.034 A 
ATOM     11  H1  <0> d          -0.927  -0.554   0.008  0.00  0.00     0.083 H 
ATOM     12  H2  <0> d          -0.962   1.904   0.017  0.00  0.00     0.084 H 
ATOM     13  H3  <0> d           1.211  -1.764  -0.020  0.00  0.00     0.087 H 
ATOM     14  H5  <0> d           3.236   4.269  -0.820  0.00  0.00     0.045 H 
ATOM     15  H6  <0> d           3.252   4.310   0.886  0.00  0.00     0.045 H 
ATOM     16  H7  <0> d           0.964   4.042  -0.880  0.00  0.00     0.040 H 
ATOM     17  H8  <0> d           0.981   4.033   0.907  0.00  0.00     0.040 H 
ENDROOT
BRANCH   5  18
ATOM     18  O1  <0> d           3.578  -0.653  -0.036  0.00  0.00    -0.360 OA
ATOM     19  H4  <0> d           3.911  -0.843  -0.924  0.00  0.00     0.217 HD
ENDBRANCH   5  18
TORSDOF 1
