REMARK  5 active torsions:
REMARK  status: ('A' for Active; 'I' for Inactive)
REMARK    1  A    between atoms: C1_1  and  C2_2 
REMARK    2  A    between atoms: C4_4  and  N3_10 
REMARK    3  A    between atoms: N2_6  and  C5_7 
REMARK    4  A    between atoms: C5_7  and  C6_8 
REMARK    5  A    between atoms: C5_7  and  C7_9 
ROOT
ATOM      1  C2  <0> d          -2.725   3.304   0.033  0.00  0.00     0.031 A 
ATOM      2  C3  <0> d          -1.398   3.044   0.031  0.00  0.00    -0.015 A 
ATOM      3  C4  <0> d          -1.233   1.649   0.017  0.00  0.00     0.143 A 
ATOM      4  N1  <0> d          -2.424   1.099   0.020  0.00  0.00    -0.154 NA
ATOM      5  N2  <0> d          -3.379   2.124   0.030  0.00  0.00    -0.268 N 
ATOM      6  H4  <0> d          -0.606   3.778   0.037  0.00  0.00     0.092 H 
ENDROOT
BRANCH   5   7
ATOM      7  C5  <0> d          -4.833   1.945   0.036  0.00  0.00     0.028 C 
ATOM      8  H5  <0> d          -5.319   2.921   0.043  0.00  0.00     0.074 H 
BRANCH   7   9
ATOM      9  C6  <0> d          -5.257   1.173  -1.215  0.00  0.00    -0.056 C 
ATOM     10  H6  <0> d          -4.771   0.197  -1.222  0.00  0.00     0.030 H 
ATOM     11  H7  <0> d          -6.339   1.040  -1.210  0.00  0.00     0.030 H 
ATOM     12  H8  <0> d          -4.964   1.731  -2.103  0.00  0.00     0.030 H 
ENDBRANCH   7   9
BRANCH   7  13
ATOM     13  C7  <0> d          -5.245   1.161   1.284  0.00  0.00    -0.056 C 
ATOM     14  H9  <0> d          -6.327   1.028   1.288  0.00  0.00     0.030 H 
ATOM     15  H10 <0> d          -4.759   0.185   1.277  0.00  0.00     0.030 H 
ATOM     16  H11 <0> d          -4.943   1.711   2.175  0.00  0.00     0.030 H 
ENDBRANCH   7  13
ENDBRANCH   5   7
BRANCH   1  17
ATOM     17  C1  <0> d          -3.361   4.670   0.042  0.00  0.00    -0.036 C 
ATOM     18  H1  <0> d          -3.510   4.995   1.072  0.00  0.00     0.035 H 
ATOM     19  H2  <0> d          -2.710   5.378  -0.471  0.00  0.00     0.035 H 
ATOM     20  H3  <0> d          -4.324   4.627  -0.467  0.00  0.00     0.035 H 
ENDBRANCH   1  17
BRANCH   3  21
ATOM     21  N3  <0> d          -0.011   0.966   0.007  0.00  0.00    -0.383 N 
ATOM     22  H12 <0> d           0.002  -0.004   0.002  0.00  0.00     0.157 HD
ATOM     23  H13 <0> d           0.822   1.462   0.002  0.00  0.00     0.157 HD
ENDBRANCH   3  21
TORSDOF 5
