REMARK  1 active torsions:
REMARK  status: ('A' for Active; 'I' for Inactive)
REMARK    1  A    between atoms: C1_1  and  C2_2 
ROOT
ATOM      1  C2  <0> d          -0.742   1.585  -1.213  0.00  0.00     0.123 A 
ATOM      2  N1  <0> d          -0.183   1.843  -2.362  0.00  0.00    -0.232 NA
ATOM      3  C3  <0> d          -1.121   2.271  -3.237  0.00  0.00     0.090 A 
ATOM      4  C4  <0> d          -1.109   2.680  -4.575  0.00  0.00    -0.036 A 
ATOM      5  C5  <0> d          -2.284   3.059  -5.160  0.00  0.00     0.004 A 
ATOM      6  N2  <0> d          -3.424   3.048  -4.489  0.00  0.00    -0.271 NA
ATOM      7  C6  <0> d          -3.495   2.673  -3.227  0.00  0.00     0.032 A 
ATOM      8  C7  <0> d          -2.353   2.271  -2.553  0.00  0.00     0.105 A 
ATOM      9  N3  <0> d          -2.078   1.826  -1.277  0.00  0.00    -0.230 NA
ATOM     10  H4  <0> d          -0.186   2.695  -5.136  0.00  0.00     0.089 H 
ATOM     11  H5  <0> d          -2.282   3.376  -6.192  0.00  0.00     0.114 H 
ATOM     12  H6  <0> d          -4.447   2.679  -2.717  0.00  0.00     0.118 H 
ENDROOT
BRANCH   1  13
ATOM     13  C1  <0> d          -0.013   1.086   0.008  0.00  0.00    -0.019 C 
ATOM     14  H1  <0> d           0.002  -0.004   0.002  0.00  0.00     0.037 H 
ATOM     15  H2  <0> d           1.010   1.463   0.000  0.00  0.00     0.037 H 
ATOM     16  H3  <0> d          -0.523   1.437   0.905  0.00  0.00     0.037 H 
ENDBRANCH   1  13
TORSDOF 1
