REMARK  5 active torsions:
REMARK  status: ('A' for Active; 'I' for Inactive)
REMARK    1  A    between atoms: C1_1  and  C2_2 
REMARK    2  A    between atoms: C2_2  and  C3_3 
REMARK    3  A    between atoms: C3_3  and  C4_5 
REMARK    4  A    between atoms: C5_6  and  C9_12 
REMARK    5  A    between atoms: C7_10  and  C8_11 
ROOT
ATOM      1  C4  <0> d          -1.660  -1.969   0.007  0.00  0.00     0.039 A 
ATOM      2  C5  <0> d          -0.654  -3.040  -0.002  0.00  0.00    -0.031 A 
ATOM      3  C6  <0> d          -1.335  -4.198  -0.004  0.00  0.00    -0.016 A 
ATOM      4  N1  <0> d          -2.674  -3.931   0.003  0.00  0.00    -0.368 N 
ATOM      5  H1  <0> d          -3.373  -4.604   0.003  0.00  0.00     0.165 HD
ATOM      6  C7  <0> d          -2.888  -2.603   0.016  0.00  0.00     0.019 A 
ATOM      7  H7  <0> d          -0.894  -5.184  -0.011  0.00  0.00     0.112 H 
ENDROOT
BRANCH   1   8
ATOM      8  C3  <0> d          -1.412  -0.526   0.013  0.00  0.00     0.161 C 
ATOM      9  O1  <0> d          -2.345   0.250   0.026  0.00  0.00    -0.292 OA
BRANCH   8  10
ATOM     10  C2  <0> d           0.002  -0.004   0.002  0.00  0.00    -0.008 C 
ATOM     11  H5  <0> d           0.512  -0.356  -0.895  0.00  0.00     0.044 H 
ATOM     12  H6  <0> d           0.529  -0.365   0.885  0.00  0.00     0.044 H 
BRANCH  10  13
ATOM     13  C1  <0> d          -0.019   1.526   0.010  0.00  0.00    -0.070 C 
ATOM     14  H2  <0> d           1.004   1.903   0.003  0.00  0.00     0.028 H 
ATOM     15  H3  <0> d          -0.546   1.887  -0.873  0.00  0.00     0.028 H 
ATOM     16  H4  <0> d          -0.529   1.877   0.907  0.00  0.00     0.028 H 
ENDBRANCH  10  13
ENDBRANCH   8  10
ENDBRANCH   1   8
BRANCH   6  17
ATOM     17  C8  <0> d          -4.233  -1.925   0.033  0.00  0.00    -0.037 C 
ATOM     18  H8  <0> d          -4.568  -1.755  -0.991  0.00  0.00     0.035 H 
ATOM     19  H9  <0> d          -4.953  -2.559   0.550  0.00  0.00     0.035 H 
ATOM     20  H10 <0> d          -4.152  -0.969   0.552  0.00  0.00     0.035 H 
ENDBRANCH   6  17
BRANCH   2  21
ATOM     21  C9  <0> d           0.843  -2.873  -0.007  0.00  0.00    -0.049 C 
ATOM     22  H11 <0> d           1.209  -2.837   1.019  0.00  0.00     0.033 H 
ATOM     23  H12 <0> d           1.301  -3.715  -0.526  0.00  0.00     0.033 H 
ATOM     24  H13 <0> d           1.104  -1.946  -0.518  0.00  0.00     0.033 H 
ENDBRANCH   2  21
TORSDOF 5
