REMARK  1 active torsions:
REMARK  status: ('A' for Active; 'I' for Inactive)
REMARK    1  A    between atoms: C2_2  and  N2_10 
ROOT
ATOM      1  C1  <0> d          -2.934   2.509  -1.722  0.00  0.00    -0.048 A 
ATOM      2  C2  <0> d          -2.513   2.614  -3.045  0.00  0.00     0.044 A 
ATOM      3  C3  <0> d          -1.228   2.203  -3.374  0.00  0.00     0.028 A 
ATOM      4  N1  <0> d          -0.420   1.722  -2.453  0.00  0.00    -0.263 NA
ATOM      5  C4  <0> d          -0.785   1.607  -1.186  0.00  0.00     0.040 A 
ATOM      6  C5  <0> d          -2.050   1.997  -0.785  0.00  0.00    -0.031 A 
ATOM      7  C6  <0> d          -2.214   1.766   0.700  0.00  0.00    -0.039 C 
ATOM      8  C7  <0> d          -0.776   1.604   1.245  0.00  0.00    -0.056 C 
ATOM      9  C8  <0> d          -0.013   1.086   0.008  0.00  0.00    -0.024 C 
ATOM     10  H1  <0> d          -3.927   2.820  -1.432  0.00  0.00     0.087 H 
ATOM     11  H2  <0> d          -0.888   2.279  -4.396  0.00  0.00     0.118 H 
ATOM     12  H3  <0> d          -2.700   2.623   1.165  0.00  0.00     0.040 H 
ATOM     13  H4  <0> d          -2.791   0.859   0.880  0.00  0.00     0.040 H 
ATOM     14  H5  <0> d          -0.746   0.873   2.053  0.00  0.00     0.034 H 
ATOM     15  H6  <0> d          -0.376   2.563   1.574  0.00  0.00     0.034 H 
ATOM     16  H7  <0> d           0.002  -0.004   0.002  0.00  0.00     0.042 H 
ATOM     17  H8  <0> d           1.005   1.477   0.000  0.00  0.00     0.042 H 
ENDROOT
BRANCH   2  18
ATOM     18  N2  <0> d          -3.369   3.125  -4.024  0.00  0.00    -0.398 N 
ATOM     19  H9  <0> d          -4.264   3.410  -3.785  0.00  0.00     0.156 HD
ATOM     20  H10 <0> d          -3.067   3.194  -4.944  0.00  0.00     0.156 HD
ENDBRANCH   2  18
TORSDOF 1
