REMARK  2 active torsions:
REMARK  status: ('A' for Active; 'I' for Inactive)
REMARK    1  A    between atoms: C1_1  and  C2_2 
REMARK    2  A    between atoms: C3_4  and  C6_9 
ROOT
ATOM      1  C2  <0> d          -3.614   2.030   0.031  0.00  0.00     0.103 A 
ATOM      2  N1  <0> d          -2.462   1.395   0.021  0.00  0.00    -0.339 N 
ATOM      3  C3  <0> d          -1.311   2.067   0.019  0.00  0.00     0.115 A 
ATOM      4  C4  <0> d          -1.343   3.458   0.033  0.00  0.00     0.004 A 
ATOM      5  C5  <0> d          -2.588   4.090   0.037  0.00  0.00     0.204 A 
ATOM      6  N2  <0> d          -3.686   3.346   0.039  0.00  0.00    -0.209 NA
ATOM      7  O1  <0> d          -2.672   5.442   0.045  0.00  0.00    -0.170 OA
ATOM      8  H4  <0> d          -0.429   4.034   0.036  0.00  0.00     0.094 H 
ATOM      9  H5  <0> d          -2.440   0.295   0.015  0.00  0.00     0.167 HD
ENDROOT
BRANCH   1  10
ATOM     10  C1  <0> d          -4.890   1.228   0.032  0.00  0.00    -0.021 C 
ATOM     11  H1  <0> d          -4.649   0.155   0.025  0.00  0.00     0.037 H 
ATOM     12  H2  <0> d          -5.481   1.477  -0.862  0.00  0.00     0.037 H 
ATOM     13  H3  <0> d          -5.473   1.467   0.934  0.00  0.00     0.037 H 
ENDBRANCH   1  10
BRANCH   3  14
ATOM     14  C6  <0> d          -0.016   1.342   0.009  0.00  0.00     0.227 C 
ATOM     15  O2  <0> d           1.027   1.963   0.003  0.00  0.00    -0.643 OA
ATOM     16  O3  <0> d           0.002  -0.004   0.002  0.00  0.00    -0.643 OA
ENDBRANCH   3  14
TORSDOF 2
