REMARK  2 active torsions:
REMARK  status: ('A' for Active; 'I' for Inactive)
REMARK    1  A    between atoms: C1_1  and  C2_2 
REMARK    2  A    between atoms: C6_7  and  N4_11 
ROOT
ATOM      1  C2  <0> d          -3.317   2.380   0.045  0.00  0.00     0.055 A 
ATOM      2  C3  <0> d          -2.535   3.524   0.044  0.00  0.00    -0.012 A 
ATOM      3  C4  <0> d          -1.203   3.124   0.029  0.00  0.00     0.152 A 
ATOM      4  N1  <0> d          -0.053   3.810   0.022  0.00  0.00    -0.239 NA
ATOM      5  C5  <0> d           1.102   3.189   0.008  0.00  0.00     0.031 A 
ATOM      6  C6  <0> d           1.151   1.782   0.001  0.00  0.00     0.061 A 
ATOM      7  C7  <0> d          -0.013   1.076   0.008  0.00  0.00     0.033 A 
ATOM      8  N2  <0> d          -1.200   1.753   0.017  0.00  0.00    -0.224 N 
ATOM      9  N3  <0> d          -2.533   1.325   0.033  0.00  0.00    -0.171 NA
ATOM     10  H4  <0> d          -2.894   4.542   0.052  0.00  0.00     0.092 H 
ATOM     11  H5  <0> d           2.020   3.759   0.002  0.00  0.00     0.118 H 
ATOM     12  H6  <0> d           0.002  -0.004   0.002  0.00  0.00     0.118 H 
ENDROOT
BRANCH   1  13
ATOM     13  C1  <0> d          -4.824   2.350   0.060  0.00  0.00    -0.034 C 
ATOM     14  H1  <0> d          -5.197   2.349  -0.964  0.00  0.00     0.035 H 
ATOM     15  H2  <0> d          -5.164   1.451   0.572  0.00  0.00     0.035 H 
ATOM     16  H3  <0> d          -5.199   3.231   0.582  0.00  0.00     0.035 H 
ENDBRANCH   1  13
BRANCH   6  17
ATOM     17  N4  <0> d           2.384   1.116  -0.014  0.00  0.00    -0.397 N 
ATOM     18  H7  <0> d           2.411   0.146  -0.019  0.00  0.00     0.156 HD
ATOM     19  H8  <0> d           3.209   1.624  -0.019  0.00  0.00     0.156 HD
ENDBRANCH   6  17
TORSDOF 2
