REMARK  1 active torsions:
REMARK  status: ('A' for Active; 'I' for Inactive)
REMARK    1  A    between atoms: C3_4  and  N3_8 
ROOT
ATOM      1  C1  <0> d          -0.016   1.340   0.009  0.00  0.00     0.092 A 
ATOM      2  N1  <0> d           0.002  -0.004   0.002  0.00  0.00    -0.227 NA
ATOM      3  C2  <0> d           1.186  -0.683  -0.013  0.00  0.00     0.159 A 
ATOM      4  C3  <0> d           2.351   0.019  -0.021  0.00  0.00     0.137 A 
ATOM      5  C4  <0> d           2.287   1.437  -0.012  0.00  0.00     0.297 A 
ATOM      6  O1  <0> d           3.312   2.101  -0.018  0.00  0.00    -0.264 OA
ATOM      7  N2  <0> d           1.087   2.040   0.003  0.00  0.00    -0.201 NA
ATOM      8 Cl1  <0> d           1.206  -2.419  -0.024  0.00  0.00    -0.060 Cl
ATOM      9  H1  <0> d          -0.966   1.854   0.017  0.00  0.00     0.146 H 
ENDROOT
BRANCH   4  10
ATOM     10  N3  <0> d           3.589  -0.643  -0.037  0.00  0.00    -0.392 N 
ATOM     11  H2  <0> d           4.523  -0.062  -0.043  0.00  0.00     0.156 HD
ATOM     12  H3  <0> d           3.625  -1.742  -0.044  0.00  0.00     0.156 HD
ENDBRANCH   4  10
TORSDOF 1
