REMARK  7 active torsions:
REMARK  status: ('A' for Active; 'I' for Inactive)
REMARK    1  A    between atoms: C1_1  and  C2_2 
REMARK    2  A    between atoms: C2_2  and  C3_4 
REMARK    3  A    between atoms: C3_4  and  C4_6 
REMARK    4  A    between atoms: C3_4  and  O4_12 
REMARK    5  A    between atoms: C4_6  and  C5_8 
REMARK    6  A    between atoms: C4_6  and  O3_11 
REMARK    7  A    between atoms: C5_8  and  C6_10 
ROOT
ATOM      1  C3  <0> d          -1.293  -0.775   0.010  0.00  0.00     0.123 C 
ATOM      2  H1  <0> d          -2.001  -0.288   0.680  0.00  0.00     0.099 H 
ENDROOT
BRANCH   1   3
ATOM      3  C2  <0> d           0.002  -0.004   0.002  0.00  0.00     0.154 C 
ATOM      4  O1  <0> d           1.056  -0.594  -0.011  0.00  0.00    -0.295 OA
BRANCH   3   5
ATOM      5  C1  <0> d          -0.018   1.503   0.010  0.00  0.00    -0.018 C 
ATOM      6  H3  <0> d           1.004   1.880   0.003  0.00  0.00     0.037 H 
ATOM      7  H4  <0> d          -0.545   1.864  -0.873  0.00  0.00     0.037 H 
ATOM      8  H5  <0> d          -0.529   1.854   0.907  0.00  0.00     0.037 H 
ENDBRANCH   3   5
ENDBRANCH   1   3
BRANCH   1   9
ATOM      9  C4  <0> d          -1.873  -0.813  -1.405  0.00  0.00     0.123 C 
ATOM     10  H2  <0> d          -1.164  -1.300  -2.075  0.00  0.00     0.099 H 
BRANCH   9  11
ATOM     11  C5  <0> d          -3.167  -1.585  -1.397  0.00  0.00     0.154 C 
ATOM     12  O2  <0> d          -4.220  -0.998  -1.475  0.00  0.00    -0.295 OA
BRANCH  11  13
ATOM     13  C6  <0> d          -3.148  -3.088  -1.291  0.00  0.00    -0.018 C 
ATOM     14  H6  <0> d          -3.180  -3.379  -0.241  0.00  0.00     0.037 H 
ATOM     15  H7  <0> d          -4.015  -3.499  -1.809  0.00  0.00     0.037 H 
ATOM     16  H8  <0> d          -2.236  -3.473  -1.748  0.00  0.00     0.037 H 
ENDBRANCH  11  13
ENDBRANCH   9  11
BRANCH   9  17
ATOM     17  O3  <0> d          -2.115   0.520  -1.856  0.00  0.00    -0.385 OA
ATOM     18  H9  <0> d          -2.738   1.015  -1.306  0.00  0.00     0.210 HD
ENDBRANCH   9  17
ENDBRANCH   1   9
BRANCH   1  19
ATOM     19  O4  <0> d          -1.050  -2.109   0.462  0.00  0.00    -0.385 OA
ATOM     20  H10 <0> d          -0.427  -2.603  -0.089  0.00  0.00     0.210 HD
ENDBRANCH   1  19
TORSDOF 7
