REMARK  4 active torsions:
REMARK  status: ('A' for Active; 'I' for Inactive)
REMARK    1  A    between atoms: C1_1  and  C2_2 
REMARK    2  A    between atoms: C5_5  and  C9_10 
REMARK    3  A    between atoms: C6_6  and  O1_8 
REMARK    4  A    between atoms: O1_8  and  C8_9 
ROOT
ATOM      1  C2  <0> d          -1.242   3.133   0.031  0.00  0.00    -0.059 A 
ATOM      2  C3  <0> d          -1.219   1.750   0.017  0.00  0.00    -0.077 A 
ATOM      3  C4  <0> d          -0.013   1.076   0.008  0.00  0.00    -0.074 A 
ATOM      4  C5  <0> d           1.175   1.782   0.000  0.00  0.00    -0.029 A 
ATOM      5  C6  <0> d           1.155   3.169   0.008  0.00  0.00     0.074 A 
ATOM      6  C7  <0> d          -0.057   3.844   0.023  0.00  0.00    -0.045 A 
ATOM      7  H4  <0> d          -2.147   1.196   0.018  0.00  0.00     0.084 H 
ATOM      8  H5  <0> d           0.002  -0.004   0.002  0.00  0.00     0.084 H 
ATOM      9  H6  <0> d          -0.075   4.923   0.029  0.00  0.00     0.088 H 
ENDROOT
BRANCH   5  10
ATOM     10  O1  <0> d           2.322   3.866   0.001  0.00  0.00    -0.355 OA
BRANCH  10  11
ATOM     11  C8  <0> d           2.226   5.292   0.010  0.00  0.00     0.010 C 
ATOM     12  H7  <0> d           1.680   5.625  -0.874  0.00  0.00     0.066 H 
ATOM     13  H8  <0> d           1.697   5.615   0.906  0.00  0.00     0.066 H 
ATOM     14  H9  <0> d           3.226   5.724   0.003  0.00  0.00     0.066 H 
ENDBRANCH  10  11
ENDBRANCH   5  10
BRANCH   4  15
ATOM     15  C9  <0> d           2.490   1.047  -0.017  0.00  0.00    -0.049 C 
ATOM     16  H10 <0> d           2.797   0.875  -1.048  0.00  0.00     0.033 H 
ATOM     17  H11 <0> d           3.247   1.643   0.493  0.00  0.00     0.033 H 
ATOM     18  H12 <0> d           2.377   0.090   0.493  0.00  0.00     0.033 H 
ENDBRANCH   4  15
BRANCH   1  19
ATOM     19  C1  <0> d          -2.559   3.865   0.047  0.00  0.00    -0.051 C 
ATOM     20  H1  <0> d          -2.886   4.046  -0.977  0.00  0.00     0.033 H 
ATOM     21  H2  <0> d          -3.304   3.260   0.565  0.00  0.00     0.033 H 
ATOM     22  H3  <0> d          -2.439   4.816   0.564  0.00  0.00     0.033 H 
ENDBRANCH   1  19
TORSDOF 4
