REMARK  0 active torsions:
REMARK  status: ('A' for Active; 'I' for Inactive)
ROOT
ATOM      1  C1  <0> d          -0.016   1.314   0.009  0.00  0.00     0.041 A 
ATOM      2  C2  <0> d           1.161   2.041   0.002  0.00  0.00     0.157 A 
ATOM      3  C3  <0> d           2.383   1.354  -0.013  0.00  0.00     0.124 A 
ATOM      4  C4  <0> d           2.352  -0.047  -0.021  0.00  0.00     0.157 A 
ATOM      5  C5  <0> d           1.127  -0.690  -0.012  0.00  0.00     0.041 A 
ATOM      6  N1  <0> d           0.002  -0.004   0.002  0.00  0.00    -0.267 NA
ATOM      7  F1  <0> d           3.501  -0.759  -0.036  0.00  0.00    -0.203 F 
ATOM      8  C6  <0> d           3.627   2.064  -0.022  0.00  0.00     0.106 C 
ATOM      9  N2  <0> d           4.614   2.627  -0.029  0.00  0.00    -0.191 NA
ATOM     10  F2  <0> d           1.133   3.392   0.009  0.00  0.00    -0.203 F 
ATOM     11  H1  <0> d          -0.963   1.833   0.026  0.00  0.00     0.119 H 
ATOM     12  H2  <0> d           1.093  -1.770  -0.018  0.00  0.00     0.119 H 
ENDROOT
TORSDOF 0
