REMARK  2 active torsions:
REMARK  status: ('A' for Active; 'I' for Inactive)
REMARK    1  A    between atoms: C1_1  and  C2_2 
REMARK       I    between atoms: C2_2  and  N1_4 
REMARK    2  A    between atoms: N1_4  and  C3_5 
ROOT
ATOM      1  C3  <0> d          -2.376   1.164  -0.085  0.00  0.00     0.110 A 
ATOM      2  C4  <0> d          -3.568   1.846  -0.173  0.00  0.00    -0.040 A 
ATOM      3  C5  <0> d          -4.765   1.136  -0.281  0.00  0.00    -0.074 A 
ATOM      4  C6  <0> d          -4.731  -0.242  -0.287  0.00  0.00    -0.017 A 
ATOM      5  C7  <0> d          -3.500  -0.902  -0.190  0.00  0.00     0.246 A 
ATOM      6  O2  <0> d          -3.463  -2.123  -0.196  0.00  0.00    -0.268 OA
ATOM      7  N2  <0> d          -2.357  -0.198  -0.092  0.00  0.00    -0.309 N 
ATOM      8  H1  <0> d          -1.400  -0.735  -0.017  0.00  0.00     0.170 HD
ATOM      9  H6  <0> d          -3.578   2.926  -0.163  0.00  0.00     0.089 H 
ATOM     10  H7  <0> d          -5.706   1.659  -0.355  0.00  0.00     0.083 H 
ATOM     11  H8  <0> d          -5.647  -0.808  -0.367  0.00  0.00     0.092 H 
ENDROOT
BRANCH   1  12
ATOM     12  N1  <0> d          -1.191   1.866   0.018  0.00  0.00    -0.313 N 
ATOM     13  C2  <0> d          -0.014   1.211  -0.024  0.00  0.00     0.219 C 
ATOM     14  O1  <0> d           0.005  -0.001  -0.061  0.00  0.00    -0.274 OA
ATOM     15  H5  <0> d          -1.207   2.960   0.133  0.00  0.00     0.170 HD
BRANCH  13  16
ATOM     16  C1  <0> d           1.280   1.985  -0.031  0.00  0.00    -0.003 C 
ATOM     17  H2  <0> d           1.063   3.062   0.007  0.00  0.00     0.040 H 
ATOM     18  H3  <0> d           1.839   1.755  -0.950  0.00  0.00     0.040 H 
ATOM     19  H4  <0> d           1.881   1.701   0.845  0.00  0.00     0.040 H 
ENDBRANCH  13  16
ENDBRANCH   1  12
TORSDOF 2
