REMARK  3 active torsions:
REMARK  status: ('A' for Active; 'I' for Inactive)
REMARK    1  A    between atoms: C1_1  and  C2_2 
REMARK       I    between atoms: C2_2  and  N1_4 
REMARK    2  A    between atoms: N1_4  and  C3_5 
REMARK    3  A    between atoms: C3_5  and  C5_9 
REMARK       I    between atoms: C5_9  and  N3_11 
ROOT
ATOM      1  C3  <0> d          -2.482   0.853   0.018  0.00  0.00     0.173 C 
ATOM      2  H1  <0> d          -2.535   0.230  -0.875  0.00  0.00     0.111 H 
ATOM      3  C4  <0> d          -2.543  -0.001   1.216  0.00  0.00     0.094 C 
ATOM      4  N2  <0> d          -2.590  -0.660   2.140  0.00  0.00    -0.195 NA
ENDROOT
BRANCH   1   5
ATOM      5  N1  <0> d          -3.608   1.789   0.029  0.00  0.00    -0.337 N 
ATOM      6  C2  <0> d          -4.805   1.410  -0.461  0.00  0.00     0.215 C 
ATOM      7  O1  <0> d          -4.950   0.292  -0.910  0.00  0.00    -0.274 OA
ATOM      8  H5  <0> d          -3.493   2.683   0.388  0.00  0.00     0.164 HD
BRANCH   6   9
ATOM      9  C1  <0> d          -5.964   2.373  -0.450  0.00  0.00    -0.003 C 
ATOM     10  H2  <0> d          -5.970   2.945  -1.378  0.00  0.00     0.040 H 
ATOM     11  H3  <0> d          -6.897   1.818  -0.359  0.00  0.00     0.040 H 
ATOM     12  H4  <0> d          -5.862   3.054   0.395  0.00  0.00     0.040 H 
ENDBRANCH   6   9
ENDBRANCH   1   5
BRANCH   1  13
ATOM     13  C5  <0> d          -1.187   1.624   0.017  0.00  0.00     0.252 C 
ATOM     14  O2  <0> d          -1.204   2.837   0.023  0.00  0.00    -0.270 OA
ATOM     15  N3  <0> d          -0.011   0.966   0.007  0.00  0.00    -0.368 N 
ATOM     16  H6  <0> d           0.002  -0.004   0.002  0.00  0.00     0.159 HD
ATOM     17  H7  <0> d           0.822   1.462   0.002  0.00  0.00     0.159 HD
ENDBRANCH   1  13
TORSDOF 3
