REMARK  5 active torsions:
REMARK  status: ('A' for Active; 'I' for Inactive)
REMARK    1  A    between atoms: C1_1  and  C2_2 
REMARK    2  A    between atoms: C2_2  and  C3_3 
REMARK    3  A    between atoms: C3_3  and  C4_5 
REMARK    4  A    between atoms: C3_3  and  C5_6 
REMARK    5  A    between atoms: C5_6  and  C6_8 
ROOT
ATOM      1  C5  <0> d          -0.761   1.454   3.743  0.00  0.00     0.134 C 
ATOM      2  O1  <0> d          -1.504   2.405   3.721  0.00  0.00    -0.297 OA
ENDROOT
BRANCH   1   3
ATOM      3  C3  <0> d           0.011   1.072   2.506  0.00  0.00     0.000 C 
ATOM      4  H1  <0> d           0.096   0.077   2.460  0.00  0.00     0.051 H 
BRANCH   3   5
ATOM      5  C2  <0> d          -0.729   1.579   1.267  0.00  0.00    -0.059 C 
ATOM      6  H5  <0> d          -0.744   2.669   1.273  0.00  0.00     0.033 H 
ATOM      7  H6  <0> d          -1.751   1.202   1.275  0.00  0.00     0.033 H 
BRANCH   5   8
ATOM      8  C1  <0> d          -0.013   1.086   0.008  0.00  0.00    -0.076 C 
ATOM      9  H2  <0> d           0.002  -0.004   0.002  0.00  0.00     0.027 H 
ATOM     10  H3  <0> d           1.010   1.463   0.000  0.00  0.00     0.027 H 
ATOM     11  H4  <0> d          -0.540   1.447  -0.875  0.00  0.00     0.027 H 
ENDBRANCH   5   8
ENDBRANCH   3   5
BRANCH   3  12
ATOM     12  C4  <0> d           1.405   1.701   2.561  0.00  0.00    -0.066 C 
ATOM     13  H7  <0> d           1.312   2.786   2.611  0.00  0.00     0.028 H 
ATOM     14  H8  <0> d           1.932   1.340   3.444  0.00  0.00     0.028 H 
ATOM     15  H9  <0> d           1.963   1.425   1.666  0.00  0.00     0.028 H 
ENDBRANCH   3  12
ENDBRANCH   1   3
BRANCH   1  16
ATOM     16  C6  <0> d          -0.605   0.648   5.007  0.00  0.00     0.004 C 
ATOM     17  C10 <0> d          -0.961   1.512   6.230  0.00  0.00    -0.055 C 
ATOM     18  C9  <0> d          -2.151   0.820   6.926  0.00  0.00    -0.064 C 
ATOM     19  H17 <0> d          -0.110   1.565   6.910  0.00  0.00     0.034 H 
ATOM     20  H18 <0> d          -1.246   2.514   5.909  0.00  0.00     0.034 H 
ATOM     21  C8  <0> d          -2.046  -0.659   6.479  0.00  0.00    -0.064 C 
ATOM     22  H15 <0> d          -2.057   0.899   8.009  0.00  0.00     0.033 H 
ATOM     23  H16 <0> d          -3.093   1.254   6.591  0.00  0.00     0.033 H 
ATOM     24  C7  <0> d          -1.590  -0.539   5.002  0.00  0.00    -0.055 C 
ATOM     25  H13 <0> d          -1.300  -1.190   7.070  0.00  0.00     0.033 H 
ATOM     26  H14 <0> d          -3.016  -1.152   6.545  0.00  0.00     0.033 H 
ATOM     27  H11 <0> d          -2.442  -0.325   4.357  0.00  0.00     0.034 H 
ATOM     28  H12 <0> d          -1.087  -1.451   4.682  0.00  0.00     0.034 H 
ATOM     29  H10 <0> d           0.336   0.318   5.078  0.00  0.00     0.051 H 
ENDBRANCH   1  16
TORSDOF 5
