REMARK  0 active torsions:
REMARK  status: ('A' for Active; 'I' for Inactive)
ROOT
ATOM      1  C1  <0> d          -0.017   1.363   0.009  0.00  0.00    -0.082 A 
ATOM      2  C2  <0> d           1.170   2.082   0.002  0.00  0.00    -0.080 A 
ATOM      3  C3  <0> d           2.386   1.432  -0.013  0.00  0.00    -0.049 A 
ATOM      4  C4  <0> d           2.427   0.043  -0.021  0.00  0.00     0.085 A 
ATOM      5  C5  <0> d           1.222  -0.679  -0.013  0.00  0.00    -0.001 A 
ATOM      6  C6  <0> d           0.002  -0.004   0.002  0.00  0.00    -0.070 A 
ATOM      7  C7  <0> d           1.613  -2.093  -0.025  0.00  0.00    -0.049 A 
ATOM      8  C8  <0> d           2.952  -2.111  -0.038  0.00  0.00     0.020 A 
ATOM      9  O1  <0> d           3.432  -0.855  -0.036  0.00  0.00    -0.322 OA
ATOM     10  H1  <0> d          -0.961   1.887   0.026  0.00  0.00     0.083 H 
ATOM     11  H2  <0> d           1.141   3.161   0.008  0.00  0.00     0.083 H 
ATOM     12  H3  <0> d           3.304   2.001  -0.020  0.00  0.00     0.087 H 
ATOM     13  H4  <0> d          -0.924  -0.559   0.007  0.00  0.00     0.084 H 
ATOM     14  H5  <0> d           0.953  -2.948  -0.023  0.00  0.00     0.087 H 
ATOM     15  H6  <0> d           3.559  -3.005  -0.049  0.00  0.00     0.123 H 
ENDROOT
TORSDOF 0
