REMARK  2 active torsions:
REMARK  status: ('A' for Active; 'I' for Inactive)
REMARK    1  A    between atoms: C1_1  and  N1_2 
REMARK    2  A    between atoms: N1_2  and  C2_3 
ROOT
ATOM      1  C2  <0> d          -0.842   2.924   1.442  0.00  0.00     0.040 A 
ATOM      2  C3  <0> d          -0.336   3.838   0.541  0.00  0.00    -0.057 A 
ATOM      3  C4  <0> d          -0.481   5.204   0.761  0.00  0.00    -0.079 A 
ATOM      4  C5  <0> d          -1.113   5.676   1.872  0.00  0.00    -0.054 A 
ATOM      5  C6  <0> d          -1.638   4.780   2.818  0.00  0.00     0.069 A 
ATOM      6  C7  <0> d          -1.501   3.386   2.601  0.00  0.00     0.019 A 
ATOM      7  C8  <0> d          -2.027   2.493   3.549  0.00  0.00    -0.067 A 
ATOM      8  C9  <0> d          -2.652   3.012   4.648  0.00  0.00    -0.065 A 
ATOM      9  C10 <0> d          -2.753   4.392   4.802  0.00  0.00     0.003 A 
ATOM     10  N2  <0> d          -2.261   5.223   3.915  0.00  0.00    -0.260 NA
ATOM     11  H5  <0> d           0.173   3.490  -0.345  0.00  0.00     0.086 H 
ATOM     12  H6  <0> d          -0.082   5.902   0.041  0.00  0.00     0.083 H 
ATOM     13  H7  <0> d          -1.210   6.741   2.025  0.00  0.00     0.087 H 
ATOM     14  H8  <0> d          -1.940   1.425   3.413  0.00  0.00     0.085 H 
ATOM     15  H9  <0> d          -3.067   2.353   5.396  0.00  0.00     0.085 H 
ATOM     16  H10 <0> d          -3.249   4.789   5.676  0.00  0.00     0.114 H 
ENDROOT
BRANCH   1  17
ATOM     17  N1  <0> d          -0.698   1.558   1.213  0.00  0.00    -0.394 N 
ATOM     18  H4  <0> d          -1.052   0.920   1.852  0.00  0.00     0.159 HD
BRANCH  17  19
ATOM     19  C1  <0> d          -0.013   1.086   0.008  0.00  0.00    -0.021 C 
ATOM     20  H1  <0> d           0.002  -0.004   0.002  0.00  0.00     0.056 H 
ATOM     21  H2  <0> d           1.010   1.463   0.000  0.00  0.00     0.056 H 
ATOM     22  H3  <0> d          -0.540   1.447  -0.875  0.00  0.00     0.056 H 
ENDBRANCH  17  19
ENDBRANCH   1  17
TORSDOF 2
