REMARK  4 active torsions:
REMARK  status: ('A' for Active; 'I' for Inactive)
REMARK    1  A    between atoms: C1_1  and  C2_2 
REMARK    2  A    between atoms: C3_3  and  C5_7 
REMARK    3  A    between atoms: C5_7  and  O3_9 
REMARK    4  A    between atoms: O3_9  and  C6_10 
ROOT
ATOM      1  C2  <0> d          -0.738   3.125   0.025  0.00  0.00     0.085 A 
ATOM      2  C3  <0> d           0.623   3.139   0.013  0.00  0.00     0.163 A 
ATOM      3  N1  <0> d           1.036   1.842   0.002  0.00  0.00    -0.228 NA
ATOM      4  C4  <0> d          -0.013   1.076   0.008  0.00  0.00     0.104 A 
ATOM      5  O1  <0> d          -1.116   1.837   0.017  0.00  0.00    -0.306 OA
ATOM      6  H4  <0> d           0.002  -0.004   0.002  0.00  0.00     0.155 H 
ENDROOT
BRANCH   2   7
ATOM      7  C5  <0> d           1.486   4.332   0.010  0.00  0.00     0.314 C 
ATOM      8  O2  <0> d           0.989   5.441   0.020  0.00  0.00    -0.257 OA
BRANCH   7   9
ATOM      9  O3  <0> d           2.827   4.195  -0.004  0.00  0.00    -0.321 OA
BRANCH   9  10
ATOM     10  C6  <0> d           3.615   5.414  -0.006  0.00  0.00     0.013 C 
ATOM     11  H5  <0> d           3.372   6.002  -0.891  0.00  0.00     0.067 H 
ATOM     12  H6  <0> d           3.389   5.994   0.889  0.00  0.00     0.067 H 
ATOM     13  H7  <0> d           4.675   5.162  -0.017  0.00  0.00     0.067 H 
ENDBRANCH   9  10
ENDBRANCH   7   9
ENDBRANCH   2   7
BRANCH   1  14
ATOM     14  C1  <0> d          -1.648   4.326   0.040  0.00  0.00    -0.029 C 
ATOM     15  H1  <0> d          -1.877   4.621  -0.985  0.00  0.00     0.036 H 
ATOM     16  H2  <0> d          -2.572   4.076   0.561  0.00  0.00     0.036 H 
ATOM     17  H3  <0> d          -1.153   5.151   0.553  0.00  0.00     0.036 H 
ENDBRANCH   1  14
TORSDOF 4
