REMARK  1 active torsions:
REMARK  status: ('A' for Active; 'I' for Inactive)
REMARK    1  A    between atoms: C8_8  and  N3_11 
ROOT
ATOM      1  C1  <0> d           1.159   2.085   0.002  0.00  0.00    -0.082 A 
ATOM      2  C2  <0> d           2.381   1.413  -0.014  0.00  0.00    -0.081 A 
ATOM      3  C3  <0> d           2.437   0.053  -0.021  0.00  0.00    -0.053 A 
ATOM      4  C4  <0> d           1.244  -0.692  -0.014  0.00  0.00     0.089 A 
ATOM      5  C5  <0> d           0.002  -0.004   0.002  0.00  0.00    -0.002 A 
ATOM      6  C6  <0> d          -0.017   1.399   0.010  0.00  0.00    -0.071 A 
ATOM      7  C7  <0> d          -1.178  -0.767   0.010  0.00  0.00    -0.025 A 
ATOM      8  C8  <0> d          -1.046  -2.145   0.002  0.00  0.00     0.144 A 
ATOM      9  N1  <0> d           0.162  -2.706  -0.012  0.00  0.00    -0.132 NA
ATOM     10  N2  <0> d           1.252  -2.026  -0.020  0.00  0.00    -0.148 NA
ATOM     11  H1  <0> d           1.146   3.165   0.008  0.00  0.00     0.083 H 
ATOM     12  H2  <0> d           3.299   1.981  -0.020  0.00  0.00     0.083 H 
ATOM     13  H3  <0> d           3.392  -0.451  -0.034  0.00  0.00     0.087 H 
ATOM     14  H4  <0> d          -0.957   1.931   0.017  0.00  0.00     0.084 H 
ATOM     15  H5  <0> d          -2.150  -0.297   0.022  0.00  0.00     0.090 H 
ENDROOT
BRANCH   8  16
ATOM     16  N3  <0> d          -2.182  -2.950   0.010  0.00  0.00    -0.383 N 
ATOM     17  H6  <0> d          -2.093  -3.916   0.005  0.00  0.00     0.157 HD
ATOM     18  H7  <0> d          -3.063  -2.544   0.021  0.00  0.00     0.157 HD
ENDBRANCH   8  16
TORSDOF 1
