REMARK  2 active torsions:
REMARK  status: ('A' for Active; 'I' for Inactive)
REMARK    1  A    between atoms: C1_1  and  C2_2 
REMARK       I    between atoms: N1_8  and  C7_9 
REMARK       I    between atoms: C7_9  and  N2_11 
REMARK    2  A    between atoms: N2_11  and  C8_12 
ROOT
ATOM      1  C2  <0> d          -2.271   1.113   1.158  0.00  0.00     0.013 C 
ATOM      2  H1  <0> d          -2.256   0.039   1.340  0.00  0.00     0.072 H 
ATOM      3  C3  <0> d          -0.852   1.676   1.286  0.00  0.00    -0.046 C 
ATOM      4  C4  <0> d           0.026   1.093   0.177  0.00  0.00    -0.062 C 
ATOM      5  C5  <0> d          -0.534   1.502  -1.187  0.00  0.00    -0.050 C 
ATOM      6  C6  <0> d          -1.949   0.937  -1.343  0.00  0.00    -0.000 C 
ATOM      7  N1  <0> d          -2.762   1.376  -0.201  0.00  0.00    -0.330 N 
ATOM      8  C7  <0> d          -3.937   2.007  -0.397  0.00  0.00     0.318 C 
ATOM      9  O1  <0> d          -4.651   2.270   0.551  0.00  0.00    -0.247 OA
ATOM     10  N2  <0> d          -4.319   2.348  -1.643  0.00  0.00    -0.347 N 
ATOM     11  H5  <0> d          -0.440   1.404   2.258  0.00  0.00     0.035 H 
ATOM     12  H6  <0> d          -0.882   2.762   1.194  0.00  0.00     0.035 H 
ATOM     13  H7  <0> d           0.036   0.006   0.255  0.00  0.00     0.033 H 
ATOM     14  H8  <0> d           1.043   1.473   0.281  0.00  0.00     0.033 H 
ATOM     15  H9  <0> d          -0.566   2.589  -1.256  0.00  0.00     0.035 H 
ATOM     16  H10 <0> d           0.105   1.106  -1.976  0.00  0.00     0.035 H 
ATOM     17  H11 <0> d          -2.390   1.307  -2.269  0.00  0.00     0.064 H 
ATOM     18  H12 <0> d          -1.907  -0.152  -1.368  0.00  0.00     0.064 H 
ATOM     19  H13 <0> d          -3.786   2.074  -2.406  0.00  0.00     0.163 HD
ENDROOT
BRANCH   1  20
ATOM     20  C1  <0> d          -3.187   1.796   2.176  0.00  0.00    -0.057 C 
ATOM     21  H2  <0> d          -4.173   1.330   2.147  0.00  0.00     0.030 H 
ATOM     22  H3  <0> d          -2.764   1.689   3.175  0.00  0.00     0.030 H 
ATOM     23  H4  <0> d          -3.278   2.854   1.930  0.00  0.00     0.030 H 
ENDBRANCH   1  20
BRANCH  10  24
ATOM     24  C8  <0> d          -5.540   3.132  -1.846  0.00  0.00    -0.017 C 
ATOM     25  H14 <0> d          -5.685   3.309  -2.912  0.00  0.00     0.056 H 
ATOM     26  H15 <0> d          -6.394   2.584  -1.450  0.00  0.00     0.056 H 
ATOM     27  H16 <0> d          -5.449   4.087  -1.329  0.00  0.00     0.056 H 
ENDBRANCH  10  24
TORSDOF 2
