REMARK  2 active torsions:
REMARK  status: ('A' for Active; 'I' for Inactive)
REMARK    1  A    between atoms: C1_1  and  N1_2 
REMARK    2  A    between atoms: C8_10  and  O1_11 
ROOT
ATOM      1  N1  <0> d           0.002  -0.004   0.002  0.00  0.00    -0.284 N 
ATOM      2  C2  <0> d           0.007  -0.767  -1.099  0.00  0.00     0.013 A 
ATOM      3  C3  <0> d           0.028  -2.089  -0.700  0.00  0.00     0.045 A 
ATOM      4  C4  <0> d           0.035  -2.080   0.771  0.00  0.00     0.091 A 
ATOM      5  N2  <0> d           0.024  -0.814   1.144  0.00  0.00    -0.173 NA
ATOM      6  C5  <0> d           0.056  -3.316   1.454  0.00  0.00    -0.052 A 
ATOM      7  C6  <0> d           0.069  -4.474   0.748  0.00  0.00    -0.078 A 
ATOM      8  C7  <0> d           0.063  -4.487  -0.647  0.00  0.00    -0.050 A 
ATOM      9  C8  <0> d           0.042  -3.334  -1.373  0.00  0.00     0.079 A 
ATOM     10  H4  <0> d          -0.003  -0.411  -2.119  0.00  0.00     0.115 H 
ATOM     11  H5  <0> d           0.061  -3.339   2.534  0.00  0.00     0.087 H 
ATOM     12  H6  <0> d           0.085  -5.414   1.281  0.00  0.00     0.083 H 
ATOM     13  H7  <0> d           0.074  -5.435  -1.165  0.00  0.00     0.087 H 
ENDROOT
BRANCH   1  14
ATOM     14  C1  <0> d          -0.018   1.461   0.010  0.00  0.00     0.002 C 
ATOM     15  H1  <0> d           1.005   1.838   0.002  0.00  0.00     0.059 H 
ATOM     16  H2  <0> d          -0.545   1.822  -0.873  0.00  0.00     0.059 H 
ATOM     17  H3  <0> d          -0.528   1.812   0.907  0.00  0.00     0.059 H 
ENDBRANCH   1  14
BRANCH   9  18
ATOM     18  O1  <0> d           0.035  -3.379  -2.730  0.00  0.00    -0.360 OA
ATOM     19  H8  <0> d           0.917  -3.380  -3.127  0.00  0.00     0.217 HD
ENDBRANCH   9  18
TORSDOF 2
