REMARK  1 active torsions:
REMARK  status: ('A' for Active; 'I' for Inactive)
REMARK    1  A    between atoms: C3_4  and  N2_8 
ROOT
ATOM      1  C1  <0> d          -0.017   1.390   0.010  0.00  0.00    -0.031 A 
ATOM      2  C2  <0> d          -1.228   2.047   0.019  0.00  0.00     0.007 A 
ATOM      3  N1  <0> d          -2.365   1.375   0.021  0.00  0.00    -0.244 NA
ATOM      4  C3  <0> d          -2.391   0.050   0.014  0.00  0.00     0.123 A 
ATOM      5  C4  <0> d          -1.211  -0.681   0.004  0.00  0.00    -0.004 A 
ATOM      6  C5  <0> d           0.002  -0.004   0.002  0.00  0.00     0.112 A 
ATOM      7  O1  <0> d           1.177  -0.683  -0.013  0.00  0.00    -0.192 OA
ATOM      8  H1  <0> d           0.907   1.949   0.004  0.00  0.00     0.090 H 
ATOM      9  H2  <0> d          -1.249   3.127   0.025  0.00  0.00     0.115 H 
ATOM     10  H3  <0> d          -1.236  -1.761  -0.002  0.00  0.00     0.093 H 
ENDROOT
BRANCH   4  11
ATOM     11  N2  <0> d          -3.613  -0.614   0.017  0.00  0.00    -0.384 N 
ATOM     12  H4  <0> d          -4.440  -0.107   0.025  0.00  0.00     0.157 HD
ATOM     13  H5  <0> d          -3.638  -1.583   0.012  0.00  0.00     0.157 HD
ENDBRANCH   4  11
TORSDOF 1
