REMARK  3 active torsions:
REMARK  status: ('A' for Active; 'I' for Inactive)
REMARK    1  A    between atoms: C1_1  and  C2_2 
REMARK    2  A    between atoms: C2_2  and  C3_4 
REMARK    3  A    between atoms: C2_2  and  C9_10 
ROOT
ATOM      1  C3  <0> d          -0.013   1.086   0.008  0.00  0.00    -0.042 C 
ATOM      2  C4  <0> d          -0.729   1.579   1.267  0.00  0.00    -0.061 C 
ATOM      3  C5  <0> d          -2.164   1.050   1.278  0.00  0.00    -0.065 C 
ATOM      4  C6  <0> d          -2.904   1.556   0.038  0.00  0.00    -0.065 C 
ATOM      5  C7  <0> d          -2.188   1.063  -1.221  0.00  0.00    -0.065 C 
ATOM      6  C8  <0> d          -0.753   1.593  -1.232  0.00  0.00    -0.061 C 
ATOM      7  H5  <0> d           0.002  -0.004   0.002  0.00  0.00     0.041 H 
ATOM      8  H6  <0> d          -0.202   1.218   2.150  0.00  0.00     0.033 H 
ATOM      9  H7  <0> d          -0.744   2.669   1.273  0.00  0.00     0.033 H 
ATOM     10  H8  <0> d          -2.674   1.401   2.175  0.00  0.00     0.033 H 
ATOM     11  H9  <0> d          -2.149  -0.040   1.272  0.00  0.00     0.033 H 
ATOM     12  H10 <0> d          -2.919   2.646   0.044  0.00  0.00     0.033 H 
ATOM     13  H11 <0> d          -3.927   1.179   0.046  0.00  0.00     0.033 H 
ATOM     14  H12 <0> d          -2.715   1.424  -2.104  0.00  0.00     0.033 H 
ATOM     15  H13 <0> d          -2.173  -0.027  -1.227  0.00  0.00     0.033 H 
ATOM     16  H14 <0> d          -0.767   2.683  -1.226  0.00  0.00     0.033 H 
ATOM     17  H15 <0> d          -0.242   1.241  -2.128  0.00  0.00     0.033 H 
ENDROOT
BRANCH   1  18
ATOM     18  C2  <0> d           1.423   1.615  -0.003  0.00  0.00     0.030 C 
ATOM     19  H1  <0> d           1.408   2.705   0.003  0.00  0.00     0.056 H 
BRANCH  18  20
ATOM     20  C1  <0> d           2.139   1.122  -1.262  0.00  0.00    -0.063 C 
ATOM     21  H2  <0> d           1.612   1.483  -2.145  0.00  0.00     0.028 H 
ATOM     22  H3  <0> d           3.161   1.499  -1.269  0.00  0.00     0.028 H 
ATOM     23  H4  <0> d           2.154   0.032  -1.268  0.00  0.00     0.028 H 
ENDBRANCH  18  20
BRANCH  18  24
ATOM     24  C9  <0> d           2.151   1.116   1.218  0.00  0.00     0.177 C 
ATOM     25  O1  <0> d           1.581   0.409   2.015  0.00  0.00    -0.648 OA
ATOM     26  O2  <0> d           3.434   1.457   1.420  0.00  0.00    -0.648 OA
ENDBRANCH  18  24
ENDBRANCH   1  18
TORSDOF 3
