REMARK  2 active torsions:
REMARK  status: ('A' for Active; 'I' for Inactive)
REMARK    1  A    between atoms: C5_5  and  C7_8 
REMARK    2  A    between atoms: C7_8  and  O1_9 
ROOT
ATOM      1  C1  <0> d          -0.019   1.530   0.011  0.00  0.00    -0.061 C 
ATOM      2  C2  <0> d           1.426   2.033  -0.001  0.00  0.00    -0.050 C 
ATOM      3  C3  <0> d           2.206   1.344  -1.082  0.00  0.00    -0.106 C 
ATOM      4  C4  <0> d           1.828   0.251  -1.664  0.00  0.00    -0.101 C 
ATOM      5  C5  <0> d           0.553  -0.473  -1.346  0.00  0.00    -0.018 C 
ATOM      6  H1  <0> d          -0.181  -0.272  -2.127  0.00  0.00     0.049 H 
ATOM      7  C6  <0> d           0.002  -0.004   0.002  0.00  0.00    -0.057 C 
ATOM      8  H2  <0> d          -0.523   1.884   0.909  0.00  0.00     0.033 H 
ATOM      9  H3  <0> d          -0.540   1.894  -0.875  0.00  0.00     0.033 H 
ATOM     10  H4  <0> d           1.433   3.108  -0.180  0.00  0.00     0.038 H 
ATOM     11  H5  <0> d           1.888   1.827   0.965  0.00  0.00     0.038 H 
ATOM     12  H6  <0> d           3.140   1.787  -1.394  0.00  0.00     0.076 H 
ATOM     13  H7  <0> d           2.471  -0.165  -2.426  0.00  0.00     0.077 H 
ATOM     14  H8  <0> d           0.643  -0.366   0.806  0.00  0.00     0.034 H 
ATOM     15  H9  <0> d          -1.010  -0.385   0.137  0.00  0.00     0.034 H 
ENDROOT
BRANCH   5  16
ATOM     16  C7  <0> d           0.826  -1.977  -1.283  0.00  0.00     0.023 C 
ATOM     17  H10 <0> d           1.627  -2.171  -0.570  0.00  0.00     0.074 H 
ATOM     18  H11 <0> d          -0.077  -2.498  -0.966  0.00  0.00     0.074 H 
BRANCH  16  19
ATOM     19  O1  <0> d           1.216  -2.445  -2.576  0.00  0.00    -0.400 OA
ATOM     20  H12 <0> d           1.406  -3.393  -2.611  0.00  0.00     0.209 HD
ENDBRANCH  16  19
ENDBRANCH   5  16
TORSDOF 2
