REMARK  1 active torsions:
REMARK  status: ('A' for Active; 'I' for Inactive)
REMARK    1  A    between atoms: C4_5  and  C6_7 
ROOT
ATOM      1  C1  <0> d          -0.017   1.380   0.010  0.00  0.00    -0.079 A 
ATOM      2  C2  <0> d           1.193   2.059   0.002  0.00  0.00    -0.066 A 
ATOM      3  C3  <0> d           2.375   1.339  -0.013  0.00  0.00     0.003 A 
ATOM      4  N1  <0> d           2.365   0.023  -0.020  0.00  0.00    -0.257 NA
ATOM      5  C4  <0> d           1.230  -0.664  -0.013  0.00  0.00     0.107 A 
ATOM      6  C5  <0> d           0.002  -0.004   0.002  0.00  0.00    -0.051 A 
ATOM      7  H1  <0> d          -0.952   1.920   0.026  0.00  0.00     0.083 H 
ATOM      8  H2  <0> d           1.213   3.139   0.007  0.00  0.00     0.085 H 
ATOM      9  H3  <0> d           3.318   1.865  -0.020  0.00  0.00     0.114 H 
ATOM     10  H4  <0> d          -0.921  -0.564   0.008  0.00  0.00     0.087 H 
ENDROOT
BRANCH   5  11
ATOM     11  C6  <0> d           1.267  -2.145  -0.022  0.00  0.00     0.225 A 
ATOM     12  N5  <0> d           2.355  -2.916  -0.037  0.00  0.00    -0.104 NA
ATOM     13  N4  <0> d           1.961  -4.143  -0.037  0.00  0.00    -0.021 NA
ATOM     14  N3  <0> d           0.674  -4.176  -0.031  0.00  0.00    -0.021 NA
ATOM     15  N2  <0> d           0.219  -2.970  -0.022  0.00  0.00    -0.104 NA
ENDBRANCH   5  11
TORSDOF 1
