REMARK  1 active torsions:
REMARK  status: ('A' for Active; 'I' for Inactive)
REMARK    1  A    between atoms: C4_4  and  N3_11 
ROOT
ATOM      1  C1  <0> d          -0.017   1.390   0.010  0.00  0.00    -0.047 A 
ATOM      2  C2  <0> d           1.148   2.099   0.002  0.00  0.00    -0.064 A 
ATOM      3  C3  <0> d           2.373   1.426  -0.013  0.00  0.00     0.039 A 
ATOM      4  C4  <0> d           3.771   1.863  -0.024  0.00  0.00     0.153 A 
ATOM      5  N1  <0> d           4.520   0.793  -0.037  0.00  0.00    -0.156 NA
ATOM      6  N2  <0> d           3.719  -0.354  -0.035  0.00  0.00    -0.275 N 
ATOM      7  C5  <0> d           2.400   0.018  -0.021  0.00  0.00     0.067 A 
ATOM      8  C6  <0> d           1.201  -0.689  -0.014  0.00  0.00    -0.020 A 
ATOM      9  C7  <0> d           0.002  -0.004   0.002  0.00  0.00     0.109 A 
ATOM     10  O1  <0> d          -1.169  -0.694   0.009  0.00  0.00    -0.192 OA
ATOM     11  H1  <0> d          -0.962   1.912   0.026  0.00  0.00     0.087 H 
ATOM     12  H2  <0> d           1.124   3.179   0.008  0.00  0.00     0.085 H 
ATOM     13  H3  <0> d           1.209  -1.769  -0.020  0.00  0.00     0.091 H 
ATOM     14  H6  <0> d           4.045  -1.267  -0.043  0.00  0.00     0.189 HD
ENDROOT
BRANCH   4  15
ATOM     15  N3  <0> d           4.222   3.186  -0.022  0.00  0.00    -0.382 N 
ATOM     16  H4  <0> d           3.583   3.916  -0.012  0.00  0.00     0.157 HD
ATOM     17  H5  <0> d           5.173   3.373  -0.030  0.00  0.00     0.157 HD
ENDBRANCH   4  15
TORSDOF 1
