REMARK  1 active torsions:
REMARK  status: ('A' for Active; 'I' for Inactive)
REMARK    1  A    between atoms: C6_6  and  N1_7 
ROOT
ATOM      1  C1  <0> d           2.375   1.421  -0.014  0.00  0.00    -0.057 A 
ATOM      2  C2  <0> d           1.167   2.092   0.002  0.00  0.00    -0.072 A 
ATOM      3  C3  <0> d          -0.017   1.383   0.010  0.00  0.00    -0.026 A 
ATOM      4  C4  <0> d           0.002  -0.004   0.002  0.00  0.00    -0.024 A 
ATOM      5  C5  <0> d           1.203  -0.679  -0.014  0.00  0.00    -0.049 A 
ATOM      6  C6  <0> d           2.397   0.033  -0.022  0.00  0.00     0.026 A 
ATOM      7  C7  <0> d          -1.435  -0.472   0.013  0.00  0.00     0.044 C 
ATOM      8  O1  <0> d          -2.223   0.661  -0.394  0.00  0.00    -0.382 OA
ATOM      9  C8  <0> d          -1.466   1.811   0.032  0.00  0.00     0.044 C 
ATOM     10  H1  <0> d           3.301   1.977  -0.020  0.00  0.00     0.086 H 
ATOM     11  H2  <0> d           1.149   3.172   0.008  0.00  0.00     0.084 H 
ATOM     12  H3  <0> d           1.217  -1.759  -0.019  0.00  0.00     0.087 H 
ATOM     13  H6  <0> d          -1.567  -1.294  -0.690  0.00  0.00     0.081 H 
ATOM     14  H7  <0> d          -1.719  -0.786   1.017  0.00  0.00     0.081 H 
ATOM     15  H8  <0> d          -1.755   2.106   1.041  0.00  0.00     0.081 H 
ATOM     16  H9  <0> d          -1.624   2.637  -0.662  0.00  0.00     0.081 H 
ENDROOT
BRANCH   6  17
ATOM     17  N1  <0> d           3.617  -0.647  -0.038  0.00  0.00    -0.399 N 
ATOM     18  H4  <0> d           3.632  -1.617  -0.044  0.00  0.00     0.156 HD
ATOM     19  H5  <0> d           4.450  -0.150  -0.044  0.00  0.00     0.156 HD
ENDBRANCH   6  17
TORSDOF 1
