REMARK  3 active torsions:
REMARK  status: ('A' for Active; 'I' for Inactive)
REMARK    1  A    between atoms: C1_1  and  C2_2 
REMARK    2  A    between atoms: C4_4  and  N1_10 
REMARK    3  A    between atoms: C5_5  and  O1_9 
ROOT
ATOM      1  C2  <0> d           1.171   2.090   0.002  0.00  0.00    -0.058 A 
ATOM      2  C3  <0> d          -0.017   1.383   0.010  0.00  0.00    -0.049 A 
ATOM      3  C4  <0> d           0.002  -0.004   0.002  0.00  0.00     0.061 A 
ATOM      4  C5  <0> d           1.220  -0.681  -0.013  0.00  0.00     0.113 A 
ATOM      5  C6  <0> d           2.406   0.035  -0.021  0.00  0.00     0.070 A 
ATOM      6  C7  <0> d           2.379   1.419  -0.013  0.00  0.00    -0.053 A 
ATOM      7 Cl1  <0> d           3.926  -0.803  -0.039  0.00  0.00    -0.081 Cl
ATOM      8  H4  <0> d          -0.959   1.910   0.017  0.00  0.00     0.087 H 
ATOM      9  H5  <0> d           3.305   1.976  -0.019  0.00  0.00     0.087 H 
ENDROOT
BRANCH   1  10
ATOM     10  C1  <0> d           1.148   3.597   0.010  0.00  0.00    -0.051 C 
ATOM     11  H1  <0> d           0.106   3.948   0.022  0.00  0.00     0.033 H 
ATOM     12  H2  <0> d           1.653   3.976  -0.891  0.00  0.00     0.033 H 
ATOM     13  H3  <0> d           1.670   3.967   0.905  0.00  0.00     0.033 H 
ENDBRANCH   1  10
BRANCH   3  14
ATOM     14  N1  <0> d          -1.199  -0.722   0.009  0.00  0.00    -0.397 N 
ATOM     15  H7  <0> d          -1.183  -1.822   0.003  0.00  0.00     0.156 HD
ATOM     16  H8  <0> d          -2.160  -0.186   0.021  0.00  0.00     0.156 HD
ENDBRANCH   3  14
BRANCH   4  17
ATOM     17  O1  <0> d           1.244  -2.041  -0.020  0.00  0.00    -0.357 OA
ATOM     18  H6  <0> d           2.206  -2.574  -0.032  0.00  0.00     0.218 HD
ENDBRANCH   4  17
TORSDOF 3
