REMARK  2 active torsions:
REMARK  status: ('A' for Active; 'I' for Inactive)
REMARK    1  A    between atoms: C1_1  and  C2_2 
REMARK    2  A    between atoms: C5_6  and  N2_9 
ROOT
ATOM      1  C2  <0> d          -0.017   1.385   0.010  0.00  0.00    -0.035 A 
ATOM      2  C3  <0> d           0.002  -0.004   0.002  0.00  0.00    -0.059 A 
ATOM      3  C4  <0> d           1.214  -0.664  -0.013  0.00  0.00     0.005 A 
ATOM      4  N1  <0> d           2.351   0.007  -0.020  0.00  0.00    -0.242 NA
ATOM      5  C5  <0> d           2.376   1.331  -0.013  0.00  0.00     0.143 A 
ATOM      6  C6  <0> d           1.190   2.061   0.002  0.00  0.00     0.085 A 
ATOM      7 Cl1  <0> d           1.226   3.797   0.010  0.00  0.00    -0.080 Cl
ATOM      8  H4  <0> d          -0.923  -0.562   0.007  0.00  0.00     0.086 H 
ATOM      9  H5  <0> d           1.233  -1.744  -0.019  0.00  0.00     0.114 H 
ENDROOT
BRANCH   1  10
ATOM     10  C1  <0> d          -1.322   2.138   0.020  0.00  0.00    -0.049 C 
ATOM     11  H1  <0> d          -2.158   1.422   0.025  0.00  0.00     0.033 H 
ATOM     12  H2  <0> d          -1.387   2.771  -0.877  0.00  0.00     0.033 H 
ATOM     13  H3  <0> d          -1.374   2.769   0.919  0.00  0.00     0.033 H 
ENDBRANCH   1  10
BRANCH   5  14
ATOM     14  N2  <0> d           3.596   1.997  -0.021  0.00  0.00    -0.383 N 
ATOM     15  H6  <0> d           3.622   3.097  -0.015  0.00  0.00     0.157 HD
ATOM     16  H7  <0> d           4.535   1.425  -0.033  0.00  0.00     0.157 HD
ENDBRANCH   5  14
TORSDOF 2
