REMARK  9 active torsions:
REMARK  status: ('A' for Active; 'I' for Inactive)
REMARK    1  A    between atoms: C1_1  and  C2_2 
REMARK    2  A    between atoms: C2_2  and  C3_4 
REMARK    3  A    between atoms: C2_2  and  O2_9 
REMARK    4  A    between atoms: C3_4  and  C4_5 
REMARK    5  A    between atoms: C4_5  and  C5_6 
REMARK    6  A    between atoms: C4_5  and  C6_7 
REMARK    7  A    between atoms: C4_5  and  O1_8 
REMARK    8  A    between atoms: O2_9  and  C7_10 
REMARK    9  A    between atoms: C7_10  and  C8_11 
ROOT
ATOM      1  C2  <0> d          -0.013   1.086   0.008  0.00  0.00     0.038 C 
ATOM      2  H1  <0> d           0.002  -0.004   0.002  0.00  0.00     0.082 H 
ENDROOT
BRANCH   1   3
ATOM      3  C1  <0> d          -0.729   1.579   1.267  0.00  0.00    -0.052 C 
ATOM      4  H2  <0> d          -1.751   1.202   1.275  0.00  0.00     0.030 H 
ATOM      5  H3  <0> d          -0.202   1.218   2.150  0.00  0.00     0.030 H 
ATOM      6  H4  <0> d          -0.744   2.669   1.273  0.00  0.00     0.030 H 
ENDBRANCH   1   3
BRANCH   1   7
ATOM      7  C3  <0> d           1.423   1.615  -0.003  0.00  0.00    -0.013 C 
ATOM      8  H5  <0> d           1.408   2.702  -0.086  0.00  0.00     0.041 H 
ATOM      9  H6  <0> d           1.923   1.329   0.922  0.00  0.00     0.041 H 
BRANCH   7  10
ATOM     10  C4  <0> d           2.176   1.022  -1.195  0.00  0.00     0.053 C 
BRANCH  10  11
ATOM     11  C5  <0> d           3.643   1.452  -1.136  0.00  0.00    -0.048 C 
ATOM     12  H7  <0> d           4.090   1.093  -0.209  0.00  0.00     0.031 H 
ATOM     13  H8  <0> d           4.180   1.029  -1.985  0.00  0.00     0.031 H 
ATOM     14  H9  <0> d           3.705   2.539  -1.172  0.00  0.00     0.031 H 
ENDBRANCH  10  11
BRANCH  10  15
ATOM     15  C6  <0> d           2.090  -0.505  -1.144  0.00  0.00    -0.048 C 
ATOM     16  H10 <0> d           1.044  -0.811  -1.186  0.00  0.00     0.031 H 
ATOM     17  H11 <0> d           2.626  -0.927  -1.994  0.00  0.00     0.031 H 
ATOM     18  H12 <0> d           2.536  -0.863  -0.217  0.00  0.00     0.031 H 
ENDBRANCH  10  15
BRANCH  10  19
ATOM     19  O1  <0> d           1.591   1.492  -2.411  0.00  0.00    -0.391 OA
ATOM     20  H13 <0> d           1.610   2.454  -2.510  0.00  0.00     0.210 HD
ENDBRANCH  10  19
ENDBRANCH   7  10
ENDBRANCH   1   7
BRANCH   1  21
ATOM     21  O2  <0> d          -0.704   1.559  -1.150  0.00  0.00    -0.383 OA
BRANCH  21  22
ATOM     22  C7  <0> d          -1.724   0.676  -1.619  0.00  0.00     0.034 C 
ATOM     23  H14 <0> d          -1.281  -0.285  -1.880  0.00  0.00     0.080 H 
ATOM     24  H15 <0> d          -2.469   0.532  -0.837  0.00  0.00     0.080 H 
BRANCH  22  25
ATOM     25  C8  <0> d          -2.383   1.271  -2.837  0.00  0.00    -0.090 C 
ATOM     26  C9  <0> d          -2.618   0.524  -3.886  0.00  0.00    -0.123 C 
ATOM     27  H17 <0> d          -3.090   0.951  -4.759  0.00  0.00     0.066 H 
ATOM     28  H18 <0> d          -2.339  -0.519  -3.880  0.00  0.00     0.066 H 
ATOM     29  H16 <0> d          -2.662   2.315  -2.843  0.00  0.00     0.078 H 
ENDBRANCH  22  25
ENDBRANCH  21  22
ENDBRANCH   1  21
TORSDOF 9
