REMARK  6 active torsions:
REMARK  status: ('A' for Active; 'I' for Inactive)
REMARK    1  A    between atoms: C1_1  and  O1_2 
REMARK    2  A    between atoms: O1_2  and  C2_3 
REMARK    3  A    between atoms: C2_3  and  C3_4 
REMARK    4  A    between atoms: C3_4  and  N1_5 
REMARK    5  A    between atoms: C6_9  and  C7_10 
REMARK    6  A    between atoms: C7_10  and  O2_11 
ROOT
ATOM      1  N1  <0> d           2.166   3.976   0.008  0.00  0.00    -0.340 N 
ATOM      2  C4  <0> d           1.602   5.203   0.016  0.00  0.00     0.066 A 
ATOM      3  N2  <0> d           0.304   5.067   0.028  0.00  0.00    -0.254 NA
ATOM      4  C5  <0> d          -0.004   3.761   0.023  0.00  0.00     0.027 A 
ATOM      5  C6  <0> d           1.147   3.062   0.008  0.00  0.00     0.053 A 
ATOM      6  H8  <0> d           2.136   6.142   0.017  0.00  0.00     0.143 H 
ATOM      7  H9  <0> d          -1.000   3.344   0.030  0.00  0.00     0.117 H 
ENDROOT
BRANCH   1   8
ATOM      8  C3  <0> d           3.600   3.679   0.000  0.00  0.00     0.020 C 
ATOM      9  H6  <0> d           4.147   4.515   0.437  0.00  0.00     0.068 H 
ATOM     10  H7  <0> d           3.788   2.778   0.583  0.00  0.00     0.068 H 
BRANCH   8  11
ATOM     11  C2  <0> d           4.068   3.461  -1.440  0.00  0.00     0.034 C 
ATOM     12  H4  <0> d           3.521   2.625  -1.877  0.00  0.00     0.076 H 
ATOM     13  H5  <0> d           3.880   4.362  -2.024  0.00  0.00     0.076 H 
BRANCH  11  14
ATOM     14  O1  <0> d           5.467   3.171  -1.448  0.00  0.00    -0.394 OA
BRANCH  14  15
ATOM     15  C1  <0> d           6.007   2.949  -2.753  0.00  0.00     0.004 C 
ATOM     16  H1  <0> d           7.073   2.736  -2.673  0.00  0.00     0.066 H 
ATOM     17  H2  <0> d           5.501   2.103  -3.217  0.00  0.00     0.066 H 
ATOM     18  H3  <0> d           5.860   3.840  -3.363  0.00  0.00     0.066 H 
ENDBRANCH  14  15
ENDBRANCH  11  14
ENDBRANCH   8  11
ENDBRANCH   1   8
BRANCH   5  19
ATOM     19  C7  <0> d           1.286   1.562  -0.002  0.00  0.00     0.056 C 
ATOM     20  H10 <0> d           1.840   1.243   0.881  0.00  0.00     0.083 H 
ATOM     21  H11 <0> d           1.823   1.252  -0.899  0.00  0.00     0.083 H 
BRANCH  19  22
ATOM     22  O2  <0> d          -0.011   0.963   0.007  0.00  0.00    -0.395 OA
ATOM     23  H12 <0> d           0.002  -0.004   0.002  0.00  0.00     0.209 HD
ENDBRANCH  19  22
ENDBRANCH   5  19
TORSDOF 6
