REMARK  6 active torsions:
REMARK  status: ('A' for Active; 'I' for Inactive)
REMARK    1  A    between atoms: C1_1  and  C2_2 
REMARK    2  A    between atoms: C5_6  and  C9_10 
REMARK    3  A    between atoms: C5_6  and  C10_11 
REMARK    4  A    between atoms: C6_7  and  C7_8 
REMARK    5  A    between atoms: C6_7  and  C8_9 
REMARK    6  A    between atoms: C10_11  and  O1_12 
ROOT
ATOM      1  C2  <0> d           2.312   0.719  -0.016  0.00  0.00    -0.050 C 
ATOM      2  H1  <0> d           3.201   0.851   0.601  0.00  0.00     0.040 H 
ATOM      3  C3  <0> d           1.389  -0.368   0.588  0.00  0.00    -0.060 C 
ATOM      4  C4  <0> d           0.002  -0.004   0.002  0.00  0.00    -0.055 C 
ATOM      5  C5  <0> d          -0.019   1.538   0.011  0.00  0.00    -0.015 C 
ATOM      6  C6  <0> d           1.450   1.998  -0.001  0.00  0.00    -0.035 C 
ATOM      7  H5  <0> d           1.377  -0.304   1.676  0.00  0.00     0.033 H 
ATOM      8  H6  <0> d           1.696  -1.363   0.265  0.00  0.00     0.033 H 
ATOM      9  H7  <0> d          -0.794  -0.400   0.632  0.00  0.00     0.034 H 
ATOM     10  H8  <0> d          -0.093  -0.381  -1.016  0.00  0.00     0.034 H 
ENDROOT
BRANCH   5  11
ATOM     11  C9  <0> d          -0.717   2.046   1.274  0.00  0.00    -0.066 C 
ATOM     12  H15 <0> d          -0.196   1.669   2.154  0.00  0.00     0.028 H 
ATOM     13  H16 <0> d          -0.704   3.136   1.283  0.00  0.00     0.028 H 
ATOM     14  H17 <0> d          -1.749   1.695   1.284  0.00  0.00     0.028 H 
ENDBRANCH   5  11
BRANCH   5  15
ATOM     15  C10 <0> d          -0.741   2.060  -1.234  0.00  0.00     0.024 C 
ATOM     16  H18 <0> d          -0.728   3.150  -1.231  0.00  0.00     0.075 H 
ATOM     17  H19 <0> d          -0.236   1.692  -2.127  0.00  0.00     0.075 H 
BRANCH  15  18
ATOM     18  O1  <0> d          -2.094   1.599  -1.227  0.00  0.00    -0.400 OA
ATOM     19  H20 <0> d          -2.613   1.893  -1.988  0.00  0.00     0.209 HD
ENDBRANCH  15  18
ENDBRANCH   5  15
BRANCH   6  20
ATOM     20  C7  <0> d           1.728   2.832  -1.253  0.00  0.00    -0.068 C 
ATOM     21  H9  <0> d           1.078   3.708  -1.258  0.00  0.00     0.028 H 
ATOM     22  H10 <0> d           2.770   3.153  -1.252  0.00  0.00     0.028 H 
ATOM     23  H11 <0> d           1.534   2.231  -2.141  0.00  0.00     0.028 H 
ENDBRANCH   6  20
BRANCH   6  24
ATOM     24  C8  <0> d           1.752   2.819   1.254  0.00  0.00    -0.068 C 
ATOM     25  H12 <0> d           1.575   2.208   2.139  0.00  0.00     0.028 H 
ATOM     26  H13 <0> d           2.793   3.139   1.237  0.00  0.00     0.028 H 
ATOM     27  H14 <0> d           1.103   3.694   1.281  0.00  0.00     0.028 H 
ENDBRANCH   6  24
BRANCH   1  28
ATOM     28  C1  <0> d           2.705   0.351  -1.448  0.00  0.00    -0.072 C 
ATOM     29  H2  <0> d           1.806   0.243  -2.055  0.00  0.00     0.028 H 
ATOM     30  H3  <0> d           3.332   1.139  -1.866  0.00  0.00     0.028 H 
ATOM     31  H4  <0> d           3.256  -0.589  -1.444  0.00  0.00     0.028 H 
ENDBRANCH   1  28
TORSDOF 6
