REMARK  6 active torsions:
REMARK  status: ('A' for Active; 'I' for Inactive)
REMARK    1  A    between atoms: C1_1  and  C2_2 
REMARK    2  A    between atoms: C2_2  and  C3_3 
REMARK    3  A    between atoms: C3_3  and  C4_4 
REMARK    4  A    between atoms: C4_4  and  C5_6 
REMARK    5  A    between atoms: C4_4  and  C6_7 
REMARK    6  A    between atoms: C7_10  and  N3_12 
ROOT
ATOM      1  C4  <0> d          -0.013   1.086   0.008  0.00  0.00     0.009 C 
ATOM      2  H1  <0> d          -0.006  -0.014  -0.012  0.00  0.00     0.052 H 
ENDROOT
BRANCH   1   3
ATOM      3  C3  <0> d           1.423   1.615  -0.003  0.00  0.00    -0.055 C 
ATOM      4  H7  <0> d           1.410   2.711   0.094  0.00  0.00     0.034 H 
ATOM      5  H8  <0> d           1.909   1.336  -0.949  0.00  0.00     0.034 H 
BRANCH   3   6
ATOM      6  C2  <0> d           2.199   1.009   1.168  0.00  0.00    -0.068 C 
ATOM      7  H5  <0> d           2.212  -0.086   1.072  0.00  0.00     0.032 H 
ATOM      8  H6  <0> d           1.712   1.289   2.114  0.00  0.00     0.032 H 
BRANCH   6   9
ATOM      9  C1  <0> d           3.634   1.539   1.157  0.00  0.00    -0.076 C 
ATOM     10  H2  <0> d           4.192   1.103   1.999  0.00  0.00     0.027 H 
ATOM     11  H3  <0> d           3.621   2.635   1.254  0.00  0.00     0.027 H 
ATOM     12  H4  <0> d           4.121   1.260   0.211  0.00  0.00     0.027 H 
ENDBRANCH   6   9
ENDBRANCH   3   6
ENDBRANCH   1   3
BRANCH   1  13
ATOM     13  C5  <0> d          -0.729   1.579   1.267  0.00  0.00    -0.066 C 
ATOM     14  H9  <0> d          -1.761   1.198   1.275  0.00  0.00     0.028 H 
ATOM     15  H10 <0> d          -0.744   2.679   1.273  0.00  0.00     0.028 H 
ATOM     16  H11 <0> d          -0.197   1.215   2.158  0.00  0.00     0.028 H 
ENDBRANCH   1  13
BRANCH   1  17
ATOM     17  C6  <0> d          -0.742   1.585  -1.213  0.00  0.00     0.174 A 
ATOM     18  O1  <0> d          -1.297   0.823  -2.176  0.00  0.00    -0.260 OA
ATOM     19  C7  <0> d          -1.837   1.675  -3.067  0.00  0.00     0.265 A 
ATOM     20  N2  <0> d          -1.603   2.890  -2.635  0.00  0.00    -0.103 NA
ATOM     21  N1  <0> d          -0.954   2.829  -1.526  0.00  0.00    -0.125 NA
BRANCH  19  22
ATOM     22  N3  <0> d          -2.513   1.331  -4.223  0.00  0.00    -0.362 N 
ATOM     23  H12 <0> d          -2.651   0.272  -4.486  0.00  0.00     0.159 HD
ATOM     24  H13 <0> d          -2.914   2.118  -4.880  0.00  0.00     0.159 HD
ENDBRANCH  19  22
ENDBRANCH   1  17
TORSDOF 6
