REMARK  3 active torsions:
REMARK  status: ('A' for Active; 'I' for Inactive)
REMARK    1  A    between atoms: C1_1  and  C2_2 
REMARK    2  A    between atoms: C2_2  and  C6_10 
REMARK    3  A    between atoms: C5_7  and  O3_9 
ROOT
ATOM      1  C2  <0> d          -0.801   1.618  -1.208  0.00  0.00     0.010 C 
ATOM      2  C3  <0> d          -0.013   1.086   0.008  0.00  0.00     0.038 C 
ATOM      3  O1  <0> d          -0.736   1.577   1.177  0.00  0.00    -0.319 OA
ATOM      4  C4  <0> d          -2.047   1.634   0.869  0.00  0.00     0.288 C 
ATOM      5  O2  <0> d          -2.964   1.438   1.631  0.00  0.00    -0.262 OA
ATOM      6  C5  <0> d          -2.172   1.988  -0.599  0.00  0.00     0.127 C 
ATOM      7  H1  <0> d          -2.965   1.404  -1.065  0.00  0.00     0.100 H 
ATOM      8  H5  <0> d           0.002  -0.004   0.002  0.00  0.00     0.076 H 
ATOM      9  H6  <0> d           1.004   1.478   0.000  0.00  0.00     0.076 H 
ENDROOT
BRANCH   1  10
ATOM     10  C1  <0> d          -0.119   2.854  -1.796  0.00  0.00    -0.065 C 
ATOM     11  H2  <0> d           0.881   2.589  -2.140  0.00  0.00     0.028 H 
ATOM     12  H3  <0> d          -0.705   3.228  -2.635  0.00  0.00     0.028 H 
ATOM     13  H4  <0> d          -0.046   3.628  -1.031  0.00  0.00     0.028 H 
ENDBRANCH   1  10
BRANCH   1  14
ATOM     14  C6  <0> d          -0.958   0.528  -2.270  0.00  0.00    -0.065 C 
ATOM     15  H8  <0> d          -1.473  -0.330  -1.837  0.00  0.00     0.028 H 
ATOM     16  H9  <0> d          -1.539   0.917  -3.106  0.00  0.00     0.028 H 
ATOM     17  H10 <0> d           0.026   0.221  -2.623  0.00  0.00     0.028 H 
ENDBRANCH   1  14
BRANCH   6  18
ATOM     18  O3  <0> d          -2.425   3.386  -0.754  0.00  0.00    -0.385 OA
ATOM     19  H7  <0> d          -3.272   3.675  -0.390  0.00  0.00     0.210 HD
ENDBRANCH   6  18
TORSDOF 3
