REMARK  1 active torsions:
REMARK  status: ('A' for Active; 'I' for Inactive)
REMARK    1  A    between atoms: C8_10  and  O1_13 
ROOT
ATOM      1  C1  <0> d           1.677   2.579  -1.444  0.00  0.00    -0.064 C 
ATOM      2  C2  <0> d           1.414   2.074  -0.000  0.00  0.00    -0.062 C 
ATOM      3  C3  <0> d          -0.019   1.519   0.010  0.00  0.00    -0.052 C 
ATOM      4  H1  <0> d          -0.518   1.857   0.918  0.00  0.00     0.040 H 
ATOM      5  C4  <0> d          -0.780   2.082  -1.181  0.00  0.00    -0.061 C 
ATOM      6  C5  <0> d          -0.593   1.232  -2.432  0.00  0.00    -0.059 C 
ATOM      7  C6  <0> d           0.717   0.445  -2.356  0.00  0.00    -0.029 C 
ATOM      8  H2  <0> d           0.784  -0.112  -3.291  0.00  0.00     0.043 H 
ATOM      9  C7  <0> d           1.906   1.362  -2.315  0.00  0.00    -0.059 C 
ATOM     10  C8  <0> d           0.642  -0.569  -1.258  0.00  0.00     0.039 C 
ATOM     11  H3  <0> d           1.650  -0.908  -1.020  0.00  0.00     0.083 H 
ATOM     12  C9  <0> d           0.002  -0.004   0.002  0.00  0.00    -0.037 C 
ATOM     13  H4  <0> d           2.560   3.216  -1.458  0.00  0.00     0.033 H 
ATOM     14  H5  <0> d           0.811   3.135  -1.805  0.00  0.00     0.033 H 
ATOM     15  H6  <0> d           1.500   2.900   0.706  0.00  0.00     0.033 H 
ATOM     16  H7  <0> d           2.123   1.287   0.256  0.00  0.00     0.033 H 
ATOM     17  H8  <0> d          -1.842   2.122  -0.936  0.00  0.00     0.033 H 
ATOM     18  H9  <0> d          -0.426   3.092  -1.383  0.00  0.00     0.033 H 
ATOM     19  H10 <0> d          -0.572   1.881  -3.307  0.00  0.00     0.033 H 
ATOM     20  H11 <0> d          -1.426   0.535  -2.520  0.00  0.00     0.033 H 
ATOM     21  H12 <0> d           2.763   0.810  -1.930  0.00  0.00     0.033 H 
ATOM     22  H13 <0> d           2.130   1.693  -3.329  0.00  0.00     0.033 H 
ATOM     23  H14 <0> d           0.561  -0.354   0.870  0.00  0.00     0.037 H 
ATOM     24  H15 <0> d          -1.022  -0.371   0.073  0.00  0.00     0.037 H 
ENDROOT
BRANCH  10  25
ATOM     25  O1  <0> d          -0.127  -1.685  -1.708  0.00  0.00    -0.395 OA
ATOM     26  H16 <0> d          -0.189  -2.405  -1.066  0.00  0.00     0.210 HD
ENDBRANCH  10  25
TORSDOF 1
