REMARK  1 active torsions:
REMARK  status: ('A' for Active; 'I' for Inactive)
REMARK    1  A    between atoms: C2_2  and  C4_6 
ROOT
ATOM      1  C1  <0> d           1.285   1.759  -0.001  0.00  0.00     0.043 A 
ATOM      2  C2  <0> d          -0.016   1.349   0.009  0.00  0.00     0.170 A 
ATOM      3  O1  <0> d           0.002  -0.004   0.002  0.00  0.00    -0.296 OA
ATOM      4  C3  <0> d           1.281  -0.393  -0.012  0.00  0.00     0.103 A 
ATOM      5  N1  <0> d           2.050   0.663  -0.014  0.00  0.00    -0.246 NA
ATOM      6  H1  <0> d           1.633   2.781   0.001  0.00  0.00     0.119 H 
ATOM      7  H2  <0> d           1.624  -1.417  -0.021  0.00  0.00     0.155 H 
ENDROOT
BRANCH   2   8
ATOM      8  C4  <0> d          -1.204   2.208   0.020  0.00  0.00     0.235 C 
ATOM      9  O2  <0> d          -1.079   3.418   0.025  0.00  0.00    -0.642 OA
ATOM     10  O3  <0> d          -2.435   1.657   0.024  0.00  0.00    -0.642 OA
ENDBRANCH   2   8
TORSDOF 1
