REMARK  2 active torsions:
REMARK  status: ('A' for Active; 'I' for Inactive)
REMARK    1  A    between atoms: C1_1  and  C2_2 
REMARK    2  A    between atoms: N3_8  and  C7_11 
ROOT
ATOM      1  C2  <0> d           0.002  -0.004   0.002  0.00  0.00     0.124 A 
ATOM      2  N1  <0> d           0.005  -0.632  -1.162  0.00  0.00    -0.245 NA
ATOM      3  C3  <0> d           0.023  -1.952  -1.228  0.00  0.00     0.019 A 
ATOM      4  C4  <0> d           0.039  -2.679  -0.036  0.00  0.00     0.048 A 
ATOM      5  C5  <0> d           0.060  -4.094   0.311  0.00  0.00     0.037 A 
ATOM      6  N2  <0> d           0.067  -4.182   1.610  0.00  0.00    -0.183 NA
ATOM      7  N3  <0> d           0.052  -2.904   2.179  0.00  0.00    -0.256 N 
ATOM      8  C6  <0> d           0.035  -1.971   1.187  0.00  0.00     0.160 A 
ATOM      9  N4  <0> d           0.022  -0.641   1.152  0.00  0.00    -0.214 NA
ATOM     10  H4  <0> d           0.025  -2.457  -2.183  0.00  0.00     0.116 H 
ATOM     11  H5  <0> d           0.068  -4.921  -0.385  0.00  0.00     0.118 H 
ENDROOT
BRANCH   1  12
ATOM     12  C1  <0> d          -0.018   1.503   0.010  0.00  0.00    -0.019 C 
ATOM     13  H1  <0> d           1.004   1.880   0.003  0.00  0.00     0.037 H 
ATOM     14  H2  <0> d          -0.545   1.864  -0.873  0.00  0.00     0.037 H 
ATOM     15  H3  <0> d          -0.529   1.854   0.907  0.00  0.00     0.037 H 
ENDBRANCH   1  12
BRANCH   7  16
ATOM     16  C7  <0> d           0.056  -2.615   3.615  0.00  0.00     0.004 C 
ATOM     17  H6  <0> d           1.084  -2.529   3.966  0.00  0.00     0.059 H 
ATOM     18  H7  <0> d          -0.470  -1.678   3.798  0.00  0.00     0.059 H 
ATOM     19  H8  <0> d          -0.444  -3.423   4.150  0.00  0.00     0.059 H 
ENDBRANCH   7  16
TORSDOF 2
