REMARK  2 active torsions:
REMARK  status: ('A' for Active; 'I' for Inactive)
REMARK    1  A    between atoms: C1_1  and  N1_2 
REMARK       I    between atoms: N1_2  and  C2_3 
REMARK    2  A    between atoms: C2_3  and  C3_5 
ROOT
ATOM      1  C3  <0> d           0.605  -2.143  -1.026  0.00  0.00     0.034 A 
ATOM      2  C4  <0> d           0.026  -2.857   0.024  0.00  0.00    -0.068 A 
ATOM      3  C5  <0> d           0.044  -4.237   0.010  0.00  0.00    -0.079 A 
ATOM      4  C6  <0> d           0.642  -4.913  -1.038  0.00  0.00    -0.046 A 
ATOM      5  C7  <0> d           1.224  -4.211  -2.082  0.00  0.00     0.117 A 
ATOM      6  C8  <0> d           1.208  -2.829  -2.081  0.00  0.00    -0.030 A 
ATOM      7  F1  <0> d           1.806  -4.879  -3.101  0.00  0.00    -0.206 F 
ATOM      8  H5  <0> d          -0.438  -2.331   0.845  0.00  0.00     0.085 H 
ATOM      9  H6  <0> d          -0.407  -4.790   0.820  0.00  0.00     0.083 H 
ATOM     10  H7  <0> d           0.657  -5.993  -1.042  0.00  0.00     0.088 H 
ATOM     11  H8  <0> d           1.661  -2.282  -2.894  0.00  0.00     0.089 H 
ENDROOT
BRANCH   1  12
ATOM     12  C2  <0> d           0.585  -0.664  -1.018  0.00  0.00     0.251 C 
ATOM     13  N1  <0> d           0.002  -0.004   0.002  0.00  0.00    -0.361 N 
ATOM     14  H4  <0> d          -0.404  -0.499   0.731  0.00  0.00     0.162 HD
ATOM     15  O1  <0> d           1.094  -0.045  -1.931  0.00  0.00    -0.268 OA
BRANCH  13  16
ATOM     16  C1  <0> d          -0.018   1.461   0.010  0.00  0.00    -0.018 C 
ATOM     17  H1  <0> d           1.005   1.838   0.002  0.00  0.00     0.056 H 
ATOM     18  H2  <0> d          -0.545   1.822  -0.873  0.00  0.00     0.056 H 
ATOM     19  H3  <0> d          -0.528   1.812   0.907  0.00  0.00     0.056 H 
ENDBRANCH  13  16
ENDBRANCH   1  12
TORSDOF 2
