REMARK  1 active torsions:
REMARK  status: ('A' for Active; 'I' for Inactive)
REMARK    1  A    between atoms: C5_8  and  O1_9 
ROOT
ATOM      1  C1  <0> d          -0.019   1.540   0.011  0.00  0.00    -0.056 C 
ATOM      2  C2  <0> d           1.487   1.881  -0.002  0.00  0.00    -0.035 C 
ATOM      3  C3  <0> d           2.166   0.680   0.620  0.00  0.00     0.020 A 
ATOM      4  C4  <0> d           1.330  -0.381   0.622  0.00  0.00     0.038 A 
ATOM      5  N1  <0> d           1.984  -1.422   1.186  0.00  0.00    -0.279 N 
ATOM      6  N2  <0> d           3.266  -0.987   1.543  0.00  0.00    -0.149 NA
ATOM      7  H1  <0> d           1.628  -2.314   1.319  0.00  0.00     0.189 HD
ATOM      8  C5  <0> d           3.379   0.274   1.205  0.00  0.00     0.189 A 
ATOM      9  C6  <0> d           0.002  -0.004   0.002  0.00  0.00    -0.024 C 
ATOM     10  H2  <0> d          -0.496   1.918   0.915  0.00  0.00     0.034 H 
ATOM     11  H3  <0> d          -0.513   1.928  -0.880  0.00  0.00     0.034 H 
ATOM     12  H4  <0> d           1.835   2.025  -1.025  0.00  0.00     0.040 H 
ATOM     13  H5  <0> d           1.678   2.776   0.591  0.00  0.00     0.040 H 
ATOM     14  H7  <0> d          -0.820  -0.397   0.600  0.00  0.00     0.042 H 
ATOM     15  H8  <0> d          -0.059  -0.378  -1.020  0.00  0.00     0.042 H 
ENDROOT
BRANCH   8  16
ATOM     16  O1  <0> d           4.477   1.054   1.388  0.00  0.00    -0.343 OA
ATOM     17  H6  <0> d           4.492   1.520   2.235  0.00  0.00     0.219 HD
ENDBRANCH   8  16
TORSDOF 1
