REMARK  1 active torsions:
REMARK  status: ('A' for Active; 'I' for Inactive)
REMARK    1  A    between atoms: C3_3  and  N1_9 
ROOT
ATOM      1  C1  <0> d           0.002  -0.004   0.002  0.00  0.00    -0.078 A 
ATOM      2  C2  <0> d           1.206  -0.681  -0.013  0.00  0.00    -0.056 A 
ATOM      3  C3  <0> d           2.401   0.028  -0.020  0.00  0.00     0.050 A 
ATOM      4  C4  <0> d           2.381   1.417  -0.013  0.00  0.00     0.098 A 
ATOM      5  C5  <0> d           1.172   2.090   0.002  0.00  0.00     0.140 A 
ATOM      6  C6  <0> d          -0.017   1.378   0.010  0.00  0.00    -0.044 A 
ATOM      7  F1  <0> d           1.150   3.441   0.009  0.00  0.00    -0.204 F 
ATOM      8 Cl1  <0> d           3.871   2.308  -0.023  0.00  0.00    -0.079 Cl
ATOM      9  H1  <0> d          -0.926  -0.556   0.008  0.00  0.00     0.083 H 
ATOM     10  H2  <0> d           1.219  -1.761  -0.019  0.00  0.00     0.087 H 
ATOM     11  H3  <0> d          -0.960   1.904   0.017  0.00  0.00     0.088 H 
ENDROOT
BRANCH   3  12
ATOM     12  N1  <0> d           3.620  -0.655  -0.035  0.00  0.00    -0.398 N 
ATOM     13  H4  <0> d           3.632  -1.625  -0.039  0.00  0.00     0.156 HD
ATOM     14  H5  <0> d           4.454  -0.160  -0.040  0.00  0.00     0.156 HD
ENDBRANCH   3  12
TORSDOF 1
