REMARK  3 active torsions:
REMARK  status: ('A' for Active; 'I' for Inactive)
REMARK    1  A    between atoms: C1_1  and  C2_2 
REMARK    2  A    between atoms: C2_2  and  C10_11 
REMARK    3  A    between atoms: C3_3  and  C4_5 
ROOT
ATOM      1  C2  <0> d           5.200  -0.625  -0.056  0.00  0.00     0.091 A 
ATOM      2  C3  <0> d           3.694  -0.683  -0.036  0.00  0.00     0.070 A 
ATOM      3  N1  <0> d           4.334  -1.807  -0.048  0.00  0.00    -0.274 NA
ENDROOT
BRANCH   2   4
ATOM      4  C4  <0> d           2.404   0.034  -0.021  0.00  0.00    -0.009 A 
ATOM      5  C9  <0> d           2.377   1.430  -0.013  0.00  0.00    -0.071 A 
ATOM      6  C8  <0> d           1.168   2.094   0.002  0.00  0.00    -0.082 A 
ATOM      7  H8  <0> d           3.302   1.989  -0.019  0.00  0.00     0.084 H 
ATOM      8  C7  <0> d          -0.017   1.379   0.010  0.00  0.00    -0.083 A 
ATOM      9  H7  <0> d           1.146   3.174   0.008  0.00  0.00     0.083 H 
ATOM     10  C6  <0> d           0.002  -0.004   0.002  0.00  0.00    -0.082 A 
ATOM     11  H6  <0> d          -0.961   1.904   0.017  0.00  0.00     0.083 H 
ATOM     12  C5  <0> d           1.204  -0.681  -0.013  0.00  0.00    -0.071 A 
ATOM     13  H5  <0> d          -0.926  -0.555   0.007  0.00  0.00     0.083 H 
ATOM     14  H4  <0> d           1.217  -1.760  -0.019  0.00  0.00     0.084 H 
ENDBRANCH   2   4
BRANCH   1  15
ATOM     15  C1  <0> d           5.897  -0.248  -1.365  0.00  0.00    -0.046 C 
ATOM     16  H1  <0> d           5.575   0.747  -1.674  0.00  0.00     0.031 H 
ATOM     17  H2  <0> d           6.976  -0.250  -1.215  0.00  0.00     0.031 H 
ATOM     18  H3  <0> d           5.635  -0.971  -2.137  0.00  0.00     0.031 H 
ENDBRANCH   1  15
BRANCH   1  19
ATOM     19  C10 <0> d           5.930  -0.244   1.233  0.00  0.00    -0.046 C 
ATOM     20  H9  <0> d           5.689  -0.965   2.014  0.00  0.00     0.031 H 
ATOM     21  H10 <0> d           7.006  -0.247   1.056  0.00  0.00     0.031 H 
ATOM     22  H11 <0> d           5.617   0.751   1.548  0.00  0.00     0.031 H 
ENDBRANCH   1  19
TORSDOF 3
