REMARK  0 active torsions:
REMARK  status: ('A' for Active; 'I' for Inactive)
ROOT
ATOM      1  C1  <0> d           1.163   2.458   0.004  0.00  0.00     0.028 A 
ATOM      2  C2  <0> d          -0.021   1.732   0.012  0.00  0.00     0.069 A 
ATOM      3  C3  <0> d          -1.225   2.425   0.021  0.00  0.00     0.028 A 
ATOM      4  N1  <0> d          -1.207   3.746   0.033  0.00  0.00    -0.230 NA
ATOM      5  C4  <0> d          -0.058   4.409   0.025  0.00  0.00     0.231 A 
ATOM      6  N2  <0> d           1.109   3.778   0.011  0.00  0.00    -0.230 NA
ATOM      7  C5  <0> d          -0.077   5.841   0.032  0.00  0.00     0.141 C 
ATOM      8  N3  <0> d          -0.093   6.977   0.038  0.00  0.00    -0.188 NA
ATOM      9 Cl1  <0> d           0.002  -0.004   0.002  0.00  0.00    -0.081 Cl
ATOM     10  H1  <0> d           2.116   1.950  -0.007  0.00  0.00     0.117 H 
ATOM     11  H2  <0> d          -2.164   1.892   0.023  0.00  0.00     0.117 H 
ENDROOT
TORSDOF 0
