REMARK  7 active torsions:
REMARK  status: ('A' for Active; 'I' for Inactive)
REMARK    1  A    between atoms: C1_1  and  C2_2 
REMARK    2  A    between atoms: C2_2  and  C3_3 
REMARK    3  A    between atoms: C3_3  and  C4_5 
REMARK    4  A    between atoms: C3_3  and  O3_11 
REMARK    5  A    between atoms: C5_6  and  C6_7 
REMARK    6  A    between atoms: C6_7  and  O2_9 
REMARK    7  A    between atoms: O2_9  and  C7_10 
ROOT
ATOM      1  C3  <0> d           0.038  -2.650  -0.013  0.00  0.00     0.094 C 
ATOM      2  H1  <0> d           0.565  -3.011   0.871  0.00  0.00     0.103 H 
ENDROOT
BRANCH   1   3
ATOM      3  C2  <0> d           0.754  -3.143  -1.271  0.00  0.00    -0.034 C 
ATOM      4  H5  <0> d           0.179  -2.858  -2.152  0.00  0.00     0.037 H 
ATOM      5  H6  <0> d           1.746  -2.695  -1.324  0.00  0.00     0.037 H 
BRANCH   3   6
ATOM      6  C1  <0> d           0.885  -4.667  -1.220  0.00  0.00    -0.073 C 
ATOM      7  H2  <0> d           1.395  -5.018  -2.116  0.00  0.00     0.027 H 
ATOM      8  H3  <0> d           1.460  -4.952  -0.339  0.00  0.00     0.027 H 
ATOM      9  H4  <0> d          -0.107  -5.115  -1.167  0.00  0.00     0.027 H 
ENDBRANCH   3   6
ENDBRANCH   1   3
BRANCH   1  10
ATOM     10  C4  <0> d           0.018  -1.178  -0.004  0.00  0.00    -0.064 C 
ATOM     11  C5  <0> d           0.002  -0.004   0.002  0.00  0.00     0.005 C 
BRANCH  11  12
ATOM     12  C6  <0> d          -0.017   1.428   0.010  0.00  0.00     0.338 C 
ATOM     13  O1  <0> d           1.027   2.050   0.003  0.00  0.00    -0.249 OA
BRANCH  12  14
ATOM     14  O2  <0> d          -1.194   2.086   0.019  0.00  0.00    -0.316 OA
BRANCH  14  15
ATOM     15  C7  <0> d          -1.137   3.537   0.027  0.00  0.00     0.014 C 
ATOM     16  H7  <0> d          -0.614   3.885  -0.864  0.00  0.00     0.067 H 
ATOM     17  H8  <0> d          -2.150   3.940   0.034  0.00  0.00     0.067 H 
ATOM     18  H9  <0> d          -0.606   3.875   0.916  0.00  0.00     0.067 H 
ENDBRANCH  14  15
ENDBRANCH  12  14
ENDBRANCH  11  12
ENDBRANCH   1  10
BRANCH   1  19
ATOM     19  O3  <0> d          -1.303  -3.144  -0.002  0.00  0.00    -0.383 OA
ATOM     20  H10 <0> d          -1.832  -2.862  -0.761  0.00  0.00     0.211 HD
ENDBRANCH   1  19
TORSDOF 7
