REMARK  4 active torsions:
REMARK  status: ('A' for Active; 'I' for Inactive)
REMARK    1  A    between atoms: C5_5  and  C8_11 
REMARK    2  A    between atoms: C6_7  and  C7_9 
REMARK    3  A    between atoms: C7_9  and  O1_10 
REMARK    4  A    between atoms: C8_11  and  O2_12 
ROOT
ATOM      1  C1  <0> d          -2.126   0.905  -1.288  0.00  0.00    -0.044 C 
ATOM      2  C2  <0> d          -2.813   0.999   0.043  0.00  0.00    -0.106 C 
ATOM      3  C3  <0> d          -2.210   1.290   1.151  0.00  0.00    -0.106 C 
ATOM      4  C4  <0> d          -0.737   1.583   1.260  0.00  0.00    -0.044 C 
ATOM      5  C5  <0> d          -0.013   1.086   0.008  0.00  0.00    -0.025 C 
ATOM      6  H1  <0> d           0.002  -0.004   0.002  0.00  0.00     0.044 H 
ATOM      7  C6  <0> d          -0.763   1.598  -1.228  0.00  0.00    -0.025 C 
ATOM      8  H2  <0> d          -0.903   2.676  -1.151  0.00  0.00     0.044 H 
ATOM      9  H3  <0> d          -2.743   1.387  -2.047  0.00  0.00     0.039 H 
ATOM     10  H4  <0> d          -1.987  -0.143  -1.550  0.00  0.00     0.039 H 
ATOM     11  H5  <0> d          -3.876   0.812   0.079  0.00  0.00     0.076 H 
ATOM     12  H6  <0> d          -2.800   1.322   2.055  0.00  0.00     0.076 H 
ATOM     13  H7  <0> d          -0.328   1.083   2.138  0.00  0.00     0.039 H 
ATOM     14  H8  <0> d          -0.590   2.659   1.360  0.00  0.00     0.039 H 
ENDROOT
BRANCH   5  15
ATOM     15  C8  <0> d           1.421   1.620  -0.003  0.00  0.00     0.021 C 
ATOM     16  H12 <0> d           1.904   1.344  -0.940  0.00  0.00     0.074 H 
ATOM     17  H13 <0> d           1.405   2.705   0.093  0.00  0.00     0.074 H 
BRANCH  15  18
ATOM     18  O2  <0> d           2.148   1.056   1.091  0.00  0.00    -0.400 OA
ATOM     19  H14 <0> d           3.067   1.351   1.146  0.00  0.00     0.209 HD
ENDBRANCH  15  18
ENDBRANCH   5  15
BRANCH   7  20
ATOM     20  C7  <0> d           0.040   1.273  -2.489  0.00  0.00     0.021 C 
ATOM     21  H9  <0> d           1.047   1.680  -2.393  0.00  0.00     0.074 H 
ATOM     22  H10 <0> d           0.096   0.191  -2.615  0.00  0.00     0.074 H 
BRANCH  20  23
ATOM     23  O1  <0> d          -0.603   1.852  -3.626  0.00  0.00    -0.400 OA
ATOM     24  H11 <0> d          -0.147   1.686  -4.463  0.00  0.00     0.209 HD
ENDBRANCH  20  23
ENDBRANCH   7  20
TORSDOF 4
