REMARK  0 active torsions:
REMARK  status: ('A' for Active; 'I' for Inactive)
ROOT
ATOM      1  C1  <0> d           0.614   0.983  -2.781  0.00  0.00     0.017 C 
ATOM      2  C2  <0> d           1.210   2.355  -2.487  0.00  0.00     0.017 C 
ATOM      3  C3  <0> d           1.910   2.406  -1.173  0.00  0.00     0.218 C 
ATOM      4  O1  <0> d           3.067   2.774  -1.153  0.00  0.00    -0.274 OA
ATOM      5  N1  <0> d           1.330   2.066   0.001  0.00  0.00    -0.360 N 
ATOM      6  C4  <0> d          -0.018   1.505   0.010  0.00  0.00     0.010 C 
ATOM      7  C5  <0> d           0.002  -0.004   0.002  0.00  0.00     0.010 C 
ATOM      8  N2  <0> d           0.855  -0.644  -0.947  0.00  0.00    -0.360 N 
ATOM      9  C6  <0> d           1.405  -0.070  -2.035  0.00  0.00     0.218 C 
ATOM     10  O2  <0> d           2.488  -0.413  -2.444  0.00  0.00    -0.274 OA
ATOM     11  H1  <0> d           0.676   0.783  -3.850  0.00  0.00     0.047 H 
ATOM     12  H2  <0> d          -0.423   0.953  -2.462  0.00  0.00     0.047 H 
ATOM     13  H3  <0> d           1.921   2.604  -3.277  0.00  0.00     0.047 H 
ATOM     14  H4  <0> d           0.410   3.095  -2.494  0.00  0.00     0.047 H 
ATOM     15  H5  <0> d           1.808   2.195   0.835  0.00  0.00     0.162 HD
ATOM     16  H6  <0> d          -0.573   1.871  -0.850  0.00  0.00     0.066 H 
ATOM     17  H7  <0> d          -0.527   1.842   0.918  0.00  0.00     0.066 H 
ATOM     18  H8  <0> d           0.290  -0.340   1.003  0.00  0.00     0.066 H 
ATOM     19  H9  <0> d          -1.022  -0.352  -0.166  0.00  0.00     0.066 H 
ATOM     20  H10 <0> d           1.063  -1.595  -0.803  0.00  0.00     0.162 HD
ENDROOT
TORSDOF 0
