REMARK  3 active torsions:
REMARK  status: ('A' for Active; 'I' for Inactive)
REMARK    1  A    between atoms: C2_2  and  C3_3 
REMARK    2  A    between atoms: C7_8  and  C8_10 
REMARK    3  A    between atoms: C8_10  and  C9_11 
ROOT
ATOM      1  C3  <0> d          -0.013   1.086   0.008  0.00  0.00    -0.035 C 
ATOM      2  H1  <0> d           0.002  -0.004   0.002  0.00  0.00     0.046 H 
ATOM      3  C4  <0> d           1.426   1.633  -0.003  0.00  0.00    -0.058 C 
ATOM      4  C5  <0> d           1.593   2.458   1.290  0.00  0.00    -0.064 C 
ATOM      5  C6  <0> d           0.526   1.879   2.251  0.00  0.00    -0.061 C 
ATOM      6  C7  <0> d          -0.669   1.598   1.307  0.00  0.00    -0.038 C 
ATOM      7  H2  <0> d          -1.228   2.514   1.116  0.00  0.00     0.041 H 
ATOM      8  H6  <0> d           2.138   0.808  -0.014  0.00  0.00     0.034 H 
ATOM      9  H7  <0> d           1.577   2.269  -0.875  0.00  0.00     0.034 H 
ATOM     10  H8  <0> d           2.592   2.322   1.702  0.00  0.00     0.033 H 
ATOM     11  H9  <0> d           1.402   3.514   1.095  0.00  0.00     0.033 H 
ATOM     12  H10 <0> d           0.880   0.956   2.711  0.00  0.00     0.033 H 
ATOM     13  H11 <0> d           0.253   2.611   3.012  0.00  0.00     0.033 H 
ENDROOT
BRANCH   6  14
ATOM     14  C8  <0> d          -1.583   0.526   1.903  0.00  0.00     0.020 C 
ATOM     15  H12 <0> d          -2.311   0.211   1.155  0.00  0.00     0.049 H 
ATOM     16  H13 <0> d          -0.985  -0.331   2.212  0.00  0.00     0.049 H 
BRANCH  14  17
ATOM     17  C9  <0> d          -2.306   1.091   3.099  0.00  0.00     0.172 C 
ATOM     18  O1  <0> d          -2.109   2.234   3.439  0.00  0.00    -0.648 OA
ATOM     19  O2  <0> d          -3.167   0.325   3.787  0.00  0.00    -0.648 OA
ENDBRANCH  14  17
ENDBRANCH   6  14
BRANCH   1  20
ATOM     20  C2  <0> d          -0.769   1.598  -1.191  0.00  0.00    -0.108 C 
ATOM     21  C1  <0> d          -1.300   0.754  -2.040  0.00  0.00    -0.124 C 
ATOM     22  H3  <0> d          -1.196  -0.309  -1.881  0.00  0.00     0.066 H 
ATOM     23  H4  <0> d          -1.842   1.121  -2.899  0.00  0.00     0.066 H 
ATOM     24  H5  <0> d          -0.873   2.661  -1.350  0.00  0.00     0.076 H 
ENDBRANCH   1  20
TORSDOF 3
