REMARK  1 active torsions:
REMARK  status: ('A' for Active; 'I' for Inactive)
REMARK    1  A    between atoms: C3_3  and  C5_7 
ROOT
ATOM      1  C1  <0> d          -0.013   1.076   0.008  0.00  0.00    -0.062 A 
ATOM      2  C2  <0> d          -1.213   1.774   0.017  0.00  0.00    -0.045 A 
ATOM      3  C3  <0> d          -1.157   3.170   0.030  0.00  0.00     0.155 A 
ATOM      4  N1  <0> d           0.023   3.780   0.022  0.00  0.00    -0.144 NA
ATOM      5  N2  <0> d           1.127   3.126   0.008  0.00  0.00    -0.162 NA
ATOM      6  C4  <0> d           1.165   1.805   0.001  0.00  0.00     0.024 A 
ATOM      7  H1  <0> d           0.002  -0.004   0.002  0.00  0.00     0.085 H 
ATOM      8  H2  <0> d          -2.160   1.254   0.018  0.00  0.00     0.087 H 
ATOM      9  H3  <0> d           2.116   1.293  -0.011  0.00  0.00     0.117 H 
ENDROOT
BRANCH   3  10
ATOM     10  C5  <0> d          -2.406   3.965   0.046  0.00  0.00     0.230 C 
ATOM     11  O1  <0> d          -3.483   3.404   0.054  0.00  0.00    -0.643 OA
ATOM     12  O2  <0> d          -2.348   5.310   0.053  0.00  0.00    -0.643 OA
ENDBRANCH   3  10
TORSDOF 1
