REMARK  1 active torsions:
REMARK  status: ('A' for Active; 'I' for Inactive)
REMARK    1  A    between atoms: C4_5  and  C5_6 
ROOT
ATOM      1  C5  <0> d           1.279  -2.164  -0.022  0.00  0.00    -0.028 C 
ATOM      2  C6  <0> d           2.081  -2.668   1.195  0.00  0.00    -0.058 C 
ATOM      3  C7  <0> d           2.865  -3.890   0.653  0.00  0.00    -0.064 C 
ATOM      4  C8  <0> d           3.256  -3.439  -0.776  0.00  0.00    -0.064 C 
ATOM      5  C9  <0> d           2.026  -2.654  -1.275  0.00  0.00    -0.058 C 
ATOM      6  H4  <0> d           0.271  -2.577  -0.003  0.00  0.00     0.047 H 
ATOM      7  H5  <0> d           2.769  -1.898   1.545  0.00  0.00     0.034 H 
ATOM      8  H6  <0> d           1.407  -2.971   1.997  0.00  0.00     0.034 H 
ATOM      9  H7  <0> d           2.227  -4.773   0.619  0.00  0.00     0.033 H 
ATOM     10  H8  <0> d           3.753  -4.081   1.255  0.00  0.00     0.033 H 
ATOM     11  H9  <0> d           3.440  -4.305  -1.412  0.00  0.00     0.033 H 
ATOM     12  H10 <0> d           4.135  -2.795  -0.748  0.00  0.00     0.033 H 
ATOM     13  H11 <0> d           1.380  -3.306  -1.863  0.00  0.00     0.034 H 
ATOM     14  H12 <0> d           2.344  -1.803  -1.877  0.00  0.00     0.034 H 
ENDROOT
BRANCH   1  15
ATOM     15  C4  <0> d           1.220  -0.658  -0.013  0.00  0.00    -0.047 A 
ATOM     16  C1  <0> d           0.002  -0.004   0.002  0.00  0.00    -0.070 A 
ATOM     17  C2  <0> d          -0.016   1.351   0.009  0.00  0.00    -0.045 A 
ATOM     18  H1  <0> d          -0.921  -0.565   0.008  0.00  0.00     0.085 H 
ATOM     19  S1  <0> d           1.725   1.744  -0.005  0.00  0.00    -0.113 SA
ATOM     20  H2  <0> d          -0.864   2.020   0.017  0.00  0.00     0.095 H 
ATOM     21  C3  <0> d           2.360   0.076  -0.020  0.00  0.00    -0.039 A 
ATOM     22  H3  <0> d           3.386  -0.262  -0.031  0.00  0.00     0.095 H 
ENDBRANCH   1  15
TORSDOF 1
