REMARK  1 active torsions:
REMARK  status: ('A' for Active; 'I' for Inactive)
REMARK    1  A    between atoms: C4_4  and  C7_7 
ROOT
ATOM      1  C1  <0> d           0.002  -0.004   0.002  0.00  0.00    -0.083 A 
ATOM      2  C2  <0> d          -0.017   1.380   0.010  0.00  0.00    -0.082 A 
ATOM      3  C3  <0> d           1.166   2.089   0.002  0.00  0.00    -0.072 A 
ATOM      4  C4  <0> d           2.386   1.406  -0.014  0.00  0.00    -0.022 A 
ATOM      5  C5  <0> d           2.397   0.008  -0.021  0.00  0.00    -0.072 A 
ATOM      6  C6  <0> d           1.206  -0.687  -0.013  0.00  0.00    -0.082 A 
ATOM      7  H1  <0> d          -0.927  -0.554   0.008  0.00  0.00     0.083 H 
ATOM      8  H2  <0> d          -0.960   1.906   0.017  0.00  0.00     0.083 H 
ATOM      9  H3  <0> d           1.150   3.169   0.008  0.00  0.00     0.084 H 
ATOM     10  H4  <0> d           3.335  -0.526  -0.032  0.00  0.00     0.084 H 
ATOM     11  H5  <0> d           1.213  -1.767  -0.018  0.00  0.00     0.083 H 
ENDROOT
BRANCH   4  12
ATOM     12  C7  <0> d           3.655   2.157  -0.022  0.00  0.00     0.032 A 
ATOM     13  C10 <0> d           5.079   1.765  -0.030  0.00  0.00     0.232 A 
ATOM     14  C9  <0> d           5.409   3.214  -0.033  0.00  0.00     0.223 A 
ATOM     15  O2  <0> d           5.701   0.724  -0.033  0.00  0.00    -0.283 OA
ATOM     16  C8  <0> d           3.975   3.502  -0.018  0.00  0.00    -0.016 A 
ATOM     17  O1  <0> d           6.429   3.874  -0.039  0.00  0.00    -0.284 OA
ATOM     18  H6  <0> d           3.393   4.411  -0.008  0.00  0.00     0.091 H 
ENDBRANCH   4  12
TORSDOF 1
