REMARK  6 active torsions:
REMARK  status: ('A' for Active; 'I' for Inactive)
REMARK    1  A    between atoms: C1_1  and  C2_2 
REMARK    2  A    between atoms: C2_2  and  C3_3 
REMARK    3  A    between atoms: C3_3  and  C4_4 
REMARK    4  A    between atoms: C3_3  and  C5_5 
REMARK    5  A    between atoms: C3_3  and  N1_6 
REMARK       I    between atoms: N1_6  and  C6_7 
REMARK    6  A    between atoms: C6_7  and  C7_9 
ROOT
ATOM      1  C3  <0> d          -0.018   1.461   0.010  0.00  0.00     0.025 C 
ENDROOT
BRANCH   1   2
ATOM      2  C2  <0> d          -0.734   1.954   1.269  0.00  0.00    -0.046 C 
ATOM      3  H4  <0> d          -1.756   1.577   1.277  0.00  0.00     0.036 H 
ATOM      4  H5  <0> d          -0.207   1.593   2.152  0.00  0.00     0.036 H 
BRANCH   2   5
ATOM      5  C1  <0> d          -0.755   3.484   1.277  0.00  0.00    -0.074 C 
ATOM      6  H1  <0> d          -1.282   3.845   0.394  0.00  0.00     0.027 H 
ATOM      7  H2  <0> d          -1.265   3.836   2.174  0.00  0.00     0.027 H 
ATOM      8  H3  <0> d           0.268   3.861   1.270  0.00  0.00     0.027 H 
ENDBRANCH   2   5
ENDBRANCH   1   2
BRANCH   1   9
ATOM      9  C4  <0> d           1.418   1.990  -0.001  0.00  0.00    -0.053 C 
ATOM     10  H6  <0> d           1.928   1.639  -0.898  0.00  0.00     0.030 H 
ATOM     11  H7  <0> d           1.403   3.080   0.005  0.00  0.00     0.030 H 
ATOM     12  H8  <0> d           1.945   1.629   0.882  0.00  0.00     0.030 H 
ENDBRANCH   1   9
BRANCH   1  13
ATOM     13  C5  <0> d          -0.758   1.968  -1.230  0.00  0.00    -0.053 C 
ATOM     14  H9  <0> d          -1.780   1.590  -1.222  0.00  0.00     0.030 H 
ATOM     15  H10 <0> d          -0.773   3.058  -1.224  0.00  0.00     0.030 H 
ATOM     16  H11 <0> d          -0.248   1.616  -2.126  0.00  0.00     0.030 H 
ENDBRANCH   1  13
BRANCH   1  17
ATOM     17  N1  <0> d           0.002  -0.004   0.002  0.00  0.00    -0.353 N 
ATOM     18  C6  <0> d           0.585  -0.664  -1.018  0.00  0.00     0.214 C 
ATOM     19  O1  <0> d           1.093  -0.046  -1.929  0.00  0.00    -0.274 OA
ATOM     20  H12 <0> d          -0.404  -0.499   0.731  0.00  0.00     0.163 HD
BRANCH  18  21
ATOM     21  C7  <0> d           0.606  -2.171  -1.026  0.00  0.00    -0.003 C 
ATOM     22  H13 <0> d          -0.284  -2.544  -1.534  0.00  0.00     0.040 H 
ATOM     23  H14 <0> d           1.495  -2.520  -1.550  0.00  0.00     0.040 H 
ATOM     24  H15 <0> d           0.620  -2.540  -0.001  0.00  0.00     0.040 H 
ENDBRANCH  18  21
ENDBRANCH   1  17
TORSDOF 6
