REMARK  3 active torsions:
REMARK  status: ('A' for Active; 'I' for Inactive)
REMARK    1  A    between atoms: C1_1  and  C2_2 
REMARK    2  A    between atoms: C3_3  and  C7_11 
REMARK    3  A    between atoms: C4_5  and  C6_10 
ROOT
ATOM      1  C2  <0> d          -1.192   1.638   0.017  0.00  0.00     0.032 A 
ATOM      2  C3  <0> d          -1.203   2.994   0.030  0.00  0.00     0.053 A 
ATOM      3  N1  <0> d          -0.068   3.688   0.023  0.00  0.00    -0.251 NA
ATOM      4  C4  <0> d           1.091   3.078   0.008  0.00  0.00     0.099 A 
ATOM      5  C5  <0> d           1.144   1.666   0.000  0.00  0.00     0.270 A 
ATOM      6  O1  <0> d           2.218   1.087  -0.013  0.00  0.00    -0.266 OA
ATOM      7  N2  <0> d          -0.011   0.966   0.007  0.00  0.00    -0.324 N 
ATOM      8  H1  <0> d           0.002  -0.004   0.002  0.00  0.00     0.169 HD
ENDROOT
BRANCH   1   9
ATOM      9  C1  <0> d          -2.492   0.876   0.018  0.00  0.00    -0.035 C 
ATOM     10  H2  <0> d          -2.285  -0.195   0.011  0.00  0.00     0.035 H 
ATOM     11  H3  <0> d          -3.062   1.130   0.912  0.00  0.00     0.035 H 
ATOM     12  H4  <0> d          -3.070   1.140  -0.868  0.00  0.00     0.035 H 
ENDBRANCH   1   9
BRANCH   2  13
ATOM     13  C7  <0> d          -2.520   3.726   0.047  0.00  0.00    -0.034 C 
ATOM     14  H8  <0> d          -2.339   4.801   0.051  0.00  0.00     0.035 H 
ATOM     15  H9  <0> d          -3.096   3.459  -0.839  0.00  0.00     0.035 H 
ATOM     16  H10 <0> d          -3.079   3.448   0.941  0.00  0.00     0.035 H 
ENDBRANCH   2  13
BRANCH   4  17
ATOM     17  C6  <0> d           2.367   3.881   0.001  0.00  0.00    -0.030 C 
ATOM     18  H5  <0> d           2.665   4.081  -1.028  0.00  0.00     0.035 H 
ATOM     19  H6  <0> d           2.204   4.825   0.521  0.00  0.00     0.035 H 
ATOM     20  H7  <0> d           3.153   3.319   0.504  0.00  0.00     0.035 H 
ENDBRANCH   4  17
TORSDOF 3
