REMARK  4 active torsions:
REMARK  status: ('A' for Active; 'I' for Inactive)
REMARK    1  A    between atoms: C1_1  and  C2_2 
REMARK    2  A    between atoms: C2_2  and  C3_3 
REMARK    3  A    between atoms: C2_2  and  C4_4 
REMARK    4  A    between atoms: C2_2  and  C5_5 
ROOT
ATOM      1  C2  <0> d          -0.729   1.579   1.267  0.00  0.00     0.009 C 
ENDROOT
BRANCH   1   2
ATOM      2  C1  <0> d          -0.013   1.086   0.008  0.00  0.00    -0.063 C 
ATOM      3  H1  <0> d           0.002  -0.014   0.002  0.00  0.00     0.029 H 
ATOM      4  H2  <0> d           1.019   1.467   0.000  0.00  0.00     0.029 H 
ATOM      5  H3  <0> d          -0.545   1.450  -0.883  0.00  0.00     0.029 H 
ENDBRANCH   1   2
BRANCH   1   6
ATOM      6  C3  <0> d          -0.750   3.109   1.275  0.00  0.00    -0.063 C 
ATOM      7  H4  <0> d          -1.264   3.464   2.180  0.00  0.00     0.029 H 
ATOM      8  H5  <0> d          -1.282   3.473   0.384  0.00  0.00     0.029 H 
ATOM      9  H6  <0> d           0.282   3.490   1.267  0.00  0.00     0.029 H 
ENDBRANCH   1   6
BRANCH   1  10
ATOM     10  C4  <0> d          -2.164   1.050   1.278  0.00  0.00    -0.063 C 
ATOM     11  H7  <0> d          -2.679   1.405   2.183  0.00  0.00     0.029 H 
ATOM     12  H8  <0> d          -2.149  -0.050   1.272  0.00  0.00     0.029 H 
ATOM     13  H9  <0> d          -2.696   1.414   0.387  0.00  0.00     0.029 H 
ENDBRANCH   1  10
BRANCH   1  14
ATOM     14  C5  <0> d           0.000   1.080   2.488  0.00  0.00     0.113 A 
ATOM     15  N1  <0> d           1.079   0.339   2.332  0.00  0.00    -0.247 NA
ATOM     16  C6  <0> d           1.748  -0.119   3.379  0.00  0.00     0.008 A 
ATOM     17  C7  <0> d           1.296   0.179   4.651  0.00  0.00    -0.014 A 
ATOM     18  H10 <0> d           2.566  -0.681   3.258  0.00  0.00     0.115 H 
ATOM     19  C8  <0> d           0.152   0.965   4.779  0.00  0.00     0.181 A 
ATOM     20  H11 <0> d           1.790  -0.164   5.450  0.00  0.00     0.092 H 
ATOM     21  O1  <0> d          -0.326   1.289   6.005  0.00  0.00    -0.172 OA
ATOM     22  N2  <0> d          -0.459   1.396   3.682  0.00  0.00    -0.322 N 
ATOM     23  H12 <0> d          -1.357   2.024   3.777  0.00  0.00     0.169 HD
ENDBRANCH   1  14
TORSDOF 4
