REMARK  3 active torsions:
REMARK  status: ('A' for Active; 'I' for Inactive)
REMARK    1  A    between atoms: C1_1  and  C2_2 
REMARK    2  A    between atoms: C2_2  and  S1_3 
REMARK    3  A    between atoms: S1_3  and  C3_4 
ROOT
ATOM      1  C3  <0> d          -1.508  -2.383   0.004  0.00  0.00     0.168 A 
ATOM      2  N1  <0> d          -0.295  -2.903  -0.005  0.00  0.00    -0.237 NA
ATOM      3  C4  <0> d          -0.107  -4.220  -0.013  0.00  0.00     0.010 A 
ATOM      4  C5  <0> d          -1.178  -5.066  -0.013  0.00  0.00    -0.000 A 
ATOM      5  C6  <0> d          -2.474  -4.521  -0.004  0.00  0.00     0.248 A 
ATOM      6  N2  <0> d          -2.614  -3.178   0.010  0.00  0.00    -0.302 N 
ATOM      7  O1  <0> d          -3.454  -5.248  -0.004  0.00  0.00    -0.268 OA
ATOM      8  H6  <0> d           0.896  -4.621  -0.021  0.00  0.00     0.115 H 
ATOM      9  H7  <0> d          -1.033  -6.136  -0.021  0.00  0.00     0.094 H 
ATOM     10  H8  <0> d          -3.499  -2.781   0.020  0.00  0.00     0.171 HD
ENDROOT
BRANCH   1  11
ATOM     11  S1  <0> d          -1.700  -0.632   0.015  0.00  0.00    -0.092 SA
BRANCH  11  12
ATOM     12  C2  <0> d           0.002  -0.004   0.002  0.00  0.00    -0.019 C 
ATOM     13  H4  <0> d           0.512  -0.356  -0.895  0.00  0.00     0.049 H 
ATOM     14  H5  <0> d           0.529  -0.365   0.885  0.00  0.00     0.049 H 
BRANCH  12  15
ATOM     15  C1  <0> d          -0.019   1.526   0.010  0.00  0.00    -0.068 C 
ATOM     16  H1  <0> d           1.004   1.903   0.003  0.00  0.00     0.028 H 
ATOM     17  H2  <0> d          -0.546   1.887  -0.873  0.00  0.00     0.028 H 
ATOM     18  H3  <0> d          -0.529   1.877   0.907  0.00  0.00     0.028 H 
ENDBRANCH  12  15
ENDBRANCH  11  12
ENDBRANCH   1  11
TORSDOF 3
