REMARK  3 active torsions:
REMARK  status: ('A' for Active; 'I' for Inactive)
REMARK    1  A    between atoms: C1_1  and  C2_2 
REMARK    2  A    between atoms: C4_4  and  O1_9 
REMARK    3  A    between atoms: O1_9  and  C7_10 
ROOT
ATOM      1  C2  <0> d           1.171   1.793   0.001  0.00  0.00    -0.035 A 
ATOM      2  C3  <0> d          -0.013   1.076   0.008  0.00  0.00    -0.025 A 
ATOM      3  C4  <0> d          -1.219   1.763   0.017  0.00  0.00     0.164 A 
ATOM      4  N1  <0> d          -1.242   3.085   0.029  0.00  0.00    -0.235 NA
ATOM      5  C5  <0> d          -0.132   3.797   0.023  0.00  0.00     0.026 A 
ATOM      6  C6  <0> d           1.105   3.180   0.008  0.00  0.00     0.057 A 
ATOM      7 Cl1  <0> d           2.559   4.129  -0.001  0.00  0.00    -0.082 Cl
ATOM      8  H4  <0> d           0.002  -0.004   0.002  0.00  0.00     0.091 H 
ATOM      9  H5  <0> d          -0.190   4.876   0.029  0.00  0.00     0.117 H 
ENDROOT
BRANCH   3  10
ATOM     10  O1  <0> d          -2.386   1.071   0.019  0.00  0.00    -0.339 OA
BRANCH  10  11
ATOM     11  C7  <0> d          -3.594   1.835   0.029  0.00  0.00     0.012 C 
ATOM     12  H6  <0> d          -3.622   2.459   0.923  0.00  0.00     0.067 H 
ATOM     13  H7  <0> d          -3.631   2.468  -0.857  0.00  0.00     0.067 H 
ATOM     14  H8  <0> d          -4.450   1.161   0.030  0.00  0.00     0.067 H 
ENDBRANCH  10  11
ENDBRANCH   3  10
BRANCH   1  15
ATOM     15  C1  <0> d           2.502   1.085  -0.015  0.00  0.00    -0.049 C 
ATOM     16  H1  <0> d           2.813   0.919  -1.046  0.00  0.00     0.033 H 
ATOM     17  H2  <0> d           3.245   1.698   0.495  0.00  0.00     0.033 H 
ATOM     18  H3  <0> d           2.409   0.127   0.495  0.00  0.00     0.033 H 
ENDBRANCH   1  15
TORSDOF 3
