REMARK  2 active torsions:
REMARK  status: ('A' for Active; 'I' for Inactive)
REMARK    1  A    between atoms: C7_7  and  C10_10 
REMARK    2  A    between atoms: C10_10  and  O1_11 
ROOT
ATOM      1  C1  <0> d          -0.019   1.534   0.011  0.00  0.00    -0.064 C 
ATOM      2  C2  <0> d           1.519   1.478  -0.004  0.00  0.00    -0.058 C 
ATOM      3  C3  <0> d           1.394   0.092   0.640  0.00  0.00    -0.040 C 
ATOM      4  C4  <0> d           0.002  -0.004   0.002  0.00  0.00    -0.058 C 
ATOM      5  C5  <0> d           2.388  -0.928   0.091  0.00  0.00    -0.058 C 
ATOM      6  C6  <0> d           2.058  -2.311   0.660  0.00  0.00    -0.059 C 
ATOM      7  C7  <0> d           2.103  -2.256   2.188  0.00  0.00    -0.034 C 
ATOM      8  C8  <0> d           1.051  -1.271   2.700  0.00  0.00    -0.059 C 
ATOM      9  C9  <0> d           1.362   0.130   2.167  0.00  0.00    -0.058 C 
ATOM     10  H1  <0> d          -0.431   1.960   0.925  0.00  0.00     0.033 H 
ATOM     11  H2  <0> d          -0.449   1.970  -0.891  0.00  0.00     0.033 H 
ATOM     12  H3  <0> d           1.945   1.457  -1.007  0.00  0.00     0.034 H 
ATOM     13  H4  <0> d           1.989   2.220   0.641  0.00  0.00     0.034 H 
ATOM     14  H5  <0> d          -0.747  -0.455   0.653  0.00  0.00     0.034 H 
ATOM     15  H6  <0> d           0.009  -0.435  -0.999  0.00  0.00     0.034 H 
ATOM     16  H7  <0> d           2.317  -0.956  -0.997  0.00  0.00     0.034 H 
ATOM     17  H8  <0> d           3.399  -0.646   0.384  0.00  0.00     0.034 H 
ATOM     18  H9  <0> d           1.061  -2.609   0.337  0.00  0.00     0.033 H 
ATOM     19  H10 <0> d           2.789  -3.036   0.301  0.00  0.00     0.033 H 
ATOM     20  H11 <0> d           3.092  -1.930   2.510  0.00  0.00     0.043 H 
ATOM     21  H12 <0> d           0.065  -1.581   2.354  0.00  0.00     0.033 H 
ATOM     22  H13 <0> d           1.066  -1.257   3.790  0.00  0.00     0.033 H 
ATOM     23  H14 <0> d           2.332   0.456   2.543  0.00  0.00     0.034 H 
ATOM     24  H15 <0> d           0.591   0.825   2.498  0.00  0.00     0.034 H 
ENDROOT
BRANCH   7  25
ATOM     25  C10 <0> d           1.818  -3.648   2.757  0.00  0.00     0.020 C 
ATOM     26  H16 <0> d           0.797  -3.939   2.508  0.00  0.00     0.074 H 
ATOM     27  H17 <0> d           2.515  -4.366   2.326  0.00  0.00     0.074 H 
BRANCH  25  28
ATOM     28  O1  <0> d           1.974  -3.623   4.177  0.00  0.00    -0.400 OA
ATOM     29  H18 <0> d           1.808  -4.474   4.605  0.00  0.00     0.209 HD
ENDBRANCH  25  28
ENDBRANCH   7  25
TORSDOF 2
