REMARK  0 active torsions:
REMARK  status: ('A' for Active; 'I' for Inactive)
ROOT
ATOM      1  C1  <0> d          -0.239   3.898   0.690  0.00  0.00    -0.083 C 
ATOM      2  C2  <0> d          -0.252   3.905  -0.639  0.00  0.00    -0.083 C 
ATOM      3  C3  <0> d          -0.842   2.875  -1.476  0.00  0.00    -0.085 C 
ATOM      4  C4  <0> d          -0.739   1.584  -1.210  0.00  0.00    -0.083 C 
ATOM      5  C5  <0> d          -0.013   1.086   0.008  0.00  0.00     0.063 C 
ATOM      6  C6  <0> d          -0.716   1.570   1.245  0.00  0.00    -0.083 C 
ATOM      7  C7  <0> d          -0.813   2.860   1.527  0.00  0.00    -0.085 C 
ATOM      8  C8  <0> d           1.368   1.595  -0.002  0.00  0.00     0.071 C 
ATOM      9  N1  <0> d           2.434   1.988  -0.011  0.00  0.00    -0.196 NA
ATOM     10  H1  <0> d           0.236   4.731   1.187  0.00  0.00     0.083 H 
ATOM     11  H2  <0> d           0.213   4.744  -1.136  0.00  0.00     0.083 H 
ATOM     12  H3  <0> d          -1.388   3.178  -2.357  0.00  0.00     0.083 H 
ATOM     13  H4  <0> d          -1.189   0.869  -1.884  0.00  0.00     0.079 H 
ATOM     14  H5  <0> d           0.002  -0.004   0.002  0.00  0.00     0.075 H 
ATOM     15  H6  <0> d          -1.153   0.849   1.919  0.00  0.00     0.079 H 
ATOM     16  H7  <0> d          -1.343   3.153   2.421  0.00  0.00     0.083 H 
ENDROOT
TORSDOF 0
