REMARK  2 active torsions:
REMARK  status: ('A' for Active; 'I' for Inactive)
REMARK    1  A    between atoms: C1_1  and  N1_2 
REMARK    2  A    between atoms: N1_2  and  C2_3 
ROOT
ATOM      1  C2  <0> d           0.594  -0.675  -1.034  0.00  0.00     0.704 A 
ATOM      2  N2  <0> d           0.601  -2.035  -1.032  0.00  0.00    -0.154 N 
ATOM      3  H1  <0> d           0.189  -2.523  -0.302  0.00  0.00     0.187 HD
ATOM      4  C3  <0> d           1.183  -2.705  -2.050  0.00  0.00     0.262 A 
ATOM      5  O1  <0> d           1.197  -3.925  -2.064  0.00  0.00    -0.268 OA
ATOM      6  C4  <0> d           1.771  -1.971  -3.093  0.00  0.00     0.023 A 
ATOM      7  C5  <0> d           1.734  -0.606  -3.042  0.00  0.00     0.150 A 
ATOM      8  N3  <0> d           1.143   0.008  -2.018  0.00  0.00    -0.052 NA
ATOM      9 Cl1  <0> d           2.453   0.329  -4.316  0.00  0.00    -0.062 Cl
ATOM     10  H6  <0> d           2.245  -2.477  -3.921  0.00  0.00     0.097 H 
ENDROOT
BRANCH   1  11
ATOM     11  N1  <0> d           0.002  -0.004   0.002  0.00  0.00    -0.228 N 
ATOM     12  H5  <0> d          -0.404  -0.499   0.731  0.00  0.00     0.177 HD
BRANCH  11  13
ATOM     13  C1  <0> d          -0.018   1.461   0.010  0.00  0.00    -0.005 C 
ATOM     14  H2  <0> d           1.005   1.838   0.002  0.00  0.00     0.057 H 
ATOM     15  H3  <0> d          -0.545   1.822  -0.873  0.00  0.00     0.057 H 
ATOM     16  H4  <0> d          -0.528   1.812   0.907  0.00  0.00     0.057 H 
ENDBRANCH  11  13
ENDBRANCH   1  11
TORSDOF 2
