REMARK  5 active torsions:
REMARK  status: ('A' for Active; 'I' for Inactive)
REMARK    1  A    between atoms: C1_1  and  C2_2 
REMARK    2  A    between atoms: C4_4  and  C9_10 
REMARK    3  A    between atoms: C7_7  and  O1_8 
REMARK    4  A    between atoms: O1_8  and  C8_9 
REMARK    5  A    between atoms: C9_10  and  O2_11 
ROOT
ATOM      1  C2  <0> d          -2.368   1.250   2.954  0.00  0.00    -0.028 A 
ATOM      2  C3  <0> d          -1.719   0.807   1.817  0.00  0.00    -0.066 A 
ATOM      3  C4  <0> d          -0.718   1.572   1.248  0.00  0.00    -0.034 A 
ATOM      4  C5  <0> d          -0.359   2.780   1.818  0.00  0.00    -0.072 A 
ATOM      5  C6  <0> d          -1.008   3.230   2.951  0.00  0.00    -0.050 A 
ATOM      6  C7  <0> d          -2.013   2.464   3.524  0.00  0.00     0.074 A 
ATOM      7  H4  <0> d          -1.995  -0.138   1.373  0.00  0.00     0.085 H 
ATOM      8  H5  <0> d           0.427   3.373   1.374  0.00  0.00     0.084 H 
ATOM      9  H6  <0> d          -0.730   4.175   3.393  0.00  0.00     0.087 H 
ENDROOT
BRANCH   3  10
ATOM     10  C9  <0> d          -0.013   1.086   0.008  0.00  0.00     0.040 C 
ATOM     11  H10 <0> d           0.002  -0.004   0.002  0.00  0.00     0.081 H 
ATOM     12  H11 <0> d           1.010   1.463   0.000  0.00  0.00     0.081 H 
BRANCH  10  13
ATOM     13  O2  <0> d          -0.704   1.559  -1.150  0.00  0.00    -0.396 OA
ATOM     14  H12 <0> d          -0.304   1.284  -1.986  0.00  0.00     0.209 HD
ENDBRANCH  10  13
ENDBRANCH   3  10
BRANCH   1  15
ATOM     15  C1  <0> d          -3.459   0.416   3.573  0.00  0.00    -0.049 C 
ATOM     16  H1  <0> d          -3.025  -0.263   4.306  0.00  0.00     0.033 H 
ATOM     17  H2  <0> d          -4.181   1.069   4.064  0.00  0.00     0.033 H 
ATOM     18  H3  <0> d          -3.961  -0.160   2.796  0.00  0.00     0.033 H 
ENDBRANCH   1  15
BRANCH   6  19
ATOM     19  O1  <0> d          -2.649   2.902   4.642  0.00  0.00    -0.355 OA
BRANCH  19  20
ATOM     20  C8  <0> d          -2.232   4.161   5.174  0.00  0.00     0.010 C 
ATOM     21  H7  <0> d          -1.176   4.112   5.439  0.00  0.00     0.066 H 
ATOM     22  H8  <0> d          -2.383   4.940   4.427  0.00  0.00     0.066 H 
ATOM     23  H9  <0> d          -2.819   4.392   6.063  0.00  0.00     0.066 H 
ENDBRANCH  19  20
ENDBRANCH   6  19
TORSDOF 5
