REMARK  4 active torsions:
REMARK  status: ('A' for Active; 'I' for Inactive)
REMARK    1  A    between atoms: C1_1  and  C2_2 
REMARK    2  A    between atoms: C2_2  and  C3_3 
REMARK    3  A    between atoms: C3_3  and  C7_10 
REMARK    4  A    between atoms: C7_10  and  C8_11 
ROOT
ATOM      1  C3  <0> d           2.287  -0.001   0.850  0.00  0.00     0.003 C 
ATOM      2  C4  <0> d           1.021  -0.833   1.086  0.00  0.00     0.040 C 
ATOM      3  O1  <0> d           0.008  -0.424   0.122  0.00  0.00    -0.297 OA
ATOM      4  C5  <0> d          -0.225   0.907   0.053  0.00  0.00     0.406 C 
ATOM      5  O2  <0> d          -1.356   1.346   0.077  0.00  0.00    -0.230 OA
ATOM      6  O3  <0> d           0.842   1.732  -0.050  0.00  0.00    -0.297 OA
ATOM      7  C6  <0> d           1.918   1.487   0.900  0.00  0.00     0.040 C 
ATOM      8  H6  <0> d           0.654  -0.661   2.097  0.00  0.00     0.076 H 
ATOM      9  H7  <0> d           1.246  -1.892   0.953  0.00  0.00     0.076 H 
ATOM     10  H8  <0> d           1.585   1.747   1.905  0.00  0.00     0.076 H 
ATOM     11  H9  <0> d           2.787   2.088   0.633  0.00  0.00     0.076 H 
ENDROOT
BRANCH   1  12
ATOM     12  C2  <0> d           3.316  -0.312   1.939  0.00  0.00    -0.058 C 
ATOM     13  H4  <0> d           3.568  -1.372   1.909  0.00  0.00     0.033 H 
ATOM     14  H5  <0> d           4.215   0.281   1.769  0.00  0.00     0.033 H 
BRANCH  12  15
ATOM     15  C1  <0> d           2.728   0.034   3.308  0.00  0.00    -0.076 C 
ATOM     16  H1  <0> d           3.460  -0.188   4.085  0.00  0.00     0.027 H 
ATOM     17  H2  <0> d           2.475   1.094   3.339  0.00  0.00     0.027 H 
ATOM     18  H3  <0> d           1.829  -0.558   3.478  0.00  0.00     0.027 H 
ENDBRANCH  12  15
ENDBRANCH   1  12
BRANCH   1  19
ATOM     19  C7  <0> d           2.875  -0.340  -0.522  0.00  0.00    -0.058 C 
ATOM     20  H10 <0> d           3.040  -1.415  -0.591  0.00  0.00     0.033 H 
ATOM     21  H11 <0> d           2.180  -0.028  -1.302  0.00  0.00     0.033 H 
BRANCH  19  22
ATOM     22  C8  <0> d           4.206   0.394  -0.702  0.00  0.00    -0.076 C 
ATOM     23  H12 <0> d           4.054   1.463  -0.553  0.00  0.00     0.027 H 
ATOM     24  H13 <0> d           4.926   0.024   0.029  0.00  0.00     0.027 H 
ATOM     25  H14 <0> d           4.585   0.216  -1.708  0.00  0.00     0.027 H 
ENDBRANCH  19  22
ENDBRANCH   1  19
TORSDOF 4
