REMARK  1 active torsions:
REMARK  status: ('A' for Active; 'I' for Inactive)
REMARK    1  A    between atoms: C7_9  and  O1_11 
ROOT
ATOM      1  C1  <0> d          -0.017   1.387   0.010  0.00  0.00    -0.078 A 
ATOM      2  C2  <0> d           1.140   2.108   0.003  0.00  0.00    -0.054 A 
ATOM      3  C3  <0> d           2.375   1.447  -0.013  0.00  0.00     0.072 A 
ATOM      4  C4  <0> d           2.406   0.028  -0.021  0.00  0.00     0.043 A 
ATOM      5  C5  <0> d           3.656  -0.611  -0.037  0.00  0.00     0.018 A 
ATOM      6  N1  <0> d           4.742   0.138  -0.043  0.00  0.00    -0.253 NA
ATOM      7  C6  <0> d           4.673   1.461  -0.036  0.00  0.00     0.086 A 
ATOM      8  N2  <0> d           3.537   2.114  -0.021  0.00  0.00    -0.241 NA
ATOM      9  C7  <0> d           1.197  -0.693  -0.013  0.00  0.00     0.079 A 
ATOM     10  C8  <0> d           0.002  -0.004   0.002  0.00  0.00    -0.050 A 
ATOM     11  H1  <0> d          -0.965   1.904   0.026  0.00  0.00     0.083 H 
ATOM     12  H2  <0> d           1.104   3.188   0.008  0.00  0.00     0.087 H 
ATOM     13  H3  <0> d           3.726  -1.688  -0.043  0.00  0.00     0.116 H 
ATOM     14  H4  <0> d           5.594   2.026  -0.042  0.00  0.00     0.146 H 
ATOM     15  H5  <0> d          -0.929  -0.551   0.008  0.00  0.00     0.087 H 
ENDROOT
BRANCH   9  16
ATOM     16  O1  <0> d           1.206  -2.050  -0.021  0.00  0.00    -0.360 OA
ATOM     17  H6  <0> d           1.218  -2.448   0.860  0.00  0.00     0.217 HD
ENDBRANCH   9  16
TORSDOF 1
