REMARK  2 active torsions:
REMARK  status: ('A' for Active; 'I' for Inactive)
REMARK    1  A    between atoms: C1_1  and  C2_2 
REMARK    2  A    between atoms: C6_6  and  O1_8 
ROOT
ATOM      1  C2  <0> d          -1.242   3.133   0.030  0.00  0.00    -0.059 A 
ATOM      2  C3  <0> d          -1.219   1.750   0.017  0.00  0.00    -0.074 A 
ATOM      3  C4  <0> d          -0.013   1.076   0.008  0.00  0.00    -0.042 A 
ATOM      4  C5  <0> d           1.176   1.783   0.000  0.00  0.00     0.149 A 
ATOM      5  C6  <0> d           1.155   3.172   0.008  0.00  0.00     0.104 A 
ATOM      6  C7  <0> d          -0.057   3.845   0.022  0.00  0.00    -0.042 A 
ATOM      7  F1  <0> d           2.355   1.125  -0.014  0.00  0.00    -0.203 F 
ATOM      8  H4  <0> d          -2.147   1.196   0.019  0.00  0.00     0.084 H 
ATOM      9  H5  <0> d           0.002  -0.004   0.002  0.00  0.00     0.088 H 
ATOM     10  H6  <0> d          -0.076   4.925   0.028  0.00  0.00     0.088 H 
ENDROOT
BRANCH   1  11
ATOM     11  C1  <0> d          -2.559   3.864   0.046  0.00  0.00    -0.051 C 
ATOM     12  H1  <0> d          -2.886   4.046  -0.978  0.00  0.00     0.033 H 
ATOM     13  H2  <0> d          -3.304   3.260   0.564  0.00  0.00     0.033 H 
ATOM     14  H3  <0> d          -2.440   4.816   0.563  0.00  0.00     0.033 H 
ENDBRANCH   1  11
BRANCH   5  15
ATOM     15  O1  <0> d           2.322   3.871   0.001  0.00  0.00    -0.358 OA
ATOM     16  H7  <0> d           2.651   4.077  -0.885  0.00  0.00     0.217 HD
ENDBRANCH   5  15
TORSDOF 2
