REMARK  8 active torsions:
REMARK  status: ('A' for Active; 'I' for Inactive)
REMARK    1  A    between atoms: C1_1  and  C2_2 
REMARK    2  A    between atoms: C2_2  and  O1_3 
REMARK    3  A    between atoms: O1_3  and  C3_4 
REMARK    4  A    between atoms: C3_4  and  C4_5 
REMARK    5  A    between atoms: C4_5  and  C5_6 
REMARK    6  A    between atoms: C5_6  and  O3_8 
REMARK    7  A    between atoms: O3_8  and  C6_9 
REMARK    8  A    between atoms: C6_9  and  C7_10 
ROOT
ATOM      1  C4  <0> d          -1.329   1.940   0.019  0.00  0.00     0.035 C 
ATOM      2  H8  <0> d          -1.391   2.561   0.913  0.00  0.00     0.051 H 
ATOM      3  H9  <0> d          -1.400   2.570  -0.867  0.00  0.00     0.051 H 
ENDROOT
BRANCH   1   4
ATOM      4  C3  <0> d          -2.479   0.930   0.019  0.00  0.00     0.028 C 
ATOM      5  H6  <0> d          -2.417   0.309  -0.875  0.00  0.00     0.075 H 
ATOM      6  H7  <0> d          -2.408   0.299   0.905  0.00  0.00     0.075 H 
BRANCH   4   7
ATOM      7  O1  <0> d          -3.726   1.627   0.029  0.00  0.00    -0.391 OA
BRANCH   7   8
ATOM      8  C2  <0> d          -4.870   0.772   0.029  0.00  0.00     0.016 C 
ATOM      9  H4  <0> d          -4.858   0.148  -0.864  0.00  0.00     0.073 H 
ATOM     10  H5  <0> d          -4.850   0.138   0.916  0.00  0.00     0.073 H 
BRANCH   8  11
ATOM     11  C1  <0> d          -6.143   1.622   0.040  0.00  0.00    -0.056 C 
ATOM     12  H1  <0> d          -6.155   2.246   0.933  0.00  0.00     0.030 H 
ATOM     13  H2  <0> d          -6.163   2.256  -0.847  0.00  0.00     0.030 H 
ATOM     14  H3  <0> d          -7.016   0.969   0.041  0.00  0.00     0.030 H 
ENDBRANCH   8  11
ENDBRANCH   7   8
ENDBRANCH   4   7
ENDBRANCH   1   4
BRANCH   1  15
ATOM     15  C5  <0> d          -0.014   1.204   0.009  0.00  0.00     0.260 C 
ATOM     16  O2  <0> d           0.002  -0.004   0.002  0.00  0.00    -0.265 OA
BRANCH  15  17
ATOM     17  O3  <0> d           1.139   1.891   0.001  0.00  0.00    -0.322 OA
BRANCH  17  18
ATOM     18  C6  <0> d           2.367   1.117  -0.015  0.00  0.00     0.025 C 
ATOM     19  H10 <0> d           2.409   0.484   0.872  0.00  0.00     0.074 H 
ATOM     20  H11 <0> d           2.392   0.493  -0.908  0.00  0.00     0.074 H 
BRANCH  18  21
ATOM     21  C7  <0> d           3.568   2.065  -0.021  0.00  0.00    -0.056 C 
ATOM     22  H12 <0> d           3.543   2.689   0.873  0.00  0.00     0.030 H 
ATOM     23  H13 <0> d           4.490   1.484  -0.033  0.00  0.00     0.030 H 
ATOM     24  H14 <0> d           3.526   2.698  -0.907  0.00  0.00     0.030 H 
ENDBRANCH  18  21
ENDBRANCH  17  18
ENDBRANCH  15  17
ENDBRANCH   1  15
TORSDOF 8
