REMARK  4 active torsions:
REMARK  status: ('A' for Active; 'I' for Inactive)
REMARK    1  A    between atoms: C1_1  and  N1_2 
REMARK    2  A    between atoms: N1_2  and  C2_3 
REMARK    3  A    between atoms: C5_6  and  S1_9 
REMARK    4  A    between atoms: S1_9  and  C8_10 
ROOT
ATOM      1  C2  <0> d           1.214  -0.682  -0.013  0.00  0.00     0.027 A 
ATOM      2  C3  <0> d           0.002  -0.004   0.002  0.00  0.00    -0.056 A 
ATOM      3  C4  <0> d          -0.017   1.377   0.010  0.00  0.00    -0.065 A 
ATOM      4  C5  <0> d           1.177   2.087   0.002  0.00  0.00    -0.000 A 
ATOM      5  C6  <0> d           2.389   1.409  -0.013  0.00  0.00    -0.065 A 
ATOM      6  C7  <0> d           2.407   0.028  -0.020  0.00  0.00    -0.056 A 
ATOM      7  H5  <0> d          -0.926  -0.557   0.008  0.00  0.00     0.086 H 
ATOM      8  H6  <0> d          -0.959   1.904   0.017  0.00  0.00     0.085 H 
ATOM      9  H7  <0> d           3.317   1.961  -0.019  0.00  0.00     0.085 H 
ATOM     10  H8  <0> d           3.349  -0.499  -0.031  0.00  0.00     0.086 H 
ENDROOT
BRANCH   1  11
ATOM     11  N1  <0> d           1.233  -2.082  -0.021  0.00  0.00    -0.394 N 
ATOM     12  H4  <0> d           0.399  -2.578  -0.016  0.00  0.00     0.159 HD
BRANCH  11  13
ATOM     13  C1  <0> d           2.511  -2.797  -0.037  0.00  0.00    -0.021 C 
ATOM     14  H1  <0> d           2.326  -3.872  -0.041  0.00  0.00     0.056 H 
ATOM     15  H2  <0> d           3.071  -2.522  -0.931  0.00  0.00     0.056 H 
ATOM     16  H3  <0> d           3.087  -2.531   0.849  0.00  0.00     0.056 H 
ENDBRANCH  11  13
ENDBRANCH   1  11
BRANCH   4  17
ATOM     17  S1  <0> d           1.153   3.849   0.011  0.00  0.00    -0.134 SA
BRANCH  17  18
ATOM     18  C8  <0> d           2.907   4.311  -0.003  0.00  0.00    -0.030 C 
ATOM     19  H9  <0> d           2.997   5.398   0.002  0.00  0.00     0.042 H 
ATOM     20  H10 <0> d           3.398   3.903   0.880  0.00  0.00     0.042 H 
ATOM     21  H11 <0> d           3.381   3.912  -0.899  0.00  0.00     0.042 H 
ENDBRANCH  17  18
ENDBRANCH   4  17
TORSDOF 4
