REMARK  4 active torsions:
REMARK  status: ('A' for Active; 'I' for Inactive)
REMARK    1  A    between atoms: C2_4  and  C5_9 
REMARK    2  A    between atoms: C3_5  and  C4_7 
REMARK    3  A    between atoms: C4_7  and  O1_8 
REMARK    4  A    between atoms: C5_9  and  O2_10 
ROOT
ATOM      1  C1  <0> d           3.582   2.059  -0.020  0.00  0.00     0.064 A 
ATOM      2  N1  <0> d           2.542   1.198  -0.010  0.00  0.00    -0.351 N 
ATOM      3  H1  <0> d           2.599   0.199  -0.009  0.00  0.00     0.166 HD
ATOM      4  C2  <0> d           1.397   1.946  -0.001  0.00  0.00     0.061 A 
ATOM      5  C3  <0> d           1.775   3.239   0.003  0.00  0.00     0.084 A 
ATOM      6  N2  <0> d           3.116   3.278  -0.009  0.00  0.00    -0.244 NA
ATOM      7  H2  <0> d           4.627   1.785  -0.030  0.00  0.00     0.143 H 
ENDROOT
BRANCH   4   8
ATOM      8  C5  <0> d          -0.017   1.425   0.010  0.00  0.00     0.056 C 
ATOM      9  H6  <0> d          -0.544   1.786  -0.873  0.00  0.00     0.083 H 
ATOM     10  H7  <0> d          -0.527   1.776   0.907  0.00  0.00     0.083 H 
BRANCH   8  11
ATOM     11  O2  <0> d           0.002  -0.004   0.002  0.00  0.00    -0.395 OA
ATOM     12  H8  <0> d          -0.876  -0.409   0.008  0.00  0.00     0.209 HD
ENDBRANCH   8  11
ENDBRANCH   4   8
BRANCH   5  13
ATOM     13  C4  <0> d           0.855   4.431   0.017  0.00  0.00     0.058 C 
ATOM     14  H3  <0> d           1.332   5.266  -0.497  0.00  0.00     0.083 H 
ATOM     15  H4  <0> d          -0.076   4.178  -0.490  0.00  0.00     0.083 H 
BRANCH  13  16
ATOM     16  O1  <0> d           0.576   4.802   1.369  0.00  0.00    -0.395 OA
ATOM     17  H5  <0> d          -0.013   5.564   1.454  0.00  0.00     0.209 HD
ENDBRANCH  13  16
ENDBRANCH   5  13
TORSDOF 4
