REMARK  0 active torsions:
REMARK  status: ('A' for Active; 'I' for Inactive)
ROOT
ATOM      1  C1  <0> d          -0.019   1.543   0.011  0.00  0.00    -0.043 C 
ATOM      2  C2  <0> d           1.498   1.853  -0.002  0.00  0.00    -0.013 C 
ATOM      3  C3  <0> d           2.127   0.603   0.572  0.00  0.00     0.098 C 
ATOM      4  N1  <0> d           1.307  -0.371   0.563  0.00  0.00    -0.282 NA
ATOM      5  C4  <0> d           0.002  -0.004   0.002  0.00  0.00     0.016 C 
ATOM      6 Cl1  <0> d           3.756   0.509   1.165  0.00  0.00    -0.068 Cl
ATOM      7  H1  <0> d          -0.491   1.925   0.916  0.00  0.00     0.036 H 
ATOM      8  H2  <0> d          -0.508   1.934  -0.881  0.00  0.00     0.036 H 
ATOM      9  H3  <0> d           1.845   2.024  -1.021  0.00  0.00     0.043 H 
ATOM     10  H4  <0> d           1.717   2.716   0.627  0.00  0.00     0.043 H 
ATOM     11  H5  <0> d          -0.802  -0.397   0.625  0.00  0.00     0.067 H 
ATOM     12  H6  <0> d          -0.090  -0.378  -1.018  0.00  0.00     0.067 H 
ENDROOT
TORSDOF 0
