REMARK  3 active torsions:
REMARK  status: ('A' for Active; 'I' for Inactive)
REMARK    1  A    between atoms: C1_1  and  C2_2 
REMARK    2  A    between atoms: C2_2  and  C5_7 
REMARK    3  A    between atoms: C3_3  and  C4_4 
ROOT
ATOM      1  C2  <0> d           0.026   0.007   0.003  0.00  0.00    -0.073 C 
ATOM      2  C3  <0> d           0.123   1.328   0.129  0.00  0.00    -0.007 C 
ATOM      3  H4  <0> d           1.107   1.816   0.064  0.00  0.00     0.094 H 
ENDROOT
BRANCH   1   4
ATOM      4  C1  <0> d          -1.313  -0.668   0.153  0.00  0.00    -0.054 C 
ATOM      5  H1  <0> d          -1.194  -1.753   0.016  0.00  0.00     0.033 H 
ATOM      6  H2  <0> d          -2.008  -0.277  -0.605  0.00  0.00     0.033 H 
ATOM      7  H3  <0> d          -1.714  -0.467   1.157  0.00  0.00     0.033 H 
ENDBRANCH   1   4
BRANCH   1   8
ATOM      8  C5  <0> d           1.255  -0.815  -0.291  0.00  0.00    -0.032 A 
ATOM      9  C7  <0> d           1.568  -1.979   0.651  0.00  0.00    -0.058 A 
ATOM     10  C6  <0> d           1.046  -2.256  -0.760  0.00  0.00    -0.058 A 
ATOM     11  H8  <0> d           2.630  -1.944   0.937  0.00  0.00     0.034 H 
ATOM     12  H9  <0> d           0.942  -1.900   1.552  0.00  0.00     0.034 H 
ATOM     13  H6  <0> d          -0.011  -2.405  -1.026  0.00  0.00     0.034 H 
ATOM     14  H7  <0> d           1.676  -2.450  -1.641  0.00  0.00     0.034 H 
ATOM     15  H5  <0> d           1.806   0.060  -0.666  0.00  0.00     0.046 H 
ENDBRANCH   1   8
BRANCH   2  16
ATOM     16  C4  <0> d          -1.084   2.135   0.354  0.00  0.00     0.198 C 
ATOM     17  O1  <0> d          -2.158   1.590   0.519  0.00  0.00    -0.644 OA
ATOM     18  O2  <0> d          -1.000   3.480   0.378  0.00  0.00    -0.644 OA
ENDBRANCH   2  16
TORSDOF 3
