REMARK  3 active torsions:
REMARK  status: ('A' for Active; 'I' for Inactive)
REMARK    1  A    between atoms: C4_4  and  C6_6 
REMARK    2  A    between atoms: C6_6  and  C7_7 
REMARK    3  A    between atoms: C7_7  and  O1_8 
ROOT
ATOM      1  C1  <0> d          -1.978   2.421  -0.670  0.00  0.00    -0.065 C 
ATOM      2  C2  <0> d          -0.784   1.609  -1.216  0.00  0.00    -0.065 C 
ATOM      3  C3  <0> d          -0.013   1.086   0.008  0.00  0.00    -0.062 C 
ATOM      4  C4  <0> d          -0.763   1.597   1.255  0.00  0.00    -0.052 C 
ATOM      5  C5  <0> d          -1.531   2.845   0.750  0.00  0.00    -0.062 C 
ATOM      6  H1  <0> d          -2.159   3.298  -1.292  0.00  0.00     0.033 H 
ATOM      7  H2  <0> d          -2.871   1.798  -0.619  0.00  0.00     0.033 H 
ATOM      8  H3  <0> d          -0.140   2.251  -1.817  0.00  0.00     0.033 H 
ATOM      9  H4  <0> d          -1.144   0.773  -1.816  0.00  0.00     0.033 H 
ATOM     10  H5  <0> d           0.002  -0.004   0.002  0.00  0.00     0.033 H 
ATOM     11  H6  <0> d           1.006   1.473   0.000  0.00  0.00     0.033 H 
ATOM     12  H7  <0> d          -1.460   0.842   1.618  0.00  0.00     0.040 H 
ATOM     13  H8  <0> d          -0.871   3.712   0.705  0.00  0.00     0.033 H 
ATOM     14  H9  <0> d          -2.395   3.052   1.382  0.00  0.00     0.033 H 
ENDROOT
BRANCH   4  15
ATOM     15  C6  <0> d           0.228   1.986   2.354  0.00  0.00    -0.042 C 
ATOM     16  H10 <0> d           0.882   1.140   2.569  0.00  0.00     0.036 H 
ATOM     17  H11 <0> d           0.827   2.833   2.021  0.00  0.00     0.036 H 
BRANCH  15  18
ATOM     18  C7  <0> d          -0.540   2.370   3.621  0.00  0.00     0.017 C 
ATOM     19  H12 <0> d          -1.194   3.215   3.406  0.00  0.00     0.073 H 
ATOM     20  H13 <0> d          -1.139   1.522   3.954  0.00  0.00     0.073 H 
BRANCH  18  21
ATOM     21  O1  <0> d           0.386   2.733   4.647  0.00  0.00    -0.401 OA
ATOM     22  H14 <0> d          -0.032   2.989   5.481  0.00  0.00     0.209 HD
ENDBRANCH  18  21
ENDBRANCH  15  18
ENDBRANCH   4  15
TORSDOF 3
