REMARK  3 active torsions:
REMARK  status: ('A' for Active; 'I' for Inactive)
REMARK    1  A    between atoms: C1_1  and  C2_2 
REMARK    2  A    between atoms: C6_6  and  N1_9 
REMARK    3  A    between atoms: C7_7  and  O1_8 
ROOT
ATOM      1  C2  <0> d          -0.017   1.379   0.010  0.00  0.00    -0.027 A 
ATOM      2  C3  <0> d           0.002  -0.004   0.002  0.00  0.00    -0.074 A 
ATOM      3  C4  <0> d           1.206  -0.683  -0.013  0.00  0.00    -0.080 A 
ATOM      4  C5  <0> d           2.398   0.018  -0.021  0.00  0.00    -0.055 A 
ATOM      5  C6  <0> d           2.387   1.405  -0.013  0.00  0.00     0.059 A 
ATOM      6  C7  <0> d           1.173   2.088   0.002  0.00  0.00     0.097 A 
ATOM      7  H4  <0> d          -0.927  -0.555   0.007  0.00  0.00     0.084 H 
ATOM      8  H5  <0> d           1.216  -1.762  -0.019  0.00  0.00     0.083 H 
ATOM      9  H6  <0> d           3.338  -0.515  -0.032  0.00  0.00     0.087 H 
ENDROOT
BRANCH   1  10
ATOM     10  C1  <0> d          -1.332   2.115   0.020  0.00  0.00    -0.049 C 
ATOM     11  H1  <0> d          -1.644   2.286   1.050  0.00  0.00     0.033 H 
ATOM     12  H2  <0> d          -1.217   3.071  -0.489  0.00  0.00     0.033 H 
ATOM     13  H3  <0> d          -2.086   1.518  -0.494  0.00  0.00     0.033 H 
ENDBRANCH   1  10
BRANCH   6  14
ATOM     14  O1  <0> d           1.156   3.448   0.009  0.00  0.00    -0.358 OA
ATOM     15  H7  <0> d           1.159   3.837   0.894  0.00  0.00     0.217 HD
ENDBRANCH   6  14
BRANCH   5  16
ATOM     16  N1  <0> d           3.592   2.116  -0.020  0.00  0.00    -0.397 N 
ATOM     17  H8  <0> d           4.437   1.639  -0.031  0.00  0.00     0.156 HD
ATOM     18  H9  <0> d           3.583   3.086  -0.015  0.00  0.00     0.156 HD
ENDBRANCH   5  16
TORSDOF 3
