REMARK  4 active torsions:
REMARK  status: ('A' for Active; 'I' for Inactive)
REMARK    1  A    between atoms: C1_1  and  C2_2 
REMARK    2  A    between atoms: C2_2  and  C3_3 
REMARK    3  A    between atoms: C5_6  and  C7_9 
REMARK    4  A    between atoms: C5_6  and  C8_10 
ROOT
ATOM      1  C3  <0> d          -0.825   2.986  -1.205  0.00  0.00     0.130 C 
ATOM      2  O1  <0> d          -0.709   1.562  -1.148  0.00  0.00    -0.360 OA
ATOM      3  C4  <0> d          -0.013   1.086   0.008  0.00  0.00     0.031 C 
ATOM      4  C5  <0> d          -0.734   1.582   1.266  0.00  0.00    -0.004 C 
ATOM      5  C6  <0> d          -0.873   3.107   1.187  0.00  0.00     0.031 C 
ATOM      6  O2  <0> d          -1.514   3.454  -0.044  0.00  0.00    -0.360 OA
ATOM      7  H6  <0> d           0.170   3.430  -1.242  0.00  0.00     0.128 H 
ATOM      8  H7  <0> d           0.002  -0.004   0.002  0.00  0.00     0.075 H 
ATOM      9  H8  <0> d           1.009   1.465   0.000  0.00  0.00     0.075 H 
ATOM     10  H9  <0> d           0.116   3.564   1.225  0.00  0.00     0.075 H 
ATOM     11  H10 <0> d          -1.472   3.464   2.025  0.00  0.00     0.075 H 
ENDROOT
BRANCH   1  12
ATOM     12  C2  <0> d          -1.608   3.384  -2.458  0.00  0.00    -0.022 C 
ATOM     13  H4  <0> d          -1.130   2.951  -3.337  0.00  0.00     0.039 H 
ATOM     14  H5  <0> d          -2.630   3.014  -2.381  0.00  0.00     0.039 H 
BRANCH  12  15
ATOM     15  C1  <0> d          -1.625   4.908  -2.586  0.00  0.00    -0.072 C 
ATOM     16  H1  <0> d          -2.183   5.192  -3.478  0.00  0.00     0.027 H 
ATOM     17  H2  <0> d          -2.102   5.341  -1.706  0.00  0.00     0.027 H 
ATOM     18  H3  <0> d          -0.603   5.278  -2.663  0.00  0.00     0.027 H 
ENDBRANCH  12  15
ENDBRANCH   1  12
BRANCH   4  19
ATOM     19  C7  <0> d          -2.124   0.947   1.344  0.00  0.00    -0.065 C 
ATOM     20  H11 <0> d          -2.026  -0.138   1.387  0.00  0.00     0.028 H 
ATOM     21  H12 <0> d          -2.636   1.301   2.239  0.00  0.00     0.028 H 
ATOM     22  H13 <0> d          -2.701   1.224   0.462  0.00  0.00     0.028 H 
ENDBRANCH   4  19
BRANCH   4  23
ATOM     23  C8  <0> d           0.077   1.202   2.506  0.00  0.00    -0.065 C 
ATOM     24  H14 <0> d           1.064   1.661   2.450  0.00  0.00     0.028 H 
ATOM     25  H15 <0> d          -0.438   1.556   3.399  0.00  0.00     0.028 H 
ATOM     26  H16 <0> d           0.182   0.118   2.553  0.00  0.00     0.028 H 
ENDBRANCH   4  23
TORSDOF 4
