REMARK  4 active torsions:
REMARK  status: ('A' for Active; 'I' for Inactive)
REMARK    1  A    between atoms: C2_2  and  C3_3 
REMARK    2  A    between atoms: C3_3  and  O1_4 
REMARK    3  A    between atoms: O1_4  and  C4_5 
REMARK    4  A    between atoms: C9_11  and  O2_13 
ROOT
ATOM      1  C1  <0> d          -4.626   0.990  -3.195  0.00  0.00    -0.152 C 
ATOM      2  C2  <0> d          -4.139   0.601  -2.200  0.00  0.00    -0.091 C 
ATOM      3  H3  <0> d          -5.060   1.338  -4.086  0.00  0.00     0.166 H 
ENDROOT
BRANCH   2   4
ATOM      4  C3  <0> d          -3.530   0.113  -0.952  0.00  0.00     0.074 C 
ATOM      5  H4  <0> d          -3.979  -0.841  -0.677  0.00  0.00     0.093 H 
ATOM      6  H5  <0> d          -3.701   0.839  -0.157  0.00  0.00     0.093 H 
BRANCH   4   7
ATOM      7  O1  <0> d          -2.124  -0.060  -1.145  0.00  0.00    -0.372 OA
BRANCH   7   8
ATOM      8  C4  <0> d          -1.433  -0.534   0.013  0.00  0.00     0.064 C 
ATOM      9  H1  <0> d          -1.944  -0.182   0.910  0.00  0.00     0.087 H 
ATOM     10  C9  <0> d           0.002  -0.004   0.002  0.00  0.00     0.060 C 
ATOM     11  C8  <0> d           0.742  -0.511   1.242  0.00  0.00    -0.039 C 
ATOM     12  H2  <0> d           0.512  -0.356  -0.895  0.00  0.00     0.086 H 
ATOM     13  C7  <0> d           0.763  -2.041   1.233  0.00  0.00    -0.063 C 
ATOM     14  H12 <0> d           1.765  -0.134   1.234  0.00  0.00     0.036 H 
ATOM     15  H13 <0> d           0.232  -0.159   2.138  0.00  0.00     0.036 H 
ATOM     16  C6  <0> d          -0.673  -2.570   1.244  0.00  0.00    -0.063 C 
ATOM     17  H10 <0> d           1.290  -2.402   2.116  0.00  0.00     0.033 H 
ATOM     18  H11 <0> d           1.273  -2.392   0.336  0.00  0.00     0.033 H 
ATOM     19  C5  <0> d          -1.413  -2.063   0.004  0.00  0.00    -0.038 C 
ATOM     20  H8  <0> d          -1.183  -2.219   2.141  0.00  0.00     0.033 H 
ATOM     21  H9  <0> d          -0.658  -3.660   1.238  0.00  0.00     0.033 H 
ATOM     22  H6  <0> d          -2.435  -2.441   0.012  0.00  0.00     0.036 H 
ATOM     23  H7  <0> d          -0.902  -2.415  -0.892  0.00  0.00     0.036 H 
BRANCH  10  24
ATOM     24  O2  <0> d          -0.017   1.425   0.010  0.00  0.00    -0.393 OA
ATOM     25  H14 <0> d           0.861   1.830   0.004  0.00  0.00     0.210 HD
ENDBRANCH  10  24
ENDBRANCH   7   8
ENDBRANCH   4   7
ENDBRANCH   2   4
TORSDOF 4
