REMARK  0 active torsions:
REMARK  status: ('A' for Active; 'I' for Inactive)
ROOT
ATOM      1  C1  <0> d          -0.755   1.593   1.255  0.00  0.00    -0.065 C 
ATOM      2  C2  <0> d          -2.218   1.144   1.271  0.00  0.00    -0.063 C 
ATOM      3  C3  <0> d          -2.947   1.517  -0.031  0.00  0.00    -0.040 C 
ATOM      4  C4  <0> d          -2.164   0.909  -1.171  0.00  0.00     0.052 C 
ATOM      5  H1  <0> d          -2.021  -0.153  -0.972  0.00  0.00     0.084 H 
ATOM      6  C5  <0> d          -0.770   1.600  -1.204  0.00  0.00    -0.020 C 
ATOM      7  H2  <0> d          -0.853   2.687  -1.191  0.00  0.00     0.044 H 
ATOM      8  C6  <0> d          -0.013   1.086   0.008  0.00  0.00    -0.059 C 
ATOM      9  C7  <0> d          -0.294   1.063  -2.564  0.00  0.00     0.021 C 
ATOM     10  C8  <0> d          -1.596   1.087  -3.367  0.00  0.00     0.259 C 
ATOM     11  O1  <0> d          -1.674   1.119  -4.573  0.00  0.00    -0.265 OA
ATOM     12  O2  <0> d          -2.650   1.067  -2.512  0.00  0.00    -0.316 OA
ATOM     13  H3  <0> d          -0.249   1.221   2.146  0.00  0.00     0.033 H 
ATOM     14  H4  <0> d          -0.733   2.683   1.264  0.00  0.00     0.033 H 
ATOM     15  H5  <0> d          -2.732   1.609   2.113  0.00  0.00     0.033 H 
ATOM     16  H6  <0> d          -2.241   0.061   1.394  0.00  0.00     0.033 H 
ATOM     17  H7  <0> d          -2.980   2.601  -0.141  0.00  0.00     0.036 H 
ATOM     18  H8  <0> d          -3.959   1.113  -0.019  0.00  0.00     0.036 H 
ATOM     19  H9  <0> d           0.002  -0.004   0.002  0.00  0.00     0.033 H 
ATOM     20  H10 <0> d           1.007   1.471   0.000  0.00  0.00     0.033 H 
ATOM     21  H11 <0> d           0.451   1.723  -3.007  0.00  0.00     0.048 H 
ATOM     22  H12 <0> d           0.090   0.047  -2.472  0.00  0.00     0.048 H 
ENDROOT
TORSDOF 0
