REMARK  2 active torsions:
REMARK  status: ('A' for Active; 'I' for Inactive)
REMARK    1  A    between atoms: C2_2  and  C4_8 
REMARK    2  A    between atoms: C3_6  and  N3_7 
ROOT
ATOM      1  C1  <0> d           2.411   3.849   0.005  0.00  0.00    -0.004 A 
ATOM      2  C2  <0> d           1.238   3.066   0.007  0.00  0.00     0.156 A 
ATOM      3  N1  <0> d           0.202   3.881   0.021  0.00  0.00    -0.166 NA
ATOM      4  N2  <0> d           0.679   5.198   0.024  0.00  0.00    -0.262 N 
ATOM      5  H1  <0> d           0.117   6.026   0.034  0.00  0.00     0.191 HD
ATOM      6  C3  <0> d           2.038   5.155   0.010  0.00  0.00     0.117 A 
ATOM      7  H2  <0> d           3.425   3.477  -0.001  0.00  0.00     0.093 H 
ENDROOT
BRANCH   2   8
ATOM      8  C4  <0> d           1.181   1.591  -0.001  0.00  0.00     0.230 C 
ATOM      9  O1  <0> d           2.209   0.943  -0.014  0.00  0.00    -0.643 OA
ATOM     10  O2  <0> d          -0.011   0.963   0.007  0.00  0.00    -0.643 OA
ENDBRANCH   2   8
BRANCH   6  11
ATOM     11  N3  <0> d           2.893   6.253   0.007  0.00  0.00    -0.384 N 
ATOM     12  H3  <0> d           2.529   7.152   0.016  0.00  0.00     0.157 HD
ATOM     13  H4  <0> d           3.854   6.120  -0.003  0.00  0.00     0.157 HD
ENDBRANCH   6  11
TORSDOF 2
