REMARK  2 active torsions:
REMARK  status: ('A' for Active; 'I' for Inactive)
REMARK    1  A    between atoms: C4_4  and  N2_10 
REMARK    2  A    between atoms: C5_5  and  C7_7 
ROOT
ATOM      1  C7  <0> d           2.510   0.085  -0.021  0.00  0.00     0.041 C 
ATOM      2  C8  <0> d           2.883   0.432   1.359  0.00  0.00     0.063 C 
ATOM      3  N1  <0> d           3.171   0.700   2.425  0.00  0.00    -0.197 NA
ATOM      4  H5  <0> d           3.293  -0.528  -0.467  0.00  0.00     0.062 H 
ATOM      5  H6  <0> d           2.387   0.998  -0.605  0.00  0.00     0.062 H 
ENDROOT
BRANCH   1   6
ATOM      6  C5  <0> d           1.213  -0.684  -0.013  0.00  0.00    -0.019 A 
ATOM      7  C4  <0> d           0.002  -0.004   0.002  0.00  0.00     0.033 A 
ATOM      8  C3  <0> d          -1.190  -0.717   0.015  0.00  0.00    -0.057 A 
ATOM      9  C2  <0> d          -1.168  -2.097   0.003  0.00  0.00    -0.081 A 
ATOM     10  H3  <0> d          -2.134  -0.191   0.032  0.00  0.00     0.086 H 
ATOM     11  C1  <0> d           0.040  -2.771  -0.012  0.00  0.00    -0.082 A 
ATOM     12  H2  <0> d          -2.095  -2.652   0.010  0.00  0.00     0.083 H 
ATOM     13  C6  <0> d           1.228  -2.065  -0.020  0.00  0.00    -0.074 A 
ATOM     14  H1  <0> d           0.054  -3.851  -0.017  0.00  0.00     0.083 H 
ATOM     15  H4  <0> d           2.170  -2.594  -0.032  0.00  0.00     0.084 H 
BRANCH   7  16
ATOM     16  N2  <0> d          -0.017   1.393   0.010  0.00  0.00    -0.399 N 
ATOM     17  H7  <0> d           0.817   1.889   0.004  0.00  0.00     0.156 HD
ATOM     18  H8  <0> d          -0.863   1.866   0.016  0.00  0.00     0.156 HD
ENDBRANCH   7  16
ENDBRANCH   1   6
TORSDOF 2
