REMARK  3 active torsions:
REMARK  status: ('A' for Active; 'I' for Inactive)
REMARK    1  A    between atoms: C1_1  and  O1_2 
REMARK    2  A    between atoms: O1_2  and  C2_3 
REMARK    3  A    between atoms: C2_3  and  C3_5 
ROOT
ATOM      1  C3  <0> d           1.243  -0.692  -0.014  0.00  0.00     0.107 A 
ATOM      2  C4  <0> d           2.423   0.050  -0.021  0.00  0.00    -0.060 A 
ATOM      3  C5  <0> d           2.345   1.442  -0.013  0.00  0.00    -0.067 A 
ATOM      4  C6  <0> d           1.134   2.057   0.002  0.00  0.00    -0.020 A 
ATOM      5  N1  <0> d          -0.016   1.342   0.009  0.00  0.00    -0.333 N 
ATOM      6  H1  <0> d          -0.867   1.808   0.016  0.00  0.00     0.168 HD
ATOM      7  C7  <0> d           0.002  -0.004   0.002  0.00  0.00     0.261 A 
ATOM      8  O3  <0> d          -1.044  -0.630   0.009  0.00  0.00    -0.267 OA
ATOM      9  H5  <0> d           3.383  -0.445  -0.032  0.00  0.00     0.085 H 
ATOM     10  H6  <0> d           3.249   2.033  -0.018  0.00  0.00     0.085 H 
ATOM     11  H7  <0> d           1.088   3.136   0.008  0.00  0.00     0.111 H 
ENDROOT
BRANCH   1  12
ATOM     12  C2  <0> d           1.284  -2.161  -0.021  0.00  0.00     0.298 C 
ATOM     13  O2  <0> d           2.353  -2.739  -0.035  0.00  0.00    -0.259 OA
BRANCH  12  14
ATOM     14  O1  <0> d           0.136  -2.867  -0.014  0.00  0.00    -0.322 OA
BRANCH  14  15
ATOM     15  C1  <0> d           0.252  -4.314  -0.022  0.00  0.00     0.013 C 
ATOM     16  H2  <0> d           0.784  -4.631  -0.919  0.00  0.00     0.067 H 
ATOM     17  H3  <0> d           0.801  -4.640   0.861  0.00  0.00     0.067 H 
ATOM     18  H4  <0> d          -0.744  -4.759  -0.015  0.00  0.00     0.067 H 
ENDBRANCH  14  15
ENDBRANCH  12  14
ENDBRANCH   1  12
TORSDOF 3
