REMARK  1 active torsions:
REMARK  status: ('A' for Active; 'I' for Inactive)
REMARK    1  A    between atoms: C4_6  and  C6_9 
REMARK       I    between atoms: C6_9  and  N2_11 
ROOT
ATOM      1  C1  <0> d           1.263  -0.649  -0.013  0.00  0.00    -0.019 A 
ATOM      2  C2  <0> d           2.387   0.097  -0.020  0.00  0.00    -0.020 A 
ATOM      3  N1  <0> d           2.345   1.452  -0.013  0.00  0.00    -0.374 N 
ATOM      4  H1  <0> d           3.180   1.946  -0.018  0.00  0.00     0.164 HD
ATOM      5  C3  <0> d           1.189   2.136   0.002  0.00  0.00    -0.004 A 
ATOM      6  C4  <0> d          -0.018   1.467   0.010  0.00  0.00     0.097 A 
ATOM      7  C5  <0> d           0.002  -0.004   0.002  0.00  0.00     0.190 A 
ATOM      8  O1  <0> d          -1.035  -0.648   0.008  0.00  0.00    -0.287 OA
ATOM      9  H2  <0> d           1.324  -1.727  -0.020  0.00  0.00     0.091 H 
ATOM     10  H3  <0> d           3.346  -0.399  -0.032  0.00  0.00     0.111 H 
ATOM     11  H4  <0> d           1.204   3.216   0.007  0.00  0.00     0.113 H 
ENDROOT
BRANCH   6  12
ATOM     12  C6  <0> d          -1.292   2.205   0.020  0.00  0.00     0.254 C 
ATOM     13  O2  <0> d          -2.346   1.599   0.022  0.00  0.00    -0.268 OA
ATOM     14  N2  <0> d          -1.290   3.553   0.028  0.00  0.00    -0.366 N 
ATOM     15  H5  <0> d          -0.449   4.037   0.026  0.00  0.00     0.159 HD
ATOM     16  H6  <0> d          -2.129   4.040   0.034  0.00  0.00     0.159 HD
ENDBRANCH   6  12
TORSDOF 1
