REMARK  2 active torsions:
REMARK  status: ('A' for Active; 'I' for Inactive)
REMARK    1  A    between atoms: C1_1  and  N1_2 
REMARK    2  A    between atoms: C7_8  and  N2_9 
ROOT
ATOM      1  N1  <0> d          -0.660   1.752   1.162  0.00  0.00    -0.272 N 
ATOM      2  C2  <0> d          -2.005   1.998   1.279  0.00  0.00     0.090 A 
ATOM      3  C3  <0> d          -2.229   2.385   2.612  0.00  0.00     0.014 A 
ATOM      4  C4  <0> d          -3.530   2.700   3.032  0.00  0.00    -0.069 A 
ATOM      5  C5  <0> d          -4.568   2.625   2.150  0.00  0.00    -0.080 A 
ATOM      6  C6  <0> d          -4.355   2.237   0.834  0.00  0.00    -0.055 A 
ATOM      7  C7  <0> d          -3.084   1.920   0.392  0.00  0.00     0.055 A 
ATOM      8  C8  <0> d          -0.972   2.365   3.263  0.00  0.00     0.034 A 
ATOM      9  N3  <0> d          -0.065   1.994   2.406  0.00  0.00    -0.184 NA
ATOM     10  H4  <0> d          -3.709   3.003   4.053  0.00  0.00     0.085 H 
ATOM     11  H5  <0> d          -5.567   2.869   2.480  0.00  0.00     0.083 H 
ATOM     12  H6  <0> d          -5.189   2.182   0.150  0.00  0.00     0.087 H 
ATOM     13  H9  <0> d          -0.795   2.616   4.298  0.00  0.00     0.118 H 
ENDROOT
BRANCH   1  14
ATOM     14  C1  <0> d           0.033   1.317  -0.053  0.00  0.00     0.003 C 
ATOM     15  H1  <0> d          -0.044   0.234  -0.148  0.00  0.00     0.059 H 
ATOM     16  H2  <0> d           1.083   1.604   0.006  0.00  0.00     0.059 H 
ATOM     17  H3  <0> d          -0.425   1.792  -0.921  0.00  0.00     0.059 H 
ENDBRANCH   1  14
BRANCH   7  18
ATOM     18  N2  <0> d          -2.877   1.530  -0.934  0.00  0.00    -0.397 N 
ATOM     19  H7  <0> d          -3.594   1.614  -1.582  0.00  0.00     0.156 HD
ATOM     20  H8  <0> d          -2.016   1.176  -1.207  0.00  0.00     0.156 HD
ENDBRANCH   7  18
TORSDOF 2
