REMARK  4 active torsions:
REMARK  status: ('A' for Active; 'I' for Inactive)
REMARK    1  A    between atoms: C1_1  and  O1_2 
REMARK    2  A    between atoms: O1_2  and  C2_3 
REMARK    3  A    between atoms: C2_3  and  C3_4 
REMARK    4  A    between atoms: C3_4  and  C4_5 
ROOT
ATOM      1  C4  <0> d           0.000   1.080   2.488  0.00  0.00    -0.056 A 
ATOM      2  C5  <0> d          -0.347  -0.133   3.052  0.00  0.00    -0.077 A 
ATOM      3  C6  <0> d           0.325  -0.593   4.169  0.00  0.00    -0.082 A 
ATOM      4  C7  <0> d           1.337   0.164   4.728  0.00  0.00    -0.083 A 
ATOM      5  C8  <0> d           1.680   1.380   4.167  0.00  0.00    -0.082 A 
ATOM      6  C9  <0> d           1.012   1.838   3.046  0.00  0.00    -0.077 A 
ATOM      7  H8  <0> d          -1.141  -0.723   2.618  0.00  0.00     0.084 H 
ATOM      8  H9  <0> d           0.056  -1.543   4.608  0.00  0.00     0.083 H 
ATOM      9  H10 <0> d           1.859  -0.193   5.603  0.00  0.00     0.083 H 
ATOM     10  H11 <0> d           2.471   1.972   4.603  0.00  0.00     0.083 H 
ATOM     11  H12 <0> d           1.280   2.788   2.608  0.00  0.00     0.084 H 
ENDROOT
BRANCH   1  12
ATOM     12  C3  <0> d          -0.729   1.579   1.267  0.00  0.00    -0.021 C 
ATOM     13  H6  <0> d          -0.744   2.669   1.273  0.00  0.00     0.043 H 
ATOM     14  H7  <0> d          -1.751   1.202   1.275  0.00  0.00     0.043 H 
BRANCH  12  15
ATOM     15  C2  <0> d          -0.013   1.086   0.008  0.00  0.00     0.023 C 
ATOM     16  H4  <0> d           0.002  -0.004   0.002  0.00  0.00     0.074 H 
ATOM     17  H5  <0> d           1.010   1.463   0.000  0.00  0.00     0.074 H 
BRANCH  15  18
ATOM     18  O1  <0> d          -0.704   1.559  -1.150  0.00  0.00    -0.396 OA
BRANCH  18  19
ATOM     19  C1  <0> d          -0.114   1.152  -2.386  0.00  0.00     0.004 C 
ATOM     20  H1  <0> d          -0.697   1.552  -3.216  0.00  0.00     0.066 H 
ATOM     21  H2  <0> d           0.907   1.531  -2.443  0.00  0.00     0.066 H 
ATOM     22  H3  <0> d          -0.101   0.064  -2.442  0.00  0.00     0.066 H 
ENDBRANCH  18  19
ENDBRANCH  15  18
ENDBRANCH  12  15
ENDBRANCH   1  12
TORSDOF 4
