REMARK  1 active torsions:
REMARK  status: ('A' for Active; 'I' for Inactive)
REMARK    1  A    between atoms: C1_1  and  C2_2 
ROOT
ATOM      1  C2  <0> d           0.002  -0.004   0.002  0.00  0.00    -0.061 A 
ATOM      2  C3  <0> d           0.006  -0.697  -1.201  0.00  0.00    -0.076 A 
ATOM      3  C4  <0> d           0.024  -2.056  -1.239  0.00  0.00    -0.071 A 
ATOM      4  C5  <0> d           0.040  -2.812  -0.043  0.00  0.00    -0.019 A 
ATOM      5  C6  <0> d           0.061  -4.259   0.119  0.00  0.00    -0.065 A 
ATOM      6  C7  <0> d           0.074  -4.780   1.354  0.00  0.00    -0.043 A 
ATOM      7  S1  <0> d           0.060  -3.346   2.413  0.00  0.00    -0.101 SA
ATOM      8  C8  <0> d           0.036  -2.084   1.166  0.00  0.00     0.015 A 
ATOM      9  C9  <0> d           0.023  -0.706   1.191  0.00  0.00    -0.060 A 
ATOM     10  H4  <0> d          -0.006  -0.143  -2.129  0.00  0.00     0.084 H 
ATOM     11  H5  <0> d           0.026  -2.563  -2.192  0.00  0.00     0.084 H 
ATOM     12  H6  <0> d           0.065  -4.905  -0.746  0.00  0.00     0.085 H 
ATOM     13  H7  <0> d           0.089  -5.822   1.640  0.00  0.00     0.095 H 
ATOM     14  H8  <0> d           0.024  -0.179   2.134  0.00  0.00     0.086 H 
ENDROOT
BRANCH   1  15
ATOM     15  C1  <0> d          -0.018   1.503   0.010  0.00  0.00    -0.051 C 
ATOM     16  H1  <0> d           1.004   1.880   0.003  0.00  0.00     0.033 H 
ATOM     17  H2  <0> d          -0.545   1.864  -0.873  0.00  0.00     0.033 H 
ATOM     18  H3  <0> d          -0.529   1.854   0.907  0.00  0.00     0.033 H 
ENDBRANCH   1  15
TORSDOF 1
