REMARK  3 active torsions:
REMARK  status: ('A' for Active; 'I' for Inactive)
REMARK    1  A    between atoms: C1_1  and  C2_2 
REMARK    2  A    between atoms: C5_5  and  C8_9 
REMARK    3  A    between atoms: C6_6  and  N1_8 
ROOT
ATOM      1  C2  <0> d           0.002  -0.004   0.002  0.00  0.00    -0.060 A 
ATOM      2  C3  <0> d           0.006  -0.688  -1.200  0.00  0.00    -0.077 A 
ATOM      3  C4  <0> d           0.024  -2.071  -1.212  0.00  0.00    -0.075 A 
ATOM      4  C5  <0> d           0.039  -2.773  -0.023  0.00  0.00    -0.036 A 
ATOM      5  C6  <0> d           0.036  -2.089   1.186  0.00  0.00     0.032 A 
ATOM      6  C7  <0> d           0.023  -0.700   1.194  0.00  0.00    -0.051 A 
ATOM      7  H4  <0> d          -0.006  -0.141  -2.131  0.00  0.00     0.084 H 
ATOM      8  H5  <0> d           0.026  -2.602  -2.152  0.00  0.00     0.084 H 
ATOM      9  H6  <0> d           0.025  -0.165   2.133  0.00  0.00     0.087 H 
ENDROOT
BRANCH   1  10
ATOM     10  C1  <0> d          -0.018   1.503   0.010  0.00  0.00    -0.051 C 
ATOM     11  H1  <0> d           1.004   1.880   0.003  0.00  0.00     0.033 H 
ATOM     12  H2  <0> d          -0.545   1.864  -0.873  0.00  0.00     0.033 H 
ATOM     13  H3  <0> d          -0.529   1.854   0.907  0.00  0.00     0.033 H 
ENDBRANCH   1  10
BRANCH   5  14
ATOM     14  N1  <0> d           0.051  -2.796   2.390  0.00  0.00    -0.399 N 
ATOM     15  H7  <0> d           0.064  -3.766   2.383  0.00  0.00     0.156 HD
ATOM     16  H8  <0> d           0.049  -2.318   3.234  0.00  0.00     0.156 HD
ENDBRANCH   5  14
BRANCH   4  17
ATOM     17  C8  <0> d           0.059  -4.280  -0.037  0.00  0.00    -0.049 C 
ATOM     18  H9  <0> d           1.091  -4.630  -0.046  0.00  0.00     0.033 H 
ATOM     19  H10 <0> d          -0.446  -4.658   0.852  0.00  0.00     0.033 H 
ATOM     20  H11 <0> d          -0.455  -4.642  -0.928  0.00  0.00     0.033 H 
ENDBRANCH   4  17
TORSDOF 3
