REMARK  4 active torsions:
REMARK  status: ('A' for Active; 'I' for Inactive)
REMARK    1  A    between atoms: C1_1  and  C2_2 
REMARK    2  A    between atoms: C2_2  and  C10_14 
REMARK    3  A    between atoms: C6_7  and  C9_12 
REMARK    4  A    between atoms: C9_12  and  O1_13 
ROOT
ATOM      1  C2  <0> d           0.449  -0.562   1.366  0.00  0.00    -0.040 C 
ATOM      2  C3  <0> d           0.263   0.132   0.004  0.00  0.00    -0.047 C 
ATOM      3  H1  <0> d          -0.634  -0.150  -0.547  0.00  0.00     0.041 H 
ATOM      4  C4  <0> d           0.484   1.651   0.119  0.00  0.00    -0.061 C 
ATOM      5  C5  <0> d           1.988   1.901   0.302  0.00  0.00    -0.059 C 
ATOM      6  C6  <0> d           2.503   0.933   1.395  0.00  0.00    -0.029 C 
ATOM      7  H2  <0> d           2.151   1.250   2.377  0.00  0.00     0.043 H 
ATOM      8  C7  <0> d           1.960  -0.471   1.077  0.00  0.00    -0.041 C 
ATOM      9  H3  <0> d           2.564  -1.287   1.474  0.00  0.00     0.042 H 
ATOM     10  C8  <0> d           1.560  -0.581  -0.428  0.00  0.00    -0.057 C 
ATOM     11  H7  <0> d           0.137   2.143  -0.789  0.00  0.00     0.033 H 
ATOM     12  H8  <0> d          -0.061   2.038   0.980  0.00  0.00     0.033 H 
ATOM     13  H9  <0> d           2.506   1.727  -0.641  0.00  0.00     0.033 H 
ATOM     14  H10 <0> d           2.151   2.929   0.628  0.00  0.00     0.033 H 
ATOM     15  H11 <0> d           1.408  -1.605  -0.769  0.00  0.00     0.034 H 
ATOM     16  H12 <0> d           2.182   0.007  -1.103  0.00  0.00     0.034 H 
ENDROOT
BRANCH   1  17
ATOM     17  C1  <0> d          -0.003   0.283   2.558  0.00  0.00    -0.069 C 
ATOM     18  H4  <0> d          -1.085   0.411   2.523  0.00  0.00     0.028 H 
ATOM     19  H5  <0> d           0.272  -0.220   3.486  0.00  0.00     0.028 H 
ATOM     20  H6  <0> d           0.480   1.259   2.517  0.00  0.00     0.028 H 
ENDBRANCH   1  17
BRANCH   1  21
ATOM     21  C10 <0> d          -0.087  -1.995   1.408  0.00  0.00    -0.069 C 
ATOM     22  H16 <0> d           0.157  -2.501   0.474  0.00  0.00     0.028 H 
ATOM     23  H17 <0> d           0.370  -2.530   2.241  0.00  0.00     0.028 H 
ATOM     24  H18 <0> d          -1.169  -1.974   1.540  0.00  0.00     0.028 H 
ENDBRANCH   1  21
BRANCH   6  25
ATOM     25  C9  <0> d           4.033   0.911   1.377  0.00  0.00     0.020 C 
ATOM     26  H13 <0> d           4.394   0.142   2.061  0.00  0.00     0.074 H 
ATOM     27  H14 <0> d           4.381   0.691   0.368  0.00  0.00     0.074 H 
BRANCH  25  28
ATOM     28  O1  <0> d           4.533   2.185   1.786  0.00  0.00    -0.400 OA
ATOM     29  H15 <0> d           5.498   2.244   1.798  0.00  0.00     0.209 HD
ENDBRANCH  25  28
ENDBRANCH   6  25
TORSDOF 4
