REMARK  1 active torsions:
REMARK  status: ('A' for Active; 'I' for Inactive)
REMARK    1  A    between atoms: C6_10  and  O1_13 
ROOT
ATOM      1  C1  <0> d          -0.018   1.508   0.010  0.00  0.00    -0.062 C 
ATOM      2  C2  <0> d           1.369   2.115   0.000  0.00  0.00    -0.056 C 
ATOM      3  C3  <0> d           2.276   1.464  -1.033  0.00  0.00     0.021 A 
ATOM      4  H1  <0> d           2.801   2.155  -1.692  0.00  0.00     0.050 H 
ATOM      5  C4  <0> d           1.952   0.087  -1.590  0.00  0.00     0.043 A 
ATOM      6  H2  <0> d           2.273  -0.095  -2.616  0.00  0.00     0.053 H 
ATOM      7  C5  <0> d           3.049   0.219  -0.571  0.00  0.00     0.254 A 
ATOM      8  F1  <0> d           4.368   0.075  -1.015  0.00  0.00    -0.205 F 
ATOM      9  F2  <0> d           2.789  -0.264   0.716  0.00  0.00    -0.205 F 
ATOM     10  C6  <0> d           0.662  -0.606  -1.203  0.00  0.00     0.045 C 
ATOM     11  H3  <0> d           0.865  -1.665  -1.047  0.00  0.00     0.083 H 
ATOM     12  C7  <0> d           0.002  -0.004   0.002  0.00  0.00    -0.041 C 
ATOM     13  H4  <0> d          -0.544   1.848   0.903  0.00  0.00     0.033 H 
ATOM     14  H5  <0> d          -0.561   1.857  -0.868  0.00  0.00     0.033 H 
ATOM     15  H6  <0> d           1.288   3.179  -0.222  0.00  0.00     0.033 H 
ATOM     16  H7  <0> d           1.814   1.995   0.988  0.00  0.00     0.033 H 
ATOM     17  H8  <0> d           0.564  -0.353   0.868  0.00  0.00     0.036 H 
ATOM     18  H9  <0> d          -1.022  -0.370   0.080  0.00  0.00     0.036 H 
ENDROOT
BRANCH  10  19
ATOM     19  O1  <0> d          -0.275  -0.468  -2.273  0.00  0.00    -0.395 OA
ATOM     20  H10 <0> d          -1.130  -0.886  -2.103  0.00  0.00     0.210 HD
ENDBRANCH  10  19
TORSDOF 1
