REMARK  2 active torsions:
REMARK  status: ('A' for Active; 'I' for Inactive)
REMARK    1  A    between atoms: C1_1  and  C2_2 
REMARK    2  A    between atoms: N3_7  and  C5_9 
ROOT
ATOM      1  C2  <0> d          -2.100   1.649   1.206  0.00  0.00     0.098 C 
ATOM      2  N1  <0> d          -2.805   1.848   0.125  0.00  0.00    -0.213 NA
ATOM      3  C3  <0> d          -2.141   1.960  -1.072  0.00  0.00     0.201 A 
ATOM      4  C4  <0> d          -0.774   1.602  -1.191  0.00  0.00     0.123 A 
ATOM      5  N2  <0> d          -0.406   1.803  -2.413  0.00  0.00    -0.154 NA
ATOM      6  N3  <0> d          -1.403   2.258  -3.098  0.00  0.00    -0.191 N 
ATOM      7  N4  <0> d          -2.523   2.365  -2.254  0.00  0.00    -0.133 NA
ATOM      8  C6  <0> d          -0.013   1.086   0.008  0.00  0.00     0.039 C 
ATOM      9  N5  <0> d          -0.733   1.576   1.197  0.00  0.00    -0.373 N 
ATOM     10  H7  <0> d           0.002  -0.004   0.002  0.00  0.00     0.073 H 
ATOM     11  H8  <0> d           1.006   1.474   0.000  0.00  0.00     0.073 H 
ATOM     12  H9  <0> d          -0.232   1.851   1.981  0.00  0.00     0.161 HD
ENDROOT
BRANCH   1  13
ATOM     13  C1  <0> d          -2.822   1.493   2.520  0.00  0.00    -0.021 C 
ATOM     14  H1  <0> d          -3.897   1.576   2.356  0.00  0.00     0.037 H 
ATOM     15  H2  <0> d          -2.594   0.516   2.946  0.00  0.00     0.037 H 
ATOM     16  H3  <0> d          -2.498   2.274   3.208  0.00  0.00     0.037 H 
ENDBRANCH   1  13
BRANCH   6  17
ATOM     17  C5  <0> d          -1.373   2.605  -4.521  0.00  0.00     0.020 C 
ATOM     18  H4  <0> d          -1.091   3.652  -4.633  0.00  0.00     0.062 H 
ATOM     19  H5  <0> d          -0.644   1.976  -5.032  0.00  0.00     0.062 H 
ATOM     20  H6  <0> d          -2.360   2.446  -4.955  0.00  0.00     0.062 H 
ENDBRANCH   6  17
TORSDOF 2
