REMARK  2 active torsions:
REMARK  status: ('A' for Active; 'I' for Inactive)
REMARK    1  A    between atoms: C1_1  and  C2_2 
REMARK    2  A    between atoms: C4_6  and  N4_8 
ROOT
ATOM      1  C2  <0> d           2.292   0.009  -0.020  0.00  0.00     0.069 A 
ATOM      2  C3  <0> d           2.248   1.395  -0.012  0.00  0.00     0.048 A 
ATOM      3  N1  <0> d           1.075   2.006   0.003  0.00  0.00    -0.144 NA
ATOM      4  N2  <0> d          -0.016   1.323   0.009  0.00  0.00     0.043 NA
ATOM      5  C4  <0> d           0.002  -0.004   0.002  0.00  0.00     0.738 A 
ATOM      6  N3  <0> d           1.153  -0.666  -0.013  0.00  0.00    -0.065 NA
ATOM      7  H4  <0> d           3.162   1.970  -0.018  0.00  0.00     0.120 H 
ENDROOT
BRANCH   1   8
ATOM      8  C1  <0> d           3.612  -0.717  -0.036  0.00  0.00    -0.034 C 
ATOM      9  H1  <0> d           3.921  -0.886  -1.067  0.00  0.00     0.035 H 
ATOM     10  H2  <0> d           4.364  -0.114   0.474  0.00  0.00     0.035 H 
ATOM     11  H3  <0> d           3.507  -1.674   0.474  0.00  0.00     0.035 H 
ENDBRANCH   1   8
BRANCH   5  12
ATOM     12  N4  <0> d          -1.191  -0.705   0.010  0.00  0.00    -0.230 N 
ATOM     13  H5  <0> d          -2.035  -0.227   0.021  0.00  0.00     0.174 HD
ATOM     14  H6  <0> d          -1.184  -1.675   0.005  0.00  0.00     0.174 HD
ENDBRANCH   5  12
TORSDOF 2
