REMARK  0 active torsions:
REMARK  status: ('A' for Active; 'I' for Inactive)
ROOT
ATOM      1  C1  <0> d          -0.435   0.948   2.466  0.00  0.00     0.013 A 
ATOM      2  C2  <0> d          -0.709   1.567   1.250  0.00  0.00     0.012 A 
ATOM      3  C3  <0> d          -1.607   2.611   1.232  0.00  0.00     0.047 A 
ATOM      4  N1  <0> d          -2.180   2.989   2.367  0.00  0.00    -0.246 NA
ATOM      5  C4  <0> d          -1.900   2.380   3.501  0.00  0.00     0.086 A 
ATOM      6  N2  <0> d          -1.045   1.378   3.557  0.00  0.00    -0.254 NA
ATOM      7  C5  <0> d          -1.957   3.328  -0.044  0.00  0.00     0.001 C 
ATOM      8  C6  <0> d          -0.906   3.026  -1.114  0.00  0.00     0.117 C 
ATOM      9  N3  <0> d          -0.715   1.568  -1.186  0.00  0.00     0.088 N 
ATOM     10  C7  <0> d          -0.013   1.086   0.008  0.00  0.00     0.138 C 
ATOM     11  H1  <0> d           0.264   0.126   2.517  0.00  0.00     0.115 H 
ATOM     12  H2  <0> d          -2.382   2.711   4.409  0.00  0.00     0.146 H 
ATOM     13  H3  <0> d          -2.942   2.990  -0.396  0.00  0.00     0.044 H 
ATOM     14  H4  <0> d          -1.985   4.412   0.141  0.00  0.00     0.044 H 
ATOM     15  H5  <0> d          -1.253   3.406  -2.086  0.00  0.00     0.080 H 
ATOM     16  H6  <0> d           0.042   3.514  -0.845  0.00  0.00     0.080 H 
ATOM     17  H7  <0> d          -1.695   1.073  -1.251  0.00  0.00     0.316 HD
ATOM     18  H8  <0> d           1.020   1.465  -0.004  0.00  0.00     0.087 H 
ATOM     19  H9  <0> d           0.001  -0.014  -0.002  0.00  0.00     0.087 H 
ENDROOT
TORSDOF 0
