REMARK  4 active torsions:
REMARK  status: ('A' for Active; 'I' for Inactive)
REMARK    1  A    between atoms: C1_1  and  O1_2 
REMARK    2  A    between atoms: O1_2  and  C2_3 
REMARK    3  A    between atoms: C2_3  and  C3_5 
REMARK    4  A    between atoms: C3_5  and  O3_8 
ROOT
ATOM      1  C3  <0> d           1.317   0.779  -0.006  0.00  0.00     0.145 A 
ATOM      2  C4  <0> d          -0.019   1.526   0.010  0.00  0.00    -0.024 A 
ATOM      3  C5  <0> d           0.002  -0.004   0.002  0.00  0.00    -0.024 A 
ATOM      4  H4  <0> d          -0.325   2.030  -0.906  0.00  0.00     0.038 H 
ATOM      5  H5  <0> d          -0.307   2.020   0.938  0.00  0.00     0.038 H 
ATOM      6  H6  <0> d          -0.273  -0.516   0.924  0.00  0.00     0.038 H 
ATOM      7  H7  <0> d          -0.290  -0.506  -0.920  0.00  0.00     0.038 H 
ENDROOT
BRANCH   1   8
ATOM      8  C2  <0> d           2.132   0.783   1.261  0.00  0.00     0.293 C 
ATOM      9  O2  <0> d           1.589   0.939   2.329  0.00  0.00    -0.262 OA
BRANCH   8  10
ATOM     10  O1  <0> d           3.462   0.613   1.204  0.00  0.00    -0.324 OA
BRANCH  10  11
ATOM     11  C1  <0> d           4.184   0.628   2.463  0.00  0.00     0.013 C 
ATOM     12  H1  <0> d           3.814  -0.172   3.104  0.00  0.00     0.067 H 
ATOM     13  H2  <0> d           5.247   0.481   2.275  0.00  0.00     0.067 H 
ATOM     14  H3  <0> d           4.032   1.588   2.958  0.00  0.00     0.067 H 
ENDBRANCH  10  11
ENDBRANCH   8  10
ENDBRANCH   1   8
BRANCH   1  15
ATOM     15  O3  <0> d           2.067   0.796  -1.222  0.00  0.00    -0.380 OA
ATOM     16  H8  <0> d           2.901   0.309  -1.177  0.00  0.00     0.211 HD
ENDBRANCH   1  15
TORSDOF 4
