REMARK  1 active torsions:
REMARK  status: ('A' for Active; 'I' for Inactive)
REMARK    1  A    between atoms: C5_5  and  N1_7 
ROOT
ATOM      1  C1  <0> d           1.240  -2.065  -0.021  0.00  0.00    -0.079 A 
ATOM      2  C2  <0> d           0.060  -2.780  -0.013  0.00  0.00    -0.063 A 
ATOM      3  C3  <0> d          -1.164  -2.109   0.002  0.00  0.00     0.046 A 
ATOM      4  C4  <0> d          -1.189  -0.714   0.015  0.00  0.00    -0.038 A 
ATOM      5  C5  <0> d           0.002  -0.004   0.002  0.00  0.00     0.027 A 
ATOM      6  C6  <0> d           1.215  -0.683  -0.013  0.00  0.00    -0.058 A 
ATOM      7  C7  <0> d          -2.390  -2.849   0.009  0.00  0.00     0.099 C 
ATOM      8  N2  <0> d          -3.362  -3.436   0.015  0.00  0.00    -0.191 NA
ATOM      9  H1  <0> d           2.185  -2.586  -0.032  0.00  0.00     0.083 H 
ATOM     10  H2  <0> d           0.083  -3.860  -0.019  0.00  0.00     0.085 H 
ATOM     11  H3  <0> d          -2.132  -0.188   0.032  0.00  0.00     0.089 H 
ATOM     12  H4  <0> d           2.142  -0.128  -0.019  0.00  0.00     0.086 H 
ENDROOT
BRANCH   5  13
ATOM     13  N1  <0> d          -0.017   1.393   0.010  0.00  0.00    -0.399 N 
ATOM     14  H5  <0> d           0.817   1.889   0.004  0.00  0.00     0.156 HD
ATOM     15  H6  <0> d          -0.863   1.866   0.016  0.00  0.00     0.156 HD
ENDBRANCH   5  13
TORSDOF 1
