REMARK  0 active torsions:
REMARK  status: ('A' for Active; 'I' for Inactive)
ROOT
ATOM      1  C1  <0> d          -0.019   1.526   0.010  0.00  0.00    -0.065 C 
ATOM      2  C2  <0> d           1.416   2.057  -0.000  0.00  0.00    -0.061 C 
ATOM      3  C3  <0> d           2.130   1.569  -1.263  0.00  0.00    -0.016 C 
ATOM      4  C4  <0> d           2.142   0.042  -1.284  0.00  0.00     0.200 C 
ATOM      5  C5  <0> d           0.713  -0.497  -1.261  0.00  0.00    -0.016 C 
ATOM      6  C6  <0> d           0.002  -0.004   0.002  0.00  0.00    -0.061 C 
ATOM      7  N1  <0> d           2.838  -0.437  -2.497  0.00  0.00    -0.040 N 
ATOM      8  C7  <0> d           3.502  -1.679  -2.034  0.00  0.00     0.157 C 
ATOM      9  C8  <0> d           3.697  -1.482  -0.546  0.00  0.00     0.245 C 
ATOM     10  O1  <0> d           4.446  -2.122   0.161  0.00  0.00    -0.272 OA
ATOM     11  N2  <0> d           2.897  -0.474  -0.140  0.00  0.00    -0.327 N 
ATOM     12  H1  <0> d          -0.529   1.877   0.907  0.00  0.00     0.033 H 
ATOM     13  H2  <0> d          -0.546   1.887  -0.873  0.00  0.00     0.033 H 
ATOM     14  H3  <0> d           1.400   3.147   0.010  0.00  0.00     0.033 H 
ATOM     15  H4  <0> d           1.945   1.693   0.880  0.00  0.00     0.033 H 
ATOM     16  H5  <0> d           1.606   1.941  -2.144  0.00  0.00     0.039 H 
ATOM     17  H6  <0> d           3.155   1.940  -1.267  0.00  0.00     0.039 H 
ATOM     18  H7  <0> d           0.176  -0.143  -2.141  0.00  0.00     0.039 H 
ATOM     19  H8  <0> d           0.736  -1.587  -1.262  0.00  0.00     0.039 H 
ATOM     20  H9  <0> d           0.533  -0.365   0.883  0.00  0.00     0.033 H 
ATOM     21  H10 <0> d          -1.020  -0.382   0.014  0.00  0.00     0.033 H 
ATOM     22  H11 <0> d           2.176  -0.638  -3.231  0.00  0.00     0.280 HD
ATOM     23  H12 <0> d           2.864  -2.543  -2.222  0.00  0.00     0.090 H 
ATOM     24  H13 <0> d           4.465  -1.802  -2.530  0.00  0.00     0.090 H 
ATOM     25  H14 <0> d           2.833  -0.143   0.770  0.00  0.00     0.165 HD
ATOM     26  H15 <0> d           3.521   0.239  -2.806  0.00  0.00     0.280 HD
ENDROOT
TORSDOF 0
