REMARK  2 active torsions:
REMARK  status: ('A' for Active; 'I' for Inactive)
REMARK    1  A    between atoms: C3_4  and  C4_6 
REMARK    2  A    between atoms: C4_6  and  O1_7 
ROOT
ATOM      1  C1  <0> d          -2.197   1.558   3.001  0.00  0.00     0.009 A 
ATOM      2  C2  <0> d          -1.706   2.759   3.399  0.00  0.00    -0.026 A 
ATOM      3  S1  <0> d          -0.464   3.037   2.144  0.00  0.00    -0.083 SA
ATOM      4  C3  <0> d          -0.718   1.572   1.248  0.00  0.00     0.098 A 
ATOM      5  N1  <0> d          -1.687   0.998   1.924  0.00  0.00    -0.255 NA
ATOM      6  H1  <0> d          -2.990   1.075   3.553  0.00  0.00     0.115 H 
ATOM      7  H2  <0> d          -1.987   3.376   4.240  0.00  0.00     0.097 H 
ENDROOT
BRANCH   4   8
ATOM      8  C4  <0> d          -0.013   1.086   0.008  0.00  0.00     0.062 C 
ATOM      9  H3  <0> d           0.002  -0.004   0.002  0.00  0.00     0.084 H 
ATOM     10  H4  <0> d           1.010   1.463   0.000  0.00  0.00     0.084 H 
BRANCH   8  11
ATOM     11  O1  <0> d          -0.704   1.559  -1.150  0.00  0.00    -0.394 OA
ATOM     12  H5  <0> d          -0.304   1.284  -1.986  0.00  0.00     0.209 HD
ENDBRANCH   8  11
ENDBRANCH   4   8
TORSDOF 2
