REMARK  8 active torsions:
REMARK  status: ('A' for Active; 'I' for Inactive)
REMARK    1  A    between atoms: C1_1  and  C2_2 
REMARK    2  A    between atoms: C2_2  and  C3_3 
REMARK    3  A    between atoms: C3_3  and  C4_5 
REMARK    4  A    between atoms: C3_3  and  C5_6 
REMARK    5  A    between atoms: C6_7  and  C7_8 
REMARK    6  A    between atoms: C7_8  and  C8_9 
REMARK    7  A    between atoms: C7_8  and  C9_10 
REMARK    8  A    between atoms: C7_8  and  O1_11 
ROOT
ATOM      1  C5  <0> d          -0.718   1.572   1.248  0.00  0.00    -0.100 C 
ATOM      2  C6  <0> d          -1.196   0.709   2.110  0.00  0.00    -0.074 C 
ATOM      3  H10 <0> d          -0.830   2.631   1.426  0.00  0.00     0.077 H 
ATOM      4  H11 <0> d          -1.085  -0.350   1.933  0.00  0.00     0.081 H 
ENDROOT
BRANCH   1   5
ATOM      5  C3  <0> d          -0.013   1.086   0.008  0.00  0.00    -0.042 C 
ATOM      6  H1  <0> d           0.002  -0.004   0.002  0.00  0.00     0.045 H 
BRANCH   5   7
ATOM      7  C2  <0> d           1.423   1.615  -0.003  0.00  0.00    -0.062 C 
ATOM      8  H5  <0> d           1.408   2.702  -0.086  0.00  0.00     0.033 H 
ATOM      9  H6  <0> d           1.923   1.329   0.922  0.00  0.00     0.033 H 
BRANCH   7  10
ATOM     10  C1  <0> d           2.176   1.022  -1.195  0.00  0.00    -0.076 C 
ATOM     11  H2  <0> d           2.191  -0.065  -1.111  0.00  0.00     0.027 H 
ATOM     12  H3  <0> d           1.676   1.309  -2.120  0.00  0.00     0.027 H 
ATOM     13  H4  <0> d           3.199   1.399  -1.203  0.00  0.00     0.027 H 
ENDBRANCH   7  10
ENDBRANCH   5   7
BRANCH   5  14
ATOM     14  C4  <0> d          -0.753   1.593  -1.232  0.00  0.00    -0.070 C 
ATOM     15  H7  <0> d          -0.242   1.241  -2.128  0.00  0.00     0.028 H 
ATOM     16  H8  <0> d          -1.775   1.215  -1.224  0.00  0.00     0.028 H 
ATOM     17  H9  <0> d          -0.767   2.683  -1.226  0.00  0.00     0.028 H 
ENDBRANCH   5  14
ENDBRANCH   1   5
BRANCH   2  18
ATOM     18  C7  <0> d          -1.901   1.195   3.350  0.00  0.00     0.068 C 
BRANCH  18  19
ATOM     19  C8  <0> d          -3.337   0.666   3.361  0.00  0.00    -0.045 C 
ATOM     20  H12 <0> d          -3.322  -0.424   3.355  0.00  0.00     0.032 H 
ATOM     21  H13 <0> d          -3.847   1.017   4.258  0.00  0.00     0.032 H 
ATOM     22  H14 <0> d          -3.864   1.027   2.478  0.00  0.00     0.032 H 
ENDBRANCH  18  19
BRANCH  18  23
ATOM     23  C9  <0> d          -1.161   0.688   4.590  0.00  0.00    -0.045 C 
ATOM     24  H15 <0> d          -0.139   1.066   4.582  0.00  0.00     0.032 H 
ATOM     25  H16 <0> d          -1.672   1.040   5.486  0.00  0.00     0.032 H 
ATOM     26  H17 <0> d          -1.147  -0.402   4.584  0.00  0.00     0.032 H 
ENDBRANCH  18  23
BRANCH  18  27
ATOM     27  O1  <0> d          -1.921   2.624   3.358  0.00  0.00    -0.387 OA
ATOM     28  H18 <0> d          -2.361   3.007   4.129  0.00  0.00     0.211 HD
ENDBRANCH  18  27
ENDBRANCH   2  18
TORSDOF 8
