REMARK  2 active torsions:
REMARK  status: ('A' for Active; 'I' for Inactive)
REMARK    1  A    between atoms: C1_1  and  C2_2 
REMARK    2  A    between atoms: C4_4  and  C8_9 
ROOT
ATOM      1  C8  <0> d           0.029  -2.794  -2.445  0.00  0.00    -0.078 C 
ATOM      2  C9  <0> d           0.031  -3.379  -3.463  0.00  0.00    -0.149 C 
ATOM      3  H7  <0> d           0.034  -3.901  -4.374  0.00  0.00     0.166 H 
ENDROOT
BRANCH   1   4
ATOM      4  C4  <0> d           0.025  -2.081  -1.203  0.00  0.00     0.017 A 
ATOM      5  C3  <0> d           0.006  -0.686  -1.197  0.00  0.00    -0.056 A 
ATOM      6  C2  <0> d           0.002  -0.004   0.002  0.00  0.00    -0.022 A 
ATOM      7  H4  <0> d          -0.007  -0.141  -2.129  0.00  0.00     0.086 H 
ATOM      8  C7  <0> d           0.023  -0.702   1.199  0.00  0.00     0.122 A 
ATOM      9  C6  <0> d           0.037  -2.088   1.198  0.00  0.00    -0.044 A 
ATOM     10  F1  <0> d           0.025  -0.029   2.370  0.00  0.00    -0.206 F 
ATOM     11  C5  <0> d           0.041  -2.779   0.005  0.00  0.00    -0.062 A 
ATOM     12  H6  <0> d           0.049  -2.627   2.134  0.00  0.00     0.088 H 
ATOM     13  H5  <0> d           0.055  -3.859   0.006  0.00  0.00     0.085 H 
BRANCH   6  14
ATOM     14  C1  <0> d          -0.018   1.503   0.010  0.00  0.00    -0.048 C 
ATOM     15  H1  <0> d           1.004   1.880   0.003  0.00  0.00     0.033 H 
ATOM     16  H2  <0> d          -0.545   1.864  -0.873  0.00  0.00     0.033 H 
ATOM     17  H3  <0> d          -0.529   1.854   0.907  0.00  0.00     0.033 H 
ENDBRANCH   6  14
ENDBRANCH   1   4
TORSDOF 2
