REMARK  0 active torsions:
REMARK  status: ('A' for Active; 'I' for Inactive)
ROOT
ATOM      1  C1  <0> d          -1.193   3.422   0.030  0.00  0.00    -0.042 A 
ATOM      2  C2  <0> d           0.029   4.068   0.023  0.00  0.00     0.004 A 
ATOM      3  N1  <0> d           1.156   3.383   0.009  0.00  0.00    -0.270 NA
ATOM      4  C3  <0> d           1.167   2.064   0.002  0.00  0.00     0.041 A 
ATOM      5  C4  <0> d          -0.016   1.347   0.009  0.00  0.00     0.155 A 
ATOM      6  C5  <0> d          -1.224   2.035   0.019  0.00  0.00     0.075 A 
ATOM      7 Cl1  <0> d          -2.735   1.180   0.022  0.00  0.00    -0.081 Cl
ATOM      8  F1  <0> d           0.002  -0.004   0.002  0.00  0.00    -0.203 F 
ATOM      9  H1  <0> d          -2.111   3.990   0.042  0.00  0.00     0.088 H 
ATOM     10  H2  <0> d           0.061   5.147   0.028  0.00  0.00     0.114 H 
ATOM     11  H3  <0> d           2.110   1.538  -0.009  0.00  0.00     0.119 H 
ENDROOT
TORSDOF 0
