REMARK  1 active torsions:
REMARK  status: ('A' for Active; 'I' for Inactive)
REMARK    1  A    between atoms: C2_2  and  C3_3 
ROOT
ATOM      1  C3  <0> d          -0.985   3.097  -1.081  0.00  0.00    -0.035 C 
ATOM      2  H1  <0> d          -0.044   3.595  -0.845  0.00  0.00     0.046 H 
ATOM      3  C4  <0> d          -0.747   1.590  -1.236  0.00  0.00    -0.056 C 
ATOM      4  C5  <0> d          -0.013   1.086   0.008  0.00  0.00    -0.049 C 
ATOM      5  C6  <0> d          -0.710   1.567   1.247  0.00  0.00    -0.106 C 
ATOM      6  C7  <0> d          -1.560   2.540   1.271  0.00  0.00    -0.105 C 
ATOM      7  C8  <0> d          -1.983   3.316   0.058  0.00  0.00    -0.044 C 
ATOM      8  H5  <0> d          -0.139   1.404  -2.121  0.00  0.00     0.034 H 
ATOM      9  H6  <0> d          -1.704   1.076  -1.330  0.00  0.00     0.034 H 
ATOM     10  H7  <0> d           0.002  -0.004   0.002  0.00  0.00     0.038 H 
ATOM     11  H8  <0> d           1.011   1.461   0.000  0.00  0.00     0.038 H 
ATOM     12  H9  <0> d          -0.485   1.071   2.179  0.00  0.00     0.076 H 
ATOM     13  H10 <0> d          -1.996   2.809   2.222  0.00  0.00     0.076 H 
ATOM     14  H11 <0> d          -2.025   4.377   0.304  0.00  0.00     0.039 H 
ATOM     15  H12 <0> d          -2.971   2.981  -0.259  0.00  0.00     0.039 H 
ENDROOT
BRANCH   1  16
ATOM     16  C2  <0> d          -1.549   3.655  -2.363  0.00  0.00    -0.107 C 
ATOM     17  C1  <0> d          -0.902   4.592  -3.011  0.00  0.00    -0.124 C 
ATOM     18  H2  <0> d           0.037   4.964  -2.627  0.00  0.00     0.066 H 
ATOM     19  H3  <0> d          -1.306   4.992  -3.929  0.00  0.00     0.066 H 
ATOM     20  H4  <0> d          -2.488   3.283  -2.747  0.00  0.00     0.075 H 
ENDBRANCH   1  16
TORSDOF 1
