REMARK  2 active torsions:
REMARK  status: ('A' for Active; 'I' for Inactive)
REMARK    1  A    between atoms: C1_1  and  C2_2 
REMARK    2  A    between atoms: N1_5  and  C6_9 
ROOT
ATOM      1  C2  <0> d          -0.718   1.572   1.248  0.00  0.00     0.037 A 
ATOM      2  C3  <0> d           0.007   1.809   2.419  0.00  0.00    -0.044 A 
ATOM      3  C4  <0> d          -0.650   2.248   3.526  0.00  0.00    -0.014 A 
ATOM      4  N1  <0> d          -1.993   2.444   3.466  0.00  0.00    -0.313 N 
ATOM      5  C5  <0> d          -2.659   2.206   2.320  0.00  0.00     0.348 A 
ATOM      6  O1  <0> d          -3.865   2.387   2.278  0.00  0.00    -0.244 OA
ATOM      7  N2  <0> d          -2.019   1.780   1.229  0.00  0.00    -0.199 NA
ATOM      8  H4  <0> d           1.074   1.645   2.445  0.00  0.00     0.088 H 
ATOM      9  H5  <0> d          -0.111   2.437   4.443  0.00  0.00     0.111 H 
ENDROOT
BRANCH   1  10
ATOM     10  C1  <0> d          -0.013   1.086   0.008  0.00  0.00    -0.035 C 
ATOM     11  H1  <0> d           0.002  -0.004   0.002  0.00  0.00     0.035 H 
ATOM     12  H2  <0> d           1.010   1.463   0.000  0.00  0.00     0.035 H 
ATOM     13  H3  <0> d          -0.540   1.447  -0.875  0.00  0.00     0.035 H 
ENDBRANCH   1  10
BRANCH   4  14
ATOM     14  C6  <0> d          -2.717   2.917   4.648  0.00  0.00    -0.010 C 
ATOM     15  H6  <0> d          -2.741   4.006   4.648  0.00  0.00     0.057 H 
ATOM     16  H7  <0> d          -3.736   2.531   4.628  0.00  0.00     0.057 H 
ATOM     17  H8  <0> d          -2.213   2.564   5.548  0.00  0.00     0.057 H 
ENDBRANCH   4  14
TORSDOF 2
