REMARK  9 active torsions:
REMARK  status: ('A' for Active; 'I' for Inactive)
REMARK    1  A    between atoms: C1_1  and  C2_2 
REMARK    2  A    between atoms: C2_2  and  O1_3 
REMARK    3  A    between atoms: O1_3  and  C3_4 
REMARK    4  A    between atoms: C3_4  and  C4_6 
REMARK    5  A    between atoms: C3_4  and  O2_7 
REMARK    6  A    between atoms: O2_7  and  C5_8 
REMARK    7  A    between atoms: C5_8  and  C6_9 
REMARK    8  A    between atoms: C6_9  and  C7_10 
REMARK    9  A    between atoms: C6_9  and  C8_11 
ROOT
ATOM      1  C3  <0> d           0.904  -1.918  -1.121  0.00  0.00     0.127 C 
ATOM      2  H1  <0> d          -0.066  -2.413  -1.167  0.00  0.00     0.128 H 
ENDROOT
BRANCH   1   3
ATOM      3  O1  <0> d           1.578  -2.301   0.080  0.00  0.00    -0.362 OA
BRANCH   3   4
ATOM      4  C2  <0> d           0.754  -2.261   1.247  0.00  0.00     0.019 C 
ATOM      5  H5  <0> d           0.478  -1.229   1.461  0.00  0.00     0.073 H 
ATOM      6  H6  <0> d          -0.147  -2.850   1.076  0.00  0.00     0.073 H 
BRANCH   4   7
ATOM      7  C1  <0> d           1.525  -2.841   2.435  0.00  0.00    -0.056 C 
ATOM      8  H2  <0> d           1.801  -3.873   2.220  0.00  0.00     0.030 H 
ATOM      9  H3  <0> d           2.425  -2.251   2.606  0.00  0.00     0.030 H 
ATOM     10  H4  <0> d           0.896  -2.810   3.325  0.00  0.00     0.030 H 
ENDBRANCH   4   7
ENDBRANCH   3   4
ENDBRANCH   1   3
BRANCH   1  11
ATOM     11  C4  <0> d           1.744  -2.330  -2.331  0.00  0.00    -0.031 C 
ATOM     12  H7  <0> d           1.230  -2.038  -3.247  0.00  0.00     0.034 H 
ATOM     13  H8  <0> d           2.714  -1.835  -2.285  0.00  0.00     0.034 H 
ATOM     14  H9  <0> d           1.887  -3.411  -2.323  0.00  0.00     0.034 H 
ENDBRANCH   1  11
BRANCH   1  15
ATOM     15  O2  <0> d           0.717  -0.501  -1.131  0.00  0.00    -0.361 OA
BRANCH  15  16
ATOM     16  C5  <0> d          -0.478  -0.068  -0.477  0.00  0.00     0.025 C 
ATOM     17  H10 <0> d          -0.496  -0.457   0.542  0.00  0.00     0.075 H 
ATOM     18  H11 <0> d          -1.346  -0.439  -1.022  0.00  0.00     0.075 H 
BRANCH  16  19
ATOM     19  C6  <0> d          -0.513   1.461  -0.439  0.00  0.00    -0.040 C 
ATOM     20  H12 <0> d           0.398   1.834   0.028  0.00  0.00     0.042 H 
BRANCH  19  21
ATOM     21  C7  <0> d          -0.614   2.003  -1.866  0.00  0.00    -0.071 C 
ATOM     22  H13 <0> d          -0.639   3.093  -1.840  0.00  0.00     0.028 H 
ATOM     23  H14 <0> d           0.251   1.674  -2.442  0.00  0.00     0.028 H 
ATOM     24  H15 <0> d          -1.525   1.630  -2.334  0.00  0.00     0.028 H 
ENDBRANCH  19  21
BRANCH  19  25
ATOM     25  C8  <0> d          -1.727   1.923   0.369  0.00  0.00    -0.071 C 
ATOM     26  H16 <0> d          -1.655   1.537   1.385  0.00  0.00     0.028 H 
ATOM     27  H17 <0> d          -1.752   3.013   0.395  0.00  0.00     0.028 H 
ATOM     28  H18 <0> d          -2.638   1.550  -0.098  0.00  0.00     0.028 H 
ENDBRANCH  19  25
ENDBRANCH  16  19
ENDBRANCH  15  16
ENDBRANCH   1  15
TORSDOF 9
