REMARK  7 active torsions:
REMARK  status: ('A' for Active; 'I' for Inactive)
REMARK    1  A    between atoms: C1_1  and  C2_2 
REMARK    2  A    between atoms: C2_2  and  C3_3 
REMARK    3  A    between atoms: C3_3  and  C4_4 
REMARK    4  A    between atoms: C4_4  and  C5_5 
REMARK    5  A    between atoms: C5_5  and  C6_7 
REMARK    6  A    between atoms: C5_5  and  C7_8 
REMARK    7  A    between atoms: C7_8  and  O1_9 
ROOT
ATOM      1  C4  <0> d           0.079   1.179   2.503  0.00  0.00    -0.060 C 
ATOM      2  H9  <0> d           0.097   0.092   2.589  0.00  0.00     0.033 H 
ATOM      3  H10 <0> d           1.098   1.553   2.408  0.00  0.00     0.033 H 
ENDROOT
BRANCH   1   4
ATOM      4  C3  <0> d          -0.570   1.778   3.752  0.00  0.00    -0.065 C 
ATOM      5  H7  <0> d          -0.588   2.864   3.667  0.00  0.00     0.033 H 
ATOM      6  H8  <0> d          -1.590   1.404   3.847  0.00  0.00     0.033 H 
BRANCH   4   7
ATOM      7  C2  <0> d           0.237   1.377   4.989  0.00  0.00    -0.069 C 
ATOM      8  H5  <0> d           0.255   0.291   5.074  0.00  0.00     0.032 H 
ATOM      9  H6  <0> d           1.257   1.751   4.894  0.00  0.00     0.032 H 
BRANCH   7  10
ATOM     10  C1  <0> d          -0.412   1.977   6.238  0.00  0.00    -0.077 C 
ATOM     11  H2  <0> d          -0.430   3.063   6.152  0.00  0.00     0.027 H 
ATOM     12  H3  <0> d          -1.431   1.603   6.333  0.00  0.00     0.027 H 
ATOM     13  H4  <0> d           0.164   1.691   7.119  0.00  0.00     0.027 H 
ENDBRANCH   7  10
ENDBRANCH   4   7
ENDBRANCH   1   4
BRANCH   1  14
ATOM     14  C5  <0> d          -0.729   1.579   1.267  0.00  0.00    -0.037 C 
ATOM     15  H1  <0> d          -0.822   2.665   1.230  0.00  0.00     0.042 H 
BRANCH  14  16
ATOM     16  C6  <0> d          -2.121   0.950   1.341  0.00  0.00    -0.071 C 
ATOM     17  H11 <0> d          -2.697   1.235   0.460  0.00  0.00     0.028 H 
ATOM     18  H12 <0> d          -2.028  -0.136   1.378  0.00  0.00     0.028 H 
ATOM     19  H13 <0> d          -2.632   1.301   2.238  0.00  0.00     0.028 H 
ENDBRANCH  14  16
BRANCH  14  20
ATOM     20  C7  <0> d          -0.013   1.086   0.008  0.00  0.00     0.020 C 
ATOM     21  H14 <0> d           0.002  -0.004   0.002  0.00  0.00     0.074 H 
ATOM     22  H15 <0> d           1.010   1.463   0.000  0.00  0.00     0.074 H 
BRANCH  20  23
ATOM     23  O1  <0> d          -0.704   1.559  -1.150  0.00  0.00    -0.400 OA
ATOM     24  H16 <0> d          -0.304   1.284  -1.986  0.00  0.00     0.209 HD
ENDBRANCH  20  23
ENDBRANCH  14  20
ENDBRANCH   1  14
TORSDOF 7
