REMARK  2 active torsions:
REMARK  status: ('A' for Active; 'I' for Inactive)
REMARK    1  A    between atoms: C4_4  and  O1_8 
REMARK    2  A    between atoms: C5_6  and  N2_7 
ROOT
ATOM      1  C1  <0> d          -0.013   1.076   0.008  0.00  0.00    -0.007 A 
ATOM      2  C2  <0> d           1.189   1.810   0.000  0.00  0.00     0.117 A 
ATOM      3  C3  <0> d           1.093   3.280   0.009  0.00  0.00     0.161 A 
ATOM      4  C4  <0> d          -0.193   3.860   0.024  0.00  0.00     0.197 A 
ATOM      5  N1  <0> d          -1.258   3.087   0.030  0.00  0.00    -0.205 NA
ATOM      6  C5  <0> d          -1.197   1.756   0.017  0.00  0.00     0.126 A 
ATOM      7  N3  <0> d           2.346   3.697  -0.001  0.00  0.00    -0.151 NA
ATOM      8  N4  <0> d           3.127   2.673  -0.013  0.00  0.00    -0.196 N 
ATOM      9  H1  <0> d           4.125   2.737  -0.022  0.00  0.00     0.213 HD
ATOM     10  N5  <0> d           2.484   1.556  -0.013  0.00  0.00    -0.155 NA
ATOM     11  H2  <0> d           0.002  -0.004   0.002  0.00  0.00     0.093 H 
ENDROOT
BRANCH   6  12
ATOM     12  N2  <0> d          -2.386   1.030   0.019  0.00  0.00    -0.384 N 
ATOM     13  H3  <0> d          -2.363   0.061   0.013  0.00  0.00     0.157 HD
ATOM     14  H4  <0> d          -3.237   1.495   0.025  0.00  0.00     0.157 HD
ENDBRANCH   6  12
BRANCH   4  15
ATOM     15  O1  <0> d          -0.330   5.207   0.032  0.00  0.00    -0.343 OA
ATOM     16  H5  <0> d          -0.379   5.603  -0.850  0.00  0.00     0.219 HD
ENDBRANCH   4  15
TORSDOF 2
