REMARK  7 active torsions:
REMARK  status: ('A' for Active; 'I' for Inactive)
REMARK    1  A    between atoms: C1_1  and  C2_2 
REMARK    2  A    between atoms: C2_2  and  C3_3 
REMARK    3  A    between atoms: C3_3  and  C4_5 
REMARK    4  A    between atoms: C3_3  and  C5_6 
REMARK    5  A    between atoms: C5_6  and  C6_7 
REMARK    6  A    between atoms: C6_7  and  C7_9 
REMARK    7  A    between atoms: C7_9  and  C8_10 
ROOT
ATOM      1  C3  <0> d          -1.149   1.862  -3.643  0.00  0.00    -0.052 C 
ATOM      2  H1  <0> d          -1.224   2.935  -3.467  0.00  0.00     0.040 H 
ENDROOT
BRANCH   1   3
ATOM      3  C2  <0> d          -0.567   1.613  -5.036  0.00  0.00    -0.065 C 
ATOM      4  H5  <0> d           0.458   1.984  -5.073  0.00  0.00     0.033 H 
ATOM      5  H6  <0> d          -0.574   0.543  -5.247  0.00  0.00     0.033 H 
BRANCH   3   6
ATOM      6  C1  <0> d          -1.412   2.344  -6.080  0.00  0.00    -0.076 C 
ATOM      7  H2  <0> d          -2.436   1.974  -6.043  0.00  0.00     0.027 H 
ATOM      8  H3  <0> d          -1.405   3.414  -5.870  0.00  0.00     0.027 H 
ATOM      9  H4  <0> d          -0.997   2.167  -7.073  0.00  0.00     0.027 H 
ENDBRANCH   3   6
ENDBRANCH   1   3
BRANCH   1  10
ATOM     10  C4  <0> d          -2.540   1.232  -3.552  0.00  0.00    -0.073 C 
ATOM     11  H7  <0> d          -2.465   0.159  -3.728  0.00  0.00     0.028 H 
ATOM     12  H8  <0> d          -2.955   1.409  -2.560  0.00  0.00     0.028 H 
ATOM     13  H9  <0> d          -3.191   1.678  -4.303  0.00  0.00     0.028 H 
ENDBRANCH   1  10
BRANCH   1  14
ATOM     14  C5  <0> d          -0.235   1.235  -2.588  0.00  0.00    -0.007 C 
ATOM     15  H10 <0> d           0.694   1.588  -2.701  0.00  0.00     0.044 H 
ATOM     16  H11 <0> d          -0.230   0.152  -2.709  0.00  0.00     0.044 H 
BRANCH  14  17
ATOM     17  C6  <0> d          -0.742   1.585  -1.213  0.00  0.00     0.127 C 
ATOM     18  O1  <0> d          -1.732   2.265  -1.089  0.00  0.00    -0.298 OA
BRANCH  17  19
ATOM     19  C7  <0> d          -0.013   1.086   0.008  0.00  0.00    -0.013 C 
ATOM     20  H12 <0> d           0.001   0.086   0.003  0.00  0.00     0.043 H 
ATOM     21  H13 <0> d           1.010   1.463   0.000  0.00  0.00     0.043 H 
BRANCH  19  22
ATOM     22  C8  <0> d          -0.729   1.579   1.267  0.00  0.00    -0.070 C 
ATOM     23  H14 <0> d          -0.744   2.669   1.273  0.00  0.00     0.028 H 
ATOM     24  H15 <0> d          -1.751   1.202   1.275  0.00  0.00     0.028 H 
ATOM     25  H16 <0> d          -0.202   1.218   2.150  0.00  0.00     0.028 H 
ENDBRANCH  19  22
ENDBRANCH  17  19
ENDBRANCH  14  17
ENDBRANCH   1  14
TORSDOF 7
