REMARK  5 active torsions:
REMARK  status: ('A' for Active; 'I' for Inactive)
REMARK    1  A    between atoms: C1_1  and  C2_2 
REMARK    2  A    between atoms: N2_6  and  C5_7 
REMARK    3  A    between atoms: C5_7  and  C6_8 
REMARK    4  A    between atoms: C6_8  and  C7_9 
REMARK    5  A    between atoms: C7_9  and  O1_10 
ROOT
ATOM      1  C2  <0> d          -0.449   2.711   1.869  0.00  0.00     0.028 A 
ATOM      2  C3  <0> d          -1.294   2.778   2.923  0.00  0.00    -0.041 A 
ATOM      3  C4  <0> d          -2.082   1.622   2.917  0.00  0.00     0.024 A 
ATOM      4  N1  <0> d          -1.725   0.890   1.893  0.00  0.00    -0.185 NA
ATOM      5  N2  <0> d          -0.698   1.558   1.213  0.00  0.00    -0.275 N 
ATOM      6  H4  <0> d          -1.349   3.580   3.644  0.00  0.00     0.088 H 
ATOM      7  H5  <0> d          -2.850   1.376   3.634  0.00  0.00     0.117 H 
ENDROOT
BRANCH   5   8
ATOM      8  C5  <0> d          -0.013   1.086   0.008  0.00  0.00     0.019 C 
ATOM      9  H6  <0> d           0.002  -0.004   0.002  0.00  0.00     0.067 H 
ATOM     10  H7  <0> d           1.010   1.463   0.000  0.00  0.00     0.067 H 
BRANCH   8  11
ATOM     11  C6  <0> d          -0.753   1.593  -1.232  0.00  0.00    -0.029 C 
ATOM     12  H8  <0> d          -1.775   1.215  -1.224  0.00  0.00     0.038 H 
ATOM     13  H9  <0> d          -0.767   2.683  -1.226  0.00  0.00     0.038 H 
BRANCH  11  14
ATOM     14  C7  <0> d          -0.037   1.099  -2.490  0.00  0.00     0.018 C 
ATOM     15  H10 <0> d           0.986   1.476  -2.498  0.00  0.00     0.074 H 
ATOM     16  H11 <0> d          -0.022   0.009  -2.496  0.00  0.00     0.074 H 
BRANCH  14  17
ATOM     17  O1  <0> d          -0.728   1.573  -3.648  0.00  0.00    -0.401 OA
ATOM     18  H12 <0> d          -0.328   1.297  -4.484  0.00  0.00     0.209 HD
ENDBRANCH  14  17
ENDBRANCH  11  14
ENDBRANCH   8  11
ENDBRANCH   5   8
BRANCH   1  19
ATOM     19  C1  <0> d           0.585   3.741   1.491  0.00  0.00    -0.036 C 
ATOM     20  H1  <0> d           0.139   4.472   0.816  0.00  0.00     0.035 H 
ATOM     21  H2  <0> d           0.940   4.246   2.390  0.00  0.00     0.035 H 
ATOM     22  H3  <0> d           1.422   3.251   0.995  0.00  0.00     0.035 H 
ENDBRANCH   1  19
TORSDOF 5
