REMARK  2 active torsions:
REMARK  status: ('A' for Active; 'I' for Inactive)
REMARK    1  A    between atoms: C7_9  and  C8_11 
REMARK    2  A    between atoms: C8_11  and  O1_12 
ROOT
ATOM      1  C1  <0> d           1.922   0.890  -1.244  0.00  0.00    -0.061 C 
ATOM      2  C2  <0> d           0.904  -0.273  -1.241  0.00  0.00    -0.061 C 
ATOM      3  C3  <0> d           0.002  -0.004   0.002  0.00  0.00    -0.048 C 
ATOM      4  H1  <0> d          -0.969  -0.499   0.002  0.00  0.00     0.040 H 
ATOM      5  C4  <0> d          -0.019   1.565   0.011  0.00  0.00    -0.058 C 
ATOM      6  C5  <0> d           1.539   1.753  -0.003  0.00  0.00    -0.053 C 
ATOM      7  H2  <0> d           1.900   2.781  -0.008  0.00  0.00     0.040 H 
ATOM      8  C6  <0> d           1.946   0.877   1.221  0.00  0.00    -0.056 C 
ATOM      9  C7  <0> d           0.928  -0.286   1.225  0.00  0.00    -0.030 C 
ATOM     10  H3  <0> d           1.440  -1.240   1.101  0.00  0.00     0.043 H 
ATOM     11  H4  <0> d           2.937   0.507  -1.142  0.00  0.00     0.033 H 
ATOM     12  H5  <0> d           1.828   1.475  -2.159  0.00  0.00     0.033 H 
ATOM     13  H6  <0> d           1.419  -1.228  -1.137  0.00  0.00     0.033 H 
ATOM     14  H7  <0> d           0.308  -0.261  -2.153  0.00  0.00     0.033 H 
ATOM     15  H8  <0> d          -0.488   1.973  -0.885  0.00  0.00     0.034 H 
ATOM     16  H9  <0> d          -0.471   1.963   0.919  0.00  0.00     0.034 H 
ATOM     17  H10 <0> d           2.959   0.495   1.095  0.00  0.00     0.034 H 
ATOM     18  H11 <0> d           1.869   1.454   2.143  0.00  0.00     0.034 H 
ENDROOT
BRANCH   9  19
ATOM     19  C8  <0> d           0.116  -0.281   2.521  0.00  0.00     0.020 C 
ATOM     20  H12 <0> d          -0.283   0.719   2.696  0.00  0.00     0.074 H 
ATOM     21  H13 <0> d          -0.708  -0.990   2.437  0.00  0.00     0.074 H 
BRANCH  19  22
ATOM     22  O1  <0> d           0.958  -0.655   3.613  0.00  0.00    -0.400 OA
ATOM     23  H14 <0> d           0.508  -0.673   4.469  0.00  0.00     0.209 HD
ENDBRANCH  19  22
ENDBRANCH   9  19
TORSDOF 2
