REMARK  4 active torsions:
REMARK  status: ('A' for Active; 'I' for Inactive)
REMARK    1  A    between atoms: C1_1  and  C2_2 
REMARK    2  A    between atoms: C2_2  and  N1_3 
REMARK    3  A    between atoms: C3_4  and  C6_8 
REMARK    4  A    between atoms: C6_8  and  C7_10 
ROOT
ATOM      1  N1  <0> d          -0.650   3.185   0.025  0.00  0.00    -0.267 N 
ATOM      2  C3  <0> d          -1.128   1.903   0.017  0.00  0.00     0.099 A 
ATOM      3  C4  <0> d          -0.013   1.076   0.008  0.00  0.00    -0.033 A 
ATOM      4  C5  <0> d           1.085   1.937   0.002  0.00  0.00     0.024 A 
ATOM      5  N2  <0> d           0.634   3.166   0.013  0.00  0.00    -0.184 NA
ATOM      6  H6  <0> d           0.002  -0.004   0.002  0.00  0.00     0.089 H 
ATOM      7  H7  <0> d           2.124   1.642  -0.009  0.00  0.00     0.117 H 
ENDROOT
BRANCH   1   8
ATOM      8  C2  <0> d          -1.477   4.394   0.038  0.00  0.00     0.014 C 
ATOM      9  H4  <0> d          -2.412   4.189   0.559  0.00  0.00     0.066 H 
ATOM     10  H5  <0> d          -0.943   5.194   0.551  0.00  0.00     0.066 H 
BRANCH   8  11
ATOM     11  C1  <0> d          -1.778   4.822  -1.400  0.00  0.00    -0.059 C 
ATOM     12  H1  <0> d          -2.312   4.023  -1.913  0.00  0.00     0.029 H 
ATOM     13  H2  <0> d          -2.393   5.722  -1.390  0.00  0.00     0.029 H 
ATOM     14  H3  <0> d          -0.843   5.027  -1.921  0.00  0.00     0.029 H 
ENDBRANCH   8  11
ENDBRANCH   1   8
BRANCH   2  15
ATOM     15  C6  <0> d          -2.530   1.487   0.020  0.00  0.00     0.173 C 
ATOM     16  O1  <0> d          -3.411   2.322   0.028  0.00  0.00    -0.291 OA
BRANCH  15  17
ATOM     17  C7  <0> d          -2.882   0.021   0.014  0.00  0.00    -0.015 C 
ATOM     18  H8  <0> d          -2.498  -0.417   0.827  0.00  0.00     0.038 H 
ATOM     19  H9  <0> d          -3.966  -0.092   0.017  0.00  0.00     0.038 H 
ATOM     20  H10 <0> d          -2.470  -0.447  -0.880  0.00  0.00     0.038 H 
ENDBRANCH  15  17
ENDBRANCH   2  15
TORSDOF 4
