REMARK  3 active torsions:
REMARK  status: ('A' for Active; 'I' for Inactive)
REMARK    1  A    between atoms: C1_1  and  N1_2 
REMARK    2  A    between atoms: C3_4  and  N3_10 
REMARK    3  A    between atoms: C5_6  and  C6_7 
REMARK       I    between atoms: C6_7  and  N2_9 
ROOT
ATOM      1  N1  <0> d          -2.563  -0.494   0.232  0.00  0.00    -0.354 N 
ATOM      2  C2  <0> d          -3.880  -0.809   0.108  0.00  0.00     0.005 A 
ATOM      3  C3  <0> d          -4.608   0.338   0.136  0.00  0.00     0.043 A 
ATOM      4  C4  <0> d          -3.715   1.408   0.287  0.00  0.00    -0.025 A 
ATOM      5  C5  <0> d          -2.445   0.872   0.340  0.00  0.00     0.104 A 
ATOM      6  H4  <0> d          -4.282  -1.807   0.006  0.00  0.00     0.115 H 
ATOM      7  H5  <0> d          -3.973   2.454   0.349  0.00  0.00     0.090 H 
ENDROOT
BRANCH   5   8
ATOM      8  C6  <0> d          -1.194   1.624   0.489  0.00  0.00     0.266 C 
ATOM      9  O1  <0> d          -0.126   1.043   0.437  0.00  0.00    -0.266 OA
ATOM     10  N2  <0> d          -1.228   2.957   0.684  0.00  0.00    -0.365 N 
ATOM     11  H6  <0> d          -2.074   3.430   0.651  0.00  0.00     0.159 HD
ATOM     12  H7  <0> d          -0.408   3.442   0.862  0.00  0.00     0.159 HD
ENDBRANCH   5   8
BRANCH   1  13
ATOM     13  C1  <0> d          -1.454  -1.451   0.248  0.00  0.00    -0.014 C 
ATOM     14  H1  <0> d          -1.189  -1.684   1.279  0.00  0.00     0.057 H 
ATOM     15  H2  <0> d          -1.755  -2.365  -0.265  0.00  0.00     0.057 H 
ATOM     16  H3  <0> d          -0.592  -1.017  -0.260  0.00  0.00     0.057 H 
ENDBRANCH   1  13
BRANCH   3  17
ATOM     17  N3  <0> d          -6.008   0.434   0.036  0.00  0.00    -0.398 N 
ATOM     18  H8  <0> d          -6.544  -0.369  -0.063  0.00  0.00     0.156 HD
ATOM     19  H9  <0> d          -6.438   1.303   0.066  0.00  0.00     0.156 HD
ENDBRANCH   3  17
TORSDOF 3
