REMARK  1 active torsions:
REMARK  status: ('A' for Active; 'I' for Inactive)
REMARK    1  A    between atoms: C1_1  and  C2_2 
ROOT
ATOM      1  C2  <0> d          -0.016   1.341   0.009  0.00  0.00     0.008 A 
ATOM      2  C3  <0> d           0.002  -0.004   0.002  0.00  0.00    -0.043 A 
ATOM      3  C4  <0> d           1.407  -0.400  -0.013  0.00  0.00     0.080 A 
ATOM      4  C5  <0> d           2.149   0.781  -0.014  0.00  0.00     0.122 A 
ATOM      5  N1  <0> d           1.270   1.814  -0.000  0.00  0.00    -0.345 N 
ATOM      6  H1  <0> d           1.457   2.898   0.004  0.00  0.00     0.167 HD
ATOM      7  N2  <0> d           3.517   0.687  -0.027  0.00  0.00    -0.336 N 
ATOM      8  C6  <0> d           4.124  -0.512  -0.039  0.00  0.00     0.069 A 
ATOM      9  N3  <0> d           3.473  -1.642  -0.039  0.00  0.00    -0.205 NA
ATOM     10  C7  <0> d           2.125  -1.673  -0.027  0.00  0.00     0.282 A 
ATOM     11  O1  <0> d           1.522  -2.734  -0.026  0.00  0.00    -0.265 OA
ATOM     12  H5  <0> d          -0.855  -0.662   0.006  0.00  0.00     0.088 H 
ATOM     13  H6  <0> d           5.204  -0.541  -0.049  0.00  0.00     0.143 H 
ATOM     14  H7  <0> d           4.130   1.600  -0.028  0.00  0.00     0.168 HD
ENDROOT
BRANCH   1  15
ATOM     15  C1  <0> d          -1.258   2.194   0.020  0.00  0.00    -0.037 C 
ATOM     16  H2  <0> d          -2.148   1.547   0.027  0.00  0.00     0.035 H 
ATOM     17  H3  <0> d          -1.274   2.830  -0.877  0.00  0.00     0.035 H 
ATOM     18  H4  <0> d          -1.259   2.828   0.919  0.00  0.00     0.035 H 
ENDBRANCH   1  15
TORSDOF 1
