REMARK  5 active torsions:
REMARK  status: ('A' for Active; 'I' for Inactive)
REMARK    1  A    between atoms: C1_1  and  N1_2 
REMARK    2  A    between atoms: N1_2  and  C2_3 
REMARK    3  A    between atoms: N1_2  and  C3_4 
REMARK    4  A    between atoms: C8_9  and  C9_10 
REMARK    5  A    between atoms: C9_10  and  O1_11 
ROOT
ATOM      1  C3  <0> d          -0.050   1.114   2.370  0.00  0.00     0.018 A 
ATOM      2  C4  <0> d           1.274   1.464   2.601  0.00  0.00    -0.062 A 
ATOM      3  C5  <0> d           1.913   1.026   3.744  0.00  0.00    -0.081 A 
ATOM      4  C6  <0> d           1.239   0.231   4.653  0.00  0.00    -0.082 A 
ATOM      5  C7  <0> d          -0.077  -0.124   4.423  0.00  0.00    -0.073 A 
ATOM      6  C8  <0> d          -0.724   0.315   3.284  0.00  0.00    -0.013 A 
ATOM      7  H7  <0> d           1.803   2.082   1.890  0.00  0.00     0.086 H 
ATOM      8  H8  <0> d           2.942   1.300   3.927  0.00  0.00     0.083 H 
ATOM      9  H9  <0> d           1.742  -0.115   5.544  0.00  0.00     0.083 H 
ATOM     10  H10 <0> d          -0.601  -0.745   5.135  0.00  0.00     0.084 H 
ENDROOT
BRANCH   1  11
ATOM     11  N1  <0> d          -0.700   1.560   1.217  0.00  0.00    -0.291 NA
BRANCH  11  12
ATOM     12  C1  <0> d          -0.013   1.086   0.008  0.00  0.00    -0.029 C 
ATOM     13  H1  <0> d           0.002  -0.004   0.002  0.00  0.00     0.048 H 
ATOM     14  H2  <0> d           1.010   1.463   0.000  0.00  0.00     0.048 H 
ATOM     15  H3  <0> d          -0.540   1.447  -0.875  0.00  0.00     0.048 H 
ENDBRANCH  11  12
BRANCH  11  16
ATOM     16  C2  <0> d          -0.822   3.023   1.213  0.00  0.00    -0.029 C 
ATOM     17  H4  <0> d          -1.332   3.344   0.305  0.00  0.00     0.048 H 
ATOM     18  H5  <0> d          -1.396   3.342   2.083  0.00  0.00     0.048 H 
ATOM     19  H6  <0> d           0.171   3.471   1.249  0.00  0.00     0.048 H 
ENDBRANCH  11  16
ENDBRANCH   1  11
BRANCH   6  20
ATOM     20  C9  <0> d          -2.159  -0.072   3.034  0.00  0.00     0.042 C 
ATOM     21  H11 <0> d          -2.772   0.827   2.968  0.00  0.00     0.081 H 
ATOM     22  H12 <0> d          -2.227  -0.628   2.099  0.00  0.00     0.081 H 
BRANCH  20  23
ATOM     23  O1  <0> d          -2.626  -0.889   4.110  0.00  0.00    -0.396 OA
ATOM     24  H13 <0> d          -3.544  -1.177   4.015  0.00  0.00     0.209 HD
ENDBRANCH  20  23
ENDBRANCH   6  20
TORSDOF 5
