REMARK  8 active torsions:
REMARK  status: ('A' for Active; 'I' for Inactive)
REMARK    1  A    between atoms: C1_1  and  C2_2 
REMARK    2  A    between atoms: C2_2  and  C3_4 
REMARK    3  A    between atoms: C2_2  and  C7_9 
REMARK    4  A    between atoms: C3_4  and  C4_5 
REMARK    5  A    between atoms: C4_5  and  C5_6 
REMARK    6  A    between atoms: C5_6  and  O1_7 
REMARK    7  A    between atoms: O1_7  and  C6_8 
REMARK    8  A    between atoms: C7_9  and  O2_10 
ROOT
ATOM      1  C3  <0> d           0.079   1.179   2.503  0.00  0.00    -0.058 C 
ATOM      2  H5  <0> d           0.097   0.092   2.589  0.00  0.00     0.033 H 
ATOM      3  H6  <0> d           1.098   1.553   2.408  0.00  0.00     0.033 H 
ENDROOT
BRANCH   1   4
ATOM      4  C2  <0> d          -0.729   1.579   1.267  0.00  0.00    -0.037 C 
ATOM      5  H1  <0> d          -0.822   2.665   1.230  0.00  0.00     0.042 H 
BRANCH   4   6
ATOM      6  C1  <0> d          -2.121   0.950   1.341  0.00  0.00    -0.071 C 
ATOM      7  H2  <0> d          -2.697   1.235   0.460  0.00  0.00     0.028 H 
ATOM      8  H3  <0> d          -2.028  -0.136   1.378  0.00  0.00     0.028 H 
ATOM      9  H4  <0> d          -2.632   1.301   2.238  0.00  0.00     0.028 H 
ENDBRANCH   4   6
BRANCH   4  10
ATOM     10  C7  <0> d          -0.013   1.086   0.008  0.00  0.00     0.020 C 
ATOM     11  H14 <0> d           0.002  -0.004   0.002  0.00  0.00     0.074 H 
ATOM     12  H15 <0> d           1.010   1.463   0.000  0.00  0.00     0.074 H 
BRANCH  10  13
ATOM     13  O2  <0> d          -0.704   1.559  -1.150  0.00  0.00    -0.400 OA
ATOM     14  H16 <0> d          -0.304   1.284  -1.986  0.00  0.00     0.209 HD
ENDBRANCH  10  13
ENDBRANCH   4  10
ENDBRANCH   1   4
BRANCH   1  15
ATOM     15  C4  <0> d          -0.570   1.778   3.752  0.00  0.00    -0.045 C 
ATOM     16  H7  <0> d          -0.588   2.864   3.667  0.00  0.00     0.036 H 
ATOM     17  H8  <0> d          -1.590   1.404   3.847  0.00  0.00     0.036 H 
BRANCH  15  18
ATOM     18  C5  <0> d           0.237   1.377   4.989  0.00  0.00     0.019 C 
ATOM     19  H9  <0> d           0.255   0.291   5.074  0.00  0.00     0.074 H 
ATOM     20  H10 <0> d           1.257   1.751   4.894  0.00  0.00     0.074 H 
BRANCH  18  21
ATOM     21  O1  <0> d          -0.369   1.937   6.155  0.00  0.00    -0.396 OA
BRANCH  21  22
ATOM     22  C6  <0> d           0.311   1.621   7.372  0.00  0.00     0.004 C 
ATOM     23  H11 <0> d           0.331   0.540   7.507  0.00  0.00     0.066 H 
ATOM     24  H12 <0> d           1.332   2.001   7.326  0.00  0.00     0.066 H 
ATOM     25  H13 <0> d          -0.211   2.083   8.210  0.00  0.00     0.066 H 
ENDBRANCH  21  22
ENDBRANCH  18  21
ENDBRANCH  15  18
ENDBRANCH   1  15
TORSDOF 8
