REMARK  3 active torsions:
REMARK  status: ('A' for Active; 'I' for Inactive)
REMARK    1  A    between atoms: C3_3  and  C5_5 
REMARK    2  A    between atoms: C3_3  and  O2_10 
REMARK    3  A    between atoms: C5_5  and  O1_9 
ROOT
ATOM      1  C1  <0> d           0.002  -0.004   0.002  0.00  0.00    -0.059 C 
ATOM      2  C2  <0> d          -0.019   1.534   0.011  0.00  0.00    -0.033 C 
ATOM      3  C3  <0> d           1.518   1.476  -0.004  0.00  0.00     0.089 C 
ATOM      4  C4  <0> d           1.394   0.090   0.649  0.00  0.00    -0.033 C 
ATOM      5  H1  <0> d          -0.751  -0.455   0.649  0.00  0.00     0.033 H 
ATOM      6  H2  <0> d           0.014  -0.435  -0.999  0.00  0.00     0.033 H 
ATOM      7  H3  <0> d          -0.448   1.969  -0.892  0.00  0.00     0.037 H 
ATOM      8  H4  <0> d          -0.431   1.960   0.925  0.00  0.00     0.037 H 
ATOM      9  H5  <0> d           1.368   0.121   1.738  0.00  0.00     0.037 H 
ATOM     10  H6  <0> d           2.105  -0.640   0.262  0.00  0.00     0.037 H 
ENDROOT
BRANCH   3  11
ATOM     11  C5  <0> d           2.179   2.521   0.896  0.00  0.00     0.089 C 
ATOM     12  C8  <0> d           3.716   2.464   0.881  0.00  0.00    -0.033 C 
ATOM     13  C7  <0> d           3.695   4.002   0.890  0.00  0.00    -0.059 C 
ATOM     14  H11 <0> d           4.145   2.028   1.783  0.00  0.00     0.037 H 
ATOM     15  H12 <0> d           4.128   2.038  -0.033  0.00  0.00     0.037 H 
ATOM     16  C6  <0> d           2.303   3.908   0.243  0.00  0.00    -0.033 C 
ATOM     17  H9  <0> d           3.683   4.433   1.891  0.00  0.00     0.033 H 
ATOM     18  H10 <0> d           4.448   4.452   0.243  0.00  0.00     0.033 H 
ATOM     19  H7  <0> d           2.329   3.877  -0.846  0.00  0.00     0.037 H 
ATOM     20  H8  <0> d           1.592   4.638   0.630  0.00  0.00     0.037 H 
BRANCH  11  21
ATOM     21  O1  <0> d           1.620   2.554   2.211  0.00  0.00    -0.387 OA
ATOM     22  H13 <0> d           2.026   3.209   2.795  0.00  0.00     0.210 HD
ENDBRANCH  11  21
ENDBRANCH   3  11
BRANCH   3  23
ATOM     23  O2  <0> d           2.077   1.442  -1.319  0.00  0.00    -0.387 OA
ATOM     24  H14 <0> d           1.687   0.770  -1.895  0.00  0.00     0.210 HD
ENDBRANCH   3  23
TORSDOF 3
