REMARK  2 active torsions:
REMARK  status: ('A' for Active; 'I' for Inactive)
REMARK    1  A    between atoms: C4_6  and  C5_7 
REMARK    2  A    between atoms: C5_7  and  C6_8 
ROOT
ATOM      1  C1  <0> d          -0.823  -3.077   1.129  0.00  0.00    -0.060 A 
ATOM      2  C2  <0> d          -0.578  -4.326   0.684  0.00  0.00    -0.023 A 
ATOM      3  N1  <0> d          -0.594  -4.303  -0.679  0.00  0.00    -0.375 N 
ATOM      4  H1  <0> d          -0.447  -5.067  -1.259  0.00  0.00     0.164 HD
ATOM      5  C3  <0> d          -0.857  -3.031  -1.093  0.00  0.00    -0.017 A 
ATOM      6  C4  <0> d          -0.997  -2.253  -0.001  0.00  0.00    -0.032 A 
ATOM      7  H2  <0> d          -0.876  -2.765   2.162  0.00  0.00     0.086 H 
ATOM      8  H3  <0> d          -0.399  -5.194   1.300  0.00  0.00     0.111 H 
ATOM      9  H4  <0> d          -0.937  -2.702  -2.119  0.00  0.00     0.112 H 
ENDROOT
BRANCH   6  10
ATOM     10  C5  <0> d          -1.293  -0.775   0.010  0.00  0.00     0.041 C 
ATOM     11  H5  <0> d          -1.859  -0.524   0.907  0.00  0.00     0.056 H 
ATOM     12  H6  <0> d          -1.876  -0.515  -0.873  0.00  0.00     0.056 H 
BRANCH  10  13
ATOM     13  C6  <0> d           0.002  -0.004   0.002  0.00  0.00     0.176 C 
ATOM     14  O1  <0> d           1.056  -0.594  -0.011  0.00  0.00    -0.648 OA
ATOM     15  O2  <0> d          -0.016   1.338   0.009  0.00  0.00    -0.648 OA
ENDBRANCH  10  13
ENDBRANCH   6  10
TORSDOF 2
