REMARK  4 active torsions:
REMARK  status: ('A' for Active; 'I' for Inactive)
REMARK    1  A    between atoms: C1_1  and  C2_2 
REMARK    2  A    between atoms: C4_4  and  N1_10 
REMARK    3  A    between atoms: C6_6  and  O1_8 
REMARK    4  A    between atoms: O1_8  and  C8_9 
ROOT
ATOM      1  C2  <0> d           0.002  -0.004   0.002  0.00  0.00    -0.057 A 
ATOM      2  C3  <0> d           0.006  -0.687  -1.199  0.00  0.00    -0.052 A 
ATOM      3  C4  <0> d           0.024  -2.076  -1.209  0.00  0.00     0.028 A 
ATOM      4  C5  <0> d           0.039  -2.777  -0.011  0.00  0.00    -0.026 A 
ATOM      5  C6  <0> d           0.036  -2.088   1.192  0.00  0.00     0.070 A 
ATOM      6  C7  <0> d           0.023  -0.700   1.196  0.00  0.00    -0.045 A 
ATOM      7  H4  <0> d          -0.006  -0.141  -2.131  0.00  0.00     0.087 H 
ATOM      8  H5  <0> d           0.053  -3.857  -0.015  0.00  0.00     0.091 H 
ATOM      9  H6  <0> d           0.025  -0.163   2.133  0.00  0.00     0.088 H 
ENDROOT
BRANCH   5  10
ATOM     10  O1  <0> d           0.050  -2.771   2.367  0.00  0.00    -0.356 OA
BRANCH  10  11
ATOM     11  C8  <0> d           0.068  -4.198   2.287  0.00  0.00     0.010 C 
ATOM     12  H7  <0> d          -0.820  -4.543   1.758  0.00  0.00     0.066 H 
ATOM     13  H8  <0> d           0.960  -4.521   1.750  0.00  0.00     0.066 H 
ATOM     14  H9  <0> d           0.078  -4.617   3.293  0.00  0.00     0.066 H 
ENDBRANCH  10  11
ENDBRANCH   5  10
BRANCH   3  15
ATOM     15  N1  <0> d           0.027  -2.767  -2.423  0.00  0.00    -0.399 N 
ATOM     16  H10 <0> d           0.016  -2.276  -3.260  0.00  0.00     0.156 HD
ATOM     17  H11 <0> d           0.040  -3.736  -2.429  0.00  0.00     0.156 HD
ENDBRANCH   3  15
BRANCH   1  18
ATOM     18  C1  <0> d          -0.018   1.503   0.010  0.00  0.00    -0.051 C 
ATOM     19  H1  <0> d           1.004   1.880   0.003  0.00  0.00     0.033 H 
ATOM     20  H2  <0> d          -0.545   1.864  -0.873  0.00  0.00     0.033 H 
ATOM     21  H3  <0> d          -0.529   1.854   0.907  0.00  0.00     0.033 H 
ENDBRANCH   1  18
TORSDOF 4
