REMARK  8 active torsions:
REMARK  status: ('A' for Active; 'I' for Inactive)
REMARK    1  A    between atoms: C1_1  and  C2_2 
REMARK    2  A    between atoms: C2_2  and  C3_4 
REMARK    3  A    between atoms: C2_2  and  O2_11 
REMARK    4  A    between atoms: C3_4  and  C4_5 
REMARK    5  A    between atoms: C4_5  and  C5_6 
REMARK    6  A    between atoms: C5_6  and  C6_7 
REMARK    7  A    between atoms: C6_7  and  C7_9 
REMARK    8  A    between atoms: C6_7  and  O1_10 
ROOT
ATOM      1  C4  <0> d          -0.753   1.593  -1.232  0.00  0.00    -0.061 C 
ATOM      2  H8  <0> d          -1.775   1.215  -1.224  0.00  0.00     0.033 H 
ATOM      3  H9  <0> d          -0.767   2.683  -1.226  0.00  0.00     0.033 H 
ENDROOT
BRANCH   1   4
ATOM      4  C3  <0> d          -0.013   1.086   0.008  0.00  0.00    -0.041 C 
ATOM      5  H6  <0> d           0.002  -0.004   0.002  0.00  0.00     0.036 H 
ATOM      6  H7  <0> d           1.010   1.463   0.000  0.00  0.00     0.036 H 
BRANCH   4   7
ATOM      7  C2  <0> d          -0.729   1.579   1.267  0.00  0.00     0.032 C 
ATOM      8  H1  <0> d          -1.776   1.277   1.232  0.00  0.00     0.082 H 
BRANCH   7   9
ATOM      9  C1  <0> d          -0.064   0.971   2.503  0.00  0.00    -0.052 C 
ATOM     10  H3  <0> d           0.983   1.274   2.539  0.00  0.00     0.030 H 
ATOM     11  H4  <0> d          -0.574   1.323   3.400  0.00  0.00     0.030 H 
ATOM     12  H5  <0> d          -0.126  -0.116   2.452  0.00  0.00     0.030 H 
ENDBRANCH   7   9
BRANCH   7  13
ATOM     13  O2  <0> d          -0.647   3.004   1.334  0.00  0.00    -0.396 OA
ATOM     14  H16 <0> d           0.258   3.345   1.368  0.00  0.00     0.210 HD
ENDBRANCH   7  13
ENDBRANCH   4   7
ENDBRANCH   1   4
BRANCH   1  15
ATOM     15  C5  <0> d          -0.037   1.099  -2.490  0.00  0.00    -0.041 C 
ATOM     16  H10 <0> d           0.986   1.476  -2.498  0.00  0.00     0.036 H 
ATOM     17  H11 <0> d          -0.022   0.009  -2.496  0.00  0.00     0.036 H 
BRANCH  15  18
ATOM     18  C6  <0> d          -0.777   1.606  -3.730  0.00  0.00     0.032 C 
ATOM     19  H2  <0> d          -0.869   2.691  -3.679  0.00  0.00     0.082 H 
BRANCH  18  20
ATOM     20  C7  <0> d           0.007   1.219  -4.986  0.00  0.00    -0.052 C 
ATOM     21  H12 <0> d           0.100   0.134  -5.036  0.00  0.00     0.030 H 
ATOM     22  H13 <0> d          -0.520   1.580  -5.869  0.00  0.00     0.030 H 
ATOM     23  H14 <0> d           1.000   1.667  -4.947  0.00  0.00     0.030 H 
ENDBRANCH  18  20
BRANCH  18  24
ATOM     24  O1  <0> d          -2.078   1.019  -3.781  0.00  0.00    -0.396 OA
ATOM     25  H15 <0> d          -2.073   0.053  -3.827  0.00  0.00     0.210 HD
ENDBRANCH  18  24
ENDBRANCH  15  18
ENDBRANCH   1  15
TORSDOF 8
