REMARK  2 active torsions:
REMARK  status: ('A' for Active; 'I' for Inactive)
REMARK    1  A    between atoms: C1_1  and  S1_2 
REMARK    2  A    between atoms: S1_2  and  C2_3 
ROOT
ATOM      1  C2  <0> d           1.105   3.079   0.008  0.00  0.00     0.110 A 
ATOM      2  C3  <0> d          -0.114   3.754   0.022  0.00  0.00     0.036 A 
ATOM      3  N1  <0> d          -1.243   3.072   0.029  0.00  0.00    -0.269 NA
ATOM      4  C4  <0> d          -1.219   1.749   0.017  0.00  0.00     0.019 A 
ATOM      5  C5  <0> d          -0.013   1.076   0.008  0.00  0.00     0.020 A 
ATOM      6  N2  <0> d           1.124   1.751   0.001  0.00  0.00    -0.251 NA
ATOM      7  H4  <0> d          -0.134   4.834   0.028  0.00  0.00     0.119 H 
ATOM      8  H5  <0> d          -2.145   1.194   0.019  0.00  0.00     0.117 H 
ATOM      9  H6  <0> d           0.002  -0.004   0.002  0.00  0.00     0.117 H 
ENDROOT
BRANCH   1  10
ATOM     10  S1  <0> d           2.617   3.984  -0.001  0.00  0.00    -0.113 SA
BRANCH  10  11
ATOM     11  C1  <0> d           3.898   2.699  -0.019  0.00  0.00    -0.029 C 
ATOM     12  H1  <0> d           4.882   3.168  -0.026  0.00  0.00     0.042 H 
ATOM     13  H2  <0> d           3.798   2.075   0.868  0.00  0.00     0.042 H 
ATOM     14  H3  <0> d           3.782   2.084  -0.911  0.00  0.00     0.042 H 
ENDBRANCH  10  11
ENDBRANCH   1  10
TORSDOF 2
