REMARK  3 active torsions:
REMARK  status: ('A' for Active; 'I' for Inactive)
REMARK    1  A    between atoms: C1_1  and  C2_2 
REMARK    2  A    between atoms: C5_6  and  C8_11 
REMARK    3  A    between atoms: C8_11  and  C10_13 
ROOT
ATOM      1  C2  <0> d          -0.731   1.580   1.268  0.00  0.00     0.000 C 
ATOM      2  H1  <0> d          -0.304   1.181   2.080  0.00  0.00     0.051 H 
ATOM      3  C3  <0> d          -0.013   1.086   0.008  0.00  0.00    -0.055 C 
ATOM      4  C4  <0> d          -0.753   1.593  -1.231  0.00  0.00    -0.057 C 
ATOM      5  C5  <0> d          -2.161   0.996  -1.274  0.00  0.00    -0.027 C 
ATOM      6  H2  <0> d          -2.095  -0.092  -1.250  0.00  0.00     0.047 H 
ATOM      7  C6  <0> d          -2.959   1.487  -0.062  0.00  0.00    -0.003 C 
ATOM      8  C7  <0> d          -2.181   1.157   1.192  0.00  0.00     0.131 C 
ATOM      9  O1  <0> d          -2.704   0.572   2.110  0.00  0.00    -0.298 OA
ATOM     10  H6  <0> d           0.002  -0.004   0.002  0.00  0.00     0.034 H 
ATOM     11  H7  <0> d           1.010   1.463   0.000  0.00  0.00     0.034 H 
ATOM     12  H8  <0> d          -0.822   2.680  -1.192  0.00  0.00     0.034 H 
ATOM     13  H9  <0> d          -0.206   1.297  -2.126  0.00  0.00     0.034 H 
ATOM     14  H10 <0> d          -3.096   2.475  -0.132  0.00  0.00     0.045 H 
ATOM     15  H11 <0> d          -3.927   0.986  -0.035  0.00  0.00     0.045 H 
ENDROOT
BRANCH   5  16
ATOM     16  C8  <0> d          -2.852   1.429  -2.541  0.00  0.00    -0.089 C 
ATOM     17  C9  <0> d          -3.263   0.532  -3.403  0.00  0.00    -0.119 C 
ATOM     18  H12 <0> d          -3.107  -0.518  -3.205  0.00  0.00     0.067 H 
ATOM     19  H13 <0> d          -3.758   0.843  -4.311  0.00  0.00     0.067 H 
BRANCH  16  20
ATOM     20  C10 <0> d          -3.069   2.895  -2.817  0.00  0.00    -0.055 C 
ATOM     21  H14 <0> d          -2.214   3.292  -3.364  0.00  0.00     0.033 H 
ATOM     22  H15 <0> d          -3.973   3.022  -3.414  0.00  0.00     0.033 H 
ATOM     23  H16 <0> d          -3.179   3.430  -1.874  0.00  0.00     0.033 H 
ENDBRANCH  16  20
ENDBRANCH   5  16
BRANCH   1  24
ATOM     24  C1  <0> d          -0.643   3.106   1.344  0.00  0.00    -0.066 C 
ATOM     25  H3  <0> d          -1.116   3.541   0.464  0.00  0.00     0.028 H 
ATOM     26  H4  <0> d          -1.154   3.455   2.241  0.00  0.00     0.028 H 
ATOM     27  H5  <0> d           0.403   3.409   1.381  0.00  0.00     0.028 H 
ENDBRANCH   1  24
TORSDOF 3
