REMARK  5 active torsions:
REMARK  status: ('A' for Active; 'I' for Inactive)
REMARK    1  A    between atoms: C1_1  and  C2_2 
REMARK    2  A    between atoms: C2_2  and  C3_3 
REMARK    3  A    between atoms: C3_3  and  C4_4 
REMARK    4  A    between atoms: C5_5  and  C6_6 
REMARK    5  A    between atoms: C6_6  and  C7_7 
ROOT
ATOM      1  C4  <0> d           0.739  -2.004  -1.265  0.00  0.00    -0.106 C 
ATOM      2  C5  <0> d           0.258  -2.660  -2.292  0.00  0.00    -0.106 C 
ATOM      3  H8  <0> d           1.149  -2.543  -0.424  0.00  0.00     0.076 H 
ATOM      4  H9  <0> d          -0.152  -2.121  -3.133  0.00  0.00     0.076 H 
ENDROOT
BRANCH   1   5
ATOM      5  C3  <0> d           0.718  -0.497  -1.257  0.00  0.00    -0.050 C 
ATOM      6  H6  <0> d           0.191  -0.136  -2.140  0.00  0.00     0.038 H 
ATOM      7  H7  <0> d           1.741  -0.120  -1.264  0.00  0.00     0.038 H 
BRANCH   5   8
ATOM      8  C2  <0> d           0.002  -0.004   0.002  0.00  0.00    -0.066 C 
ATOM      9  H4  <0> d           0.529  -0.365   0.885  0.00  0.00     0.032 H 
ATOM     10  H5  <0> d          -1.020  -0.381   0.010  0.00  0.00     0.032 H 
BRANCH   8  11
ATOM     11  C1  <0> d          -0.019   1.526   0.010  0.00  0.00    -0.076 C 
ATOM     12  H1  <0> d           1.004   1.903   0.003  0.00  0.00     0.027 H 
ATOM     13  H2  <0> d          -0.546   1.887  -0.873  0.00  0.00     0.027 H 
ATOM     14  H3  <0> d          -0.529   1.877   0.907  0.00  0.00     0.027 H 
ENDBRANCH   8  11
ENDBRANCH   5   8
ENDBRANCH   1   5
BRANCH   2  15
ATOM     15  C6  <0> d           0.279  -4.167  -2.301  0.00  0.00    -0.053 C 
ATOM     16  H10 <0> d           0.937  -4.517  -3.096  0.00  0.00     0.038 H 
ATOM     17  H11 <0> d           0.644  -4.531  -1.340  0.00  0.00     0.038 H 
BRANCH  15  18
ATOM     18  C7  <0> d          -1.137  -4.695  -2.540  0.00  0.00    -0.074 C 
ATOM     19  H12 <0> d          -1.503  -4.331  -3.501  0.00  0.00     0.028 H 
ATOM     20  H13 <0> d          -1.122  -5.785  -2.546  0.00  0.00     0.028 H 
ATOM     21  H14 <0> d          -1.795  -4.345  -1.745  0.00  0.00     0.028 H 
ENDBRANCH  15  18
ENDBRANCH   2  15
TORSDOF 5
