REMARK  4 active torsions:
REMARK  status: ('A' for Active; 'I' for Inactive)
REMARK    1  A    between atoms: C1_1  and  C2_2 
REMARK    2  A    between atoms: C2_2  and  C3_3 
REMARK    3  A    between atoms: C2_2  and  C4_4 
REMARK    4  A    between atoms: C6_7  and  C7_9 
ROOT
ATOM      1  C2  <0> d           0.002  -0.004   0.002  0.00  0.00    -0.017 C 
ATOM      2  H4  <0> d           0.512  -0.356  -0.895  0.00  0.00     0.048 H 
ENDROOT
BRANCH   1   3
ATOM      3  C1  <0> d          -0.019   1.526   0.010  0.00  0.00    -0.068 C 
ATOM      4  H1  <0> d           1.004   1.903   0.003  0.00  0.00     0.028 H 
ATOM      5  H2  <0> d          -0.546   1.887  -0.873  0.00  0.00     0.028 H 
ATOM      6  H3  <0> d          -0.529   1.877   0.907  0.00  0.00     0.028 H 
ENDBRANCH   1   3
BRANCH   1   7
ATOM      7  C3  <0> d           0.742  -0.511   1.242  0.00  0.00    -0.068 C 
ATOM      8  H5  <0> d           0.232  -0.159   2.138  0.00  0.00     0.028 H 
ATOM      9  H6  <0> d           0.757  -1.601   1.236  0.00  0.00     0.028 H 
ATOM     10  H7  <0> d           1.765  -0.134   1.234  0.00  0.00     0.028 H 
ENDBRANCH   1   7
BRANCH   1  11
ATOM     11  C4  <0> d          -1.412  -0.526   0.013  0.00  0.00     0.063 A 
ATOM     12  N1  <0> d          -2.126  -0.879  -1.055  0.00  0.00    -0.221 NA
ATOM     13  C6  <0> d          -3.309  -1.287  -0.655  0.00  0.00     0.248 A 
ATOM     14  O1  <0> d          -3.366  -1.188   0.686  0.00  0.00    -0.297 OA
ATOM     15  C5  <0> d          -2.185  -0.713   1.109  0.00  0.00     0.045 A 
ATOM     16  H8  <0> d          -1.902  -0.517   2.133  0.00  0.00     0.126 H 
BRANCH  13  17
ATOM     17  C7  <0> d          -4.392  -1.766  -1.528  0.00  0.00     0.254 C 
ATOM     18  O2  <0> d          -5.459  -2.117  -1.042  0.00  0.00    -0.641 OA
ATOM     19  O3  <0> d          -4.227  -1.814  -2.739  0.00  0.00    -0.641 OA
ENDBRANCH  13  17
ENDBRANCH   1  11
TORSDOF 4
