REMARK  2 active torsions:
REMARK  status: ('A' for Active; 'I' for Inactive)
REMARK    1  A    between atoms: C1_1  and  C2_2 
REMARK    2  A    between atoms: C8_9  and  C9_11 
ROOT
ATOM      1  C2  <0> d          -1.101   2.642   4.597  0.00  0.00     0.014 A 
ATOM      2  C3  <0> d          -2.242   3.011   5.218  0.00  0.00    -0.061 A 
ATOM      3  C4  <0> d          -3.463   2.997   4.524  0.00  0.00    -0.077 A 
ATOM      4  C5  <0> d          -3.493   2.609   3.220  0.00  0.00    -0.038 A 
ATOM      5  C6  <0> d          -2.293   2.226   2.586  0.00  0.00     0.134 A 
ATOM      6  N1  <0> d          -1.117   2.251   3.290  0.00  0.00    -0.309 N 
ATOM      7  C7  <0> d          -0.132   1.836   2.436  0.00  0.00     0.010 A 
ATOM      8  C8  <0> d          -0.718   1.572   1.248  0.00  0.00     0.049 A 
ATOM      9  N2  <0> d          -2.026   1.819   1.354  0.00  0.00    -0.234 NA
ATOM     10  H4  <0> d          -2.215   3.319   6.253  0.00  0.00     0.086 H 
ATOM     11  H5  <0> d          -4.374   3.294   5.022  0.00  0.00     0.083 H 
ATOM     12  H6  <0> d          -4.426   2.595   2.677  0.00  0.00     0.089 H 
ATOM     13  H7  <0> d           0.919   1.738   2.668  0.00  0.00     0.115 H 
ENDROOT
BRANCH   1  14
ATOM     14  C1  <0> d           0.201   2.662   5.355  0.00  0.00    -0.037 C 
ATOM     15  H1  <0> d           0.671   3.639   5.245  0.00  0.00     0.035 H 
ATOM     16  H2  <0> d           0.010   2.467   6.411  0.00  0.00     0.035 H 
ATOM     17  H3  <0> d           0.864   1.893   4.958  0.00  0.00     0.035 H 
ENDBRANCH   1  14
BRANCH   8  18
ATOM     18  C9  <0> d          -0.013   1.086   0.008  0.00  0.00    -0.034 C 
ATOM     19  H8  <0> d           0.002  -0.004   0.002  0.00  0.00     0.035 H 
ATOM     20  H9  <0> d           1.010   1.463   0.000  0.00  0.00     0.035 H 
ATOM     21  H10 <0> d          -0.540   1.447  -0.875  0.00  0.00     0.035 H 
ENDBRANCH   8  18
TORSDOF 2
