REMARK  4 active torsions:
REMARK  status: ('A' for Active; 'I' for Inactive)
REMARK    1  A    between atoms: C1_1  and  C2_2 
REMARK    2  A    between atoms: C2_2  and  C3_3 
REMARK    3  A    between atoms: C2_2  and  C4_4 
REMARK    4  A    between atoms: C2_2  and  N1_5 
ROOT
ATOM      1  C2  <0> d          -0.018   1.461   0.010  0.00  0.00     0.030 C 
ENDROOT
BRANCH   1   2
ATOM      2  C1  <0> d           1.418   1.990  -0.001  0.00  0.00    -0.053 C 
ATOM      3  H2  <0> d           1.928   1.639  -0.898  0.00  0.00     0.030 H 
ATOM      4  H3  <0> d           1.403   3.080   0.005  0.00  0.00     0.030 H 
ATOM      5  H4  <0> d           1.945   1.629   0.882  0.00  0.00     0.030 H 
ENDBRANCH   1   2
BRANCH   1   6
ATOM      6  C3  <0> d          -0.758   1.968  -1.230  0.00  0.00    -0.053 C 
ATOM      7  H5  <0> d          -1.780   1.590  -1.222  0.00  0.00     0.030 H 
ATOM      8  H6  <0> d          -0.773   3.058  -1.224  0.00  0.00     0.030 H 
ATOM      9  H7  <0> d          -0.248   1.616  -2.126  0.00  0.00     0.030 H 
ENDBRANCH   1   6
BRANCH   1  10
ATOM     10  C4  <0> d          -0.734   1.954   1.269  0.00  0.00    -0.053 C 
ATOM     11  H8  <0> d          -0.207   1.593   2.152  0.00  0.00     0.030 H 
ATOM     12  H9  <0> d          -0.749   3.044   1.275  0.00  0.00     0.030 H 
ATOM     13  H10 <0> d          -1.756   1.577   1.277  0.00  0.00     0.030 H 
ENDBRANCH   1  10
BRANCH   1  14
ATOM     14  N1  <0> d           0.002  -0.004   0.002  0.00  0.00    -0.300 N 
ATOM     15  C7  <0> d          -0.546  -0.798  -0.939  0.00  0.00     0.327 A 
ATOM     16  N2  <0> d          -0.314  -2.080  -0.592  0.00  0.00    -0.317 N 
ATOM     17  O1  <0> d          -1.145  -0.423  -1.930  0.00  0.00    -0.246 OA
ATOM     18  C6  <0> d           0.391  -2.080   0.602  0.00  0.00    -0.003 A 
ATOM     19  H1  <0> d          -0.594  -2.864  -1.089  0.00  0.00     0.170 HD
ATOM     20  C5  <0> d           0.584  -0.817   0.964  0.00  0.00    -0.000 A 
ATOM     21  H12 <0> d           0.725  -2.954   1.143  0.00  0.00     0.113 H 
ATOM     22  H11 <0> d           1.101  -0.481   1.851  0.00  0.00     0.114 H 
ENDBRANCH   1  14
TORSDOF 4
