REMARK  5 active torsions:
REMARK  status: ('A' for Active; 'I' for Inactive)
REMARK    1  A    between atoms: C1_1  and  C2_2 
REMARK    2  A    between atoms: C2_2  and  N1_3 
REMARK       I    between atoms: N1_3  and  C3_4 
REMARK    3  A    between atoms: C3_4  and  C4_6 
REMARK    4  A    between atoms: C4_6  and  C5_8 
REMARK    5  A    between atoms: C4_6  and  O2_9 
ROOT
ATOM      1  N1  <0> d          -0.011   0.966   0.007  0.00  0.00    -0.359 N 
ATOM      2  C3  <0> d          -1.187   1.624   0.017  0.00  0.00     0.246 C 
ATOM      3  O1  <0> d          -1.204   2.837   0.023  0.00  0.00    -0.271 OA
ATOM      4  H7  <0> d           0.002  -0.004   0.002  0.00  0.00     0.162 HD
ENDROOT
BRANCH   2   5
ATOM      5  C4  <0> d          -2.482   0.853   0.018  0.00  0.00     0.108 C 
ATOM      6  H1  <0> d          -2.497   0.165  -0.827  0.00  0.00     0.097 H 
BRANCH   5   7
ATOM      7  C5  <0> d          -2.602   0.061   1.322  0.00  0.00    -0.044 C 
ATOM      8  H8  <0> d          -3.538  -0.497   1.323  0.00  0.00     0.031 H 
ATOM      9  H9  <0> d          -1.766  -0.633   1.404  0.00  0.00     0.031 H 
ATOM     10  H10 <0> d          -2.587   0.749   2.168  0.00  0.00     0.031 H 
ENDBRANCH   5   7
BRANCH   5  11
ATOM     11  O2  <0> d          -3.579   1.763  -0.089  0.00  0.00    -0.387 OA
ATOM     12  H11 <0> d          -4.446   1.335  -0.094  0.00  0.00     0.210 HD
ENDBRANCH   5  11
ENDBRANCH   2   5
BRANCH   1  13
ATOM     13  C2  <0> d           1.248   1.716  -0.001  0.00  0.00    -0.008 C 
ATOM     14  H5  <0> d           1.288   2.348  -0.888  0.00  0.00     0.063 H 
ATOM     15  H6  <0> d           1.305   2.338   0.892  0.00  0.00     0.063 H 
BRANCH  13  16
ATOM     16  C1  <0> d           2.424   0.737  -0.017  0.00  0.00    -0.061 C 
ATOM     17  H2  <0> d           3.360   1.295  -0.023  0.00  0.00     0.029 H 
ATOM     18  H3  <0> d           2.383   0.105   0.870  0.00  0.00     0.029 H 
ATOM     19  H4  <0> d           2.366   0.115  -0.910  0.00  0.00     0.029 H 
ENDBRANCH  13  16
ENDBRANCH   1  13
TORSDOF 5
