REMARK  4 active torsions:
REMARK  status: ('A' for Active; 'I' for Inactive)
REMARK    1  A    between atoms: C1_1  and  C2_2 
REMARK    2  A    between atoms: C5_5  and  C9_10 
REMARK    3  A    between atoms: N1_6  and  C6_7 
REMARK    4  A    between atoms: C6_7  and  C7_8 
ROOT
ATOM      1  C7  <0> d          -1.356  -0.219   2.973  0.00  0.00    -0.097 C 
ATOM      2  C8  <0> d          -2.461  -0.113   3.355  0.00  0.00    -0.152 C 
ATOM      3  H8  <0> d          -3.449  -0.018   3.696  0.00  0.00     0.166 H 
ENDROOT
BRANCH   1   4
ATOM      4  C6  <0> d           0.030  -0.352   2.494  0.00  0.00     0.053 C 
ATOM      5  H6  <0> d           0.559  -1.078   3.112  0.00  0.00     0.084 H 
ATOM      6  H7  <0> d           0.531   0.614   2.557  0.00  0.00     0.084 H 
BRANCH   4   7
ATOM      7  N1  <0> d           0.024  -0.809   1.102  0.00  0.00    -0.344 N 
ATOM      8  C2  <0> d           0.002  -0.004   0.002  0.00  0.00     0.009 A 
ATOM      9  C3  <0> d           0.008  -0.789  -1.095  0.00  0.00    -0.059 A 
ATOM     10  C4  <0> d           0.029  -2.127  -0.656  0.00  0.00    -0.059 A 
ATOM     11  H4  <0> d          -0.001  -0.453  -2.121  0.00  0.00     0.086 H 
ATOM     12  C5  <0> d           0.035  -2.110   0.693  0.00  0.00     0.009 A 
ATOM     13  H5  <0> d           0.039  -3.006  -1.284  0.00  0.00     0.086 H 
BRANCH   8  14
ATOM     14  C1  <0> d          -0.018   1.503   0.010  0.00  0.00    -0.037 C 
ATOM     15  H1  <0> d           1.004   1.880   0.003  0.00  0.00     0.035 H 
ATOM     16  H2  <0> d          -0.545   1.864  -0.873  0.00  0.00     0.035 H 
ATOM     17  H3  <0> d          -0.529   1.854   0.907  0.00  0.00     0.035 H 
ENDBRANCH   8  14
BRANCH  12  18
ATOM     18  C9  <0> d           0.055  -3.319   1.592  0.00  0.00    -0.037 C 
ATOM     19  H9  <0> d           1.087  -3.596   1.804  0.00  0.00     0.035 H 
ATOM     20  H10 <0> d          -0.458  -3.086   2.525  0.00  0.00     0.035 H 
ATOM     21  H11 <0> d          -0.450  -4.148   1.097  0.00  0.00     0.035 H 
ENDBRANCH  12  18
ENDBRANCH   4   7
ENDBRANCH   1   4
TORSDOF 4
