REMARK  1 active torsions:
REMARK  status: ('A' for Active; 'I' for Inactive)
REMARK    1  A    between atoms: C8_10  and  N3_11 
ROOT
ATOM      1  C1  <0> d          -1.188   5.873   0.042  0.00  0.00    -0.040 A 
ATOM      2  C2  <0> d          -2.364   5.138   0.050  0.00  0.00     0.005 A 
ATOM      3  N1  <0> d          -2.363   3.824   0.043  0.00  0.00    -0.260 NA
ATOM      4  C3  <0> d          -1.224   3.128   0.030  0.00  0.00     0.071 A 
ATOM      5  C4  <0> d          -1.212   1.720   0.017  0.00  0.00    -0.037 A 
ATOM      6  C5  <0> d          -0.013   1.076   0.008  0.00  0.00     0.004 A 
ATOM      7  N2  <0> d           1.138   1.735   0.001  0.00  0.00    -0.272 NA
ATOM      8  C6  <0> d           1.201   3.047   0.006  0.00  0.00     0.016 A 
ATOM      9  C7  <0> d           0.022   3.802   0.021  0.00  0.00     0.036 A 
ATOM     10  C8  <0> d           0.035   5.217   0.028  0.00  0.00     0.041 A 
ATOM     11  H1  <0> d          -1.223   6.952   0.048  0.00  0.00     0.089 H 
ATOM     12  H2  <0> d          -3.309   5.661   0.061  0.00  0.00     0.114 H 
ATOM     13  H3  <0> d          -2.136   1.162   0.019  0.00  0.00     0.089 H 
ATOM     14  H4  <0> d           0.002  -0.004   0.002  0.00  0.00     0.114 H 
ATOM     15  H5  <0> d           2.161   3.543   0.000  0.00  0.00     0.116 H 
ENDROOT
BRANCH  10  16
ATOM     16  N3  <0> d           1.226   5.923   0.021  0.00  0.00    -0.398 N 
ATOM     17  H6  <0> d           2.185   5.383   0.009  0.00  0.00     0.156 HD
ATOM     18  H7  <0> d           1.214   7.022   0.026  0.00  0.00     0.156 HD
ENDBRANCH  10  16
TORSDOF 1
