REMARK  2 active torsions:
REMARK  status: ('A' for Active; 'I' for Inactive)
REMARK    1  A    between atoms: C5_7  and  C8_11 
REMARK    2  A    between atoms: C8_11  and  O1_12 
ROOT
ATOM      1  C1  <0> d           3.717   3.650  -0.014  0.00  0.00    -0.054 A 
ATOM      2  C2  <0> d           4.311   4.854  -0.013  0.00  0.00    -0.020 A 
ATOM      3  N1  <0> d           3.363   5.842   0.002  0.00  0.00    -0.350 N 
ATOM      4  H1  <0> d           3.551   6.793   0.006  0.00  0.00     0.166 HD
ATOM      5  C3  <0> d           2.105   5.287   0.011  0.00  0.00     0.138 A 
ATOM      6  C4  <0> d           2.273   3.889   0.007  0.00  0.00     0.019 A 
ATOM      7  C5  <0> d           1.147   3.062   0.008  0.00  0.00    -0.019 A 
ATOM      8  C6  <0> d          -0.099   3.661   0.023  0.00  0.00    -0.057 A 
ATOM      9  C7  <0> d          -0.189   5.044   0.031  0.00  0.00     0.005 A 
ATOM     10  N2  <0> d           0.885   5.805   0.025  0.00  0.00    -0.242 NA
ATOM     11  H2  <0> d           4.210   2.689  -0.024  0.00  0.00     0.087 H 
ATOM     12  H3  <0> d           5.378   5.019  -0.021  0.00  0.00     0.111 H 
ATOM     13  H4  <0> d          -0.994   3.057   0.028  0.00  0.00     0.086 H 
ATOM     14  H5  <0> d          -1.164   5.509   0.043  0.00  0.00     0.114 H 
ENDROOT
BRANCH   7  15
ATOM     15  C8  <0> d           1.286   1.562  -0.002  0.00  0.00     0.041 C 
ATOM     16  H6  <0> d           1.840   1.243   0.881  0.00  0.00     0.081 H 
ATOM     17  H7  <0> d           1.823   1.252  -0.899  0.00  0.00     0.081 H 
BRANCH  15  18
ATOM     18  O1  <0> d          -0.011   0.963   0.007  0.00  0.00    -0.396 OA
ATOM     19  H8  <0> d           0.002  -0.004   0.002  0.00  0.00     0.209 HD
ENDBRANCH  15  18
ENDBRANCH   7  15
TORSDOF 2
