REMARK  3 active torsions:
REMARK  status: ('A' for Active; 'I' for Inactive)
REMARK    1  A    between atoms: C1_1  and  N1_2 
REMARK    2  A    between atoms: N1_2  and  C2_3 
REMARK    3  A    between atoms: N1_2  and  C3_4 
ROOT
ATOM      1  C3  <0> d           1.113   2.019   0.002  0.00  0.00     0.710 A 
ATOM      2  N2  <0> d           2.314   1.362  -0.013  0.00  0.00    -0.139 N 
ATOM      3  H1  <0> d           3.144   1.864  -0.018  0.00  0.00     0.189 HD
ATOM      4  C4  <0> d           2.336   0.013  -0.020  0.00  0.00     0.342 A 
ATOM      5  O1  <0> d           3.396  -0.582  -0.033  0.00  0.00    -0.246 OA
ATOM      6  N3  <0> d           1.173  -0.670  -0.013  0.00  0.00    -0.258 N 
ATOM      7  H2  <0> d           1.180  -1.640  -0.018  0.00  0.00     0.175 HD
ATOM      8  C5  <0> d           0.002  -0.004   0.002  0.00  0.00     0.365 A 
ATOM      9  O2  <0> d          -1.046  -0.624   0.009  0.00  0.00    -0.244 OA
ATOM     10  N4  <0> d          -0.016   1.334   0.009  0.00  0.00    -0.006 NA
ENDROOT
BRANCH   1  11
ATOM     11  N1  <0> d           1.082   3.383   0.010  0.00  0.00    -0.224 N 
BRANCH  11  12
ATOM     12  C1  <0> d          -0.203   4.087   0.026  0.00  0.00    -0.003 C 
ATOM     13  H3  <0> d          -1.015   3.360   0.030  0.00  0.00     0.057 H 
ATOM     14  H4  <0> d          -0.266   4.707   0.920  0.00  0.00     0.057 H 
ATOM     15  H5  <0> d          -0.283   4.716  -0.860  0.00  0.00     0.057 H 
ENDBRANCH  11  12
BRANCH  11  16
ATOM     16  C2  <0> d           2.334   4.144   0.002  0.00  0.00    -0.003 C 
ATOM     17  H6  <0> d           2.635   4.338  -1.028  0.00  0.00     0.057 H 
ATOM     18  H7  <0> d           2.187   5.090   0.522  0.00  0.00     0.057 H 
ATOM     19  H8  <0> d           3.112   3.569   0.505  0.00  0.00     0.057 H 
ENDBRANCH  11  16
ENDBRANCH   1  11
TORSDOF 3
