REMARK  1 active torsions:
REMARK  status: ('A' for Active; 'I' for Inactive)
REMARK    1  A    between atoms: C3_3  and  N5_10 
ROOT
ATOM      1  C1  <0> d           1.189  -2.084  -0.020  0.00  0.00    -0.064 A 
ATOM      2  C2  <0> d           1.190  -0.681  -0.013  0.00  0.00    -0.052 A 
ATOM      3  C3  <0> d           0.002  -0.004   0.002  0.00  0.00     0.076 A 
ATOM      4  C4  <0> d          -1.206  -0.737   0.015  0.00  0.00     0.201 A 
ATOM      5  N1  <0> d          -2.485  -0.391   0.024  0.00  0.00    -0.106 NA
ATOM      6  N2  <0> d          -3.228  -1.440   0.025  0.00  0.00    -0.022 NA
ATOM      7  N3  <0> d          -2.509  -2.511   0.013  0.00  0.00    -0.040 NA
ATOM      8  N4  <0> d          -1.167  -2.103   0.002  0.00  0.00    -0.203 N 
ATOM      9  C5  <0> d           0.021  -2.765  -0.013  0.00  0.00     0.008 A 
ATOM     10  H1  <0> d           2.125  -2.622  -0.032  0.00  0.00     0.085 H 
ATOM     11  H2  <0> d           2.124  -0.139  -0.019  0.00  0.00     0.087 H 
ATOM     12  H3  <0> d           0.032  -3.845  -0.018  0.00  0.00     0.115 H 
ENDROOT
BRANCH   3  13
ATOM     13  N5  <0> d          -0.017   1.391   0.010  0.00  0.00    -0.396 N 
ATOM     14  H4  <0> d           0.817   1.888   0.004  0.00  0.00     0.156 HD
ATOM     15  H5  <0> d          -0.863   1.865   0.016  0.00  0.00     0.156 HD
ENDBRANCH   3  13
TORSDOF 1
