REMARK  2 active torsions:
REMARK  status: ('A' for Active; 'I' for Inactive)
REMARK    1  A    between atoms: C2_2  and  C3_3 
REMARK    2  A    between atoms: C3_3  and  C7_7 
ROOT
ATOM      1  C1  <0> d           0.018  -1.178  -0.004  0.00  0.00    -0.153 C 
ATOM      2  C2  <0> d           0.002  -0.004   0.002  0.00  0.00    -0.102 C 
ATOM      3  H1  <0> d           0.032  -2.228  -0.010  0.00  0.00     0.166 H 
ENDROOT
BRANCH   2   4
ATOM      4  C3  <0> d          -0.018   1.468   0.010  0.00  0.00     0.050 C 
ATOM      5  C6  <0> d           1.383   2.103   0.000  0.00  0.00    -0.044 C 
ATOM      6  C5  <0> d           1.306   2.057  -1.535  0.00  0.00    -0.061 C 
ATOM      7  H6  <0> d           1.406   3.114   0.406  0.00  0.00     0.035 H 
ATOM      8  H7  <0> d           2.157   1.460   0.418  0.00  0.00     0.035 H 
ATOM      9  C4  <0> d          -0.223   2.089  -1.382  0.00  0.00    -0.044 C 
ATOM     10  H4  <0> d           1.683   1.129  -1.964  0.00  0.00     0.033 H 
ATOM     11  H5  <0> d           1.715   2.944  -2.019  0.00  0.00     0.033 H 
ATOM     12  H2  <0> d          -0.746   1.434  -2.079  0.00  0.00     0.035 H 
ATOM     13  H3  <0> d          -0.639   3.096  -1.353  0.00  0.00     0.035 H 
BRANCH   4  14
ATOM     14  C7  <0> d          -0.930   2.035   1.067  0.00  0.00    -0.037 A 
ATOM     15  C12 <0> d          -2.232   1.581   1.173  0.00  0.00    -0.075 A 
ATOM     16  C11 <0> d          -3.067   2.098   2.145  0.00  0.00    -0.082 A 
ATOM     17  H12 <0> d          -2.595   0.820   0.498  0.00  0.00     0.084 H 
ATOM     18  C10 <0> d          -2.605   3.075   3.005  0.00  0.00    -0.083 A 
ATOM     19  H11 <0> d          -4.083   1.740   2.230  0.00  0.00     0.083 H 
ATOM     20  C9  <0> d          -1.305   3.533   2.896  0.00  0.00    -0.082 A 
ATOM     21  H10 <0> d          -3.258   3.481   3.763  0.00  0.00     0.083 H 
ATOM     22  C8  <0> d          -0.468   3.013   1.927  0.00  0.00    -0.075 A 
ATOM     23  H9  <0> d          -0.943   4.297   3.569  0.00  0.00     0.083 H 
ATOM     24  H8  <0> d           0.548   3.371   1.842  0.00  0.00     0.084 H 
ENDBRANCH   4  14
ENDBRANCH   2   4
TORSDOF 2
