REMARK  1 active torsions:
REMARK  status: ('A' for Active; 'I' for Inactive)
REMARK    1  A    between atoms: C3_3  and  C7_9 
ROOT
ATOM      1  C1  <0> d           2.766   5.073   0.093  0.00  0.00    -0.058 C 
ATOM      2  C2  <0> d           2.696   3.548  -0.005  0.00  0.00    -0.052 C 
ATOM      3  C3  <0> d           1.235   3.094   0.007  0.00  0.00     0.037 C 
ATOM      4  H1  <0> d           0.744   3.473   0.903  0.00  0.00     0.057 H 
ATOM      5  C4  <0> d           0.523   3.640  -1.235  0.00  0.00     0.003 C 
ATOM      6  C5  <0> d           0.709   5.140  -1.276  0.00  0.00     0.127 C 
ATOM      7  O1  <0> d          -0.238   5.878  -1.410  0.00  0.00    -0.298 OA
ATOM      8  C6  <0> d           2.111   5.693  -1.146  0.00  0.00    -0.010 C 
ATOM      9  H2  <0> d           2.238   5.405   0.987  0.00  0.00     0.033 H 
ATOM     10  H3  <0> d           3.808   5.386   0.148  0.00  0.00     0.033 H 
ATOM     11  H4  <0> d           3.219   3.107   0.844  0.00  0.00     0.034 H 
ATOM     12  H5  <0> d           3.169   3.222  -0.931  0.00  0.00     0.034 H 
ATOM     13  H6  <0> d           0.916   3.223  -2.055  0.00  0.00     0.045 H 
ATOM     14  H7  <0> d          -0.540   3.404  -1.181  0.00  0.00     0.045 H 
ATOM     15  H8  <0> d           2.079   6.687  -1.045  0.00  0.00     0.044 H 
ATOM     16  H9  <0> d           2.689   5.436  -2.034  0.00  0.00     0.044 H 
ENDROOT
BRANCH   3  17
ATOM     17  C7  <0> d           1.177   1.588  -0.001  0.00  0.00     0.177 C 
ATOM     18  O2  <0> d           2.199   0.944  -0.014  0.00  0.00    -0.648 OA
ATOM     19  O3  <0> d          -0.011   0.963   0.007  0.00  0.00    -0.648 OA
ENDBRANCH   3  17
TORSDOF 1
