REMARK  3 active torsions:
REMARK  status: ('A' for Active; 'I' for Inactive)
REMARK    1  A    between atoms: C1_1  and  C2_2 
REMARK    2  A    between atoms: C6_7  and  O2_10 
REMARK    3  A    between atoms: O2_10  and  C7_11 
ROOT
ATOM      1  C2  <0> d          -0.729   1.579   1.267  0.00  0.00     0.038 C 
ATOM      2  H1  <0> d          -1.752   1.202   1.274  0.00  0.00     0.082 H 
ATOM      3  C3  <0> d           0.011   1.072   2.507  0.00  0.00    -0.041 C 
ATOM      4  C4  <0> d          -0.676   1.620   3.762  0.00  0.00    -0.059 C 
ATOM      5  C5  <0> d          -0.706   3.149   3.688  0.00  0.00    -0.019 C 
ATOM      6  C6  <0> d          -1.419   3.576   2.402  0.00  0.00     0.131 C 
ATOM      7  H2  <0> d          -2.451   3.226   2.424  0.00  0.00     0.129 H 
ATOM      8  O1  <0> d          -0.747   3.008   1.276  0.00  0.00    -0.356 OA
ATOM      9  H6  <0> d          -0.012  -0.017   2.525  0.00  0.00     0.036 H 
ATOM     10  H7  <0> d           1.046   1.415   2.480  0.00  0.00     0.036 H 
ATOM     11  H8  <0> d          -1.695   1.237   3.816  0.00  0.00     0.033 H 
ATOM     12  H9  <0> d          -0.122   1.307   4.647  0.00  0.00     0.033 H 
ATOM     13  H10 <0> d          -1.243   3.545   4.550  0.00  0.00     0.040 H 
ATOM     14  H11 <0> d           0.314   3.534   3.685  0.00  0.00     0.040 H 
ENDROOT
BRANCH   6  15
ATOM     15  O2  <0> d          -1.402   5.001   2.298  0.00  0.00    -0.366 OA
BRANCH  15  16
ATOM     16  C7  <0> d          -2.232   5.518   1.256  0.00  0.00     0.007 C 
ATOM     17  H12 <0> d          -3.265   5.221   1.433  0.00  0.00     0.066 H 
ATOM     18  H13 <0> d          -2.164   6.606   1.243  0.00  0.00     0.066 H 
ATOM     19  H14 <0> d          -1.899   5.122   0.296  0.00  0.00     0.066 H 
ENDBRANCH  15  16
ENDBRANCH   6  15
BRANCH   1  20
ATOM     20  C1  <0> d          -0.013   1.086   0.008  0.00  0.00    -0.052 C 
ATOM     21  H3  <0> d           0.002  -0.004   0.002  0.00  0.00     0.030 H 
ATOM     22  H4  <0> d           1.010   1.463   0.000  0.00  0.00     0.030 H 
ATOM     23  H5  <0> d          -0.540   1.447  -0.875  0.00  0.00     0.030 H 
ENDBRANCH   1  20
TORSDOF 3
