REMARK  6 active torsions:
REMARK  status: ('A' for Active; 'I' for Inactive)
REMARK    1  A    between atoms: C2_2  and  C3_3 
REMARK    2  A    between atoms: C3_3  and  C4_4 
REMARK    3  A    between atoms: C4_4  and  C5_5 
REMARK    4  A    between atoms: C5_5  and  C6_7 
REMARK    5  A    between atoms: C5_5  and  O2_9 
REMARK    6  A    between atoms: C6_7  and  O1_8 
ROOT
ATOM      1  C4  <0> d          -0.064   0.971   2.503  0.00  0.00    -0.036 C 
ATOM      2  H7  <0> d          -0.047  -0.115   2.410  0.00  0.00     0.037 H 
ATOM      3  H8  <0> d           0.957   1.344   2.587  0.00  0.00     0.037 H 
ENDROOT
BRANCH   1   4
ATOM      4  C3  <0> d          -0.855   1.364   3.753  0.00  0.00    -0.048 C 
ATOM      5  H5  <0> d          -0.871   2.450   3.846  0.00  0.00     0.038 H 
ATOM      6  H6  <0> d          -1.875   0.991   3.669  0.00  0.00     0.038 H 
BRANCH   4   7
ATOM      7  C2  <0> d          -0.200   0.765   4.971  0.00  0.00    -0.112 C 
ATOM      8  C1  <0> d           0.153   1.535   5.970  0.00  0.00    -0.125 C 
ATOM      9  H2  <0> d           0.622   1.106   6.843  0.00  0.00     0.066 H 
ATOM     10  H3  <0> d          -0.026   2.599   5.922  0.00  0.00     0.066 H 
ATOM     11  H4  <0> d          -0.021  -0.299   5.019  0.00  0.00     0.075 H 
ENDBRANCH   4   7
ENDBRANCH   1   4
BRANCH   1  12
ATOM     12  C5  <0> d          -0.729   1.579   1.267  0.00  0.00     0.056 C 
ATOM     13  H1  <0> d          -1.776   1.277   1.232  0.00  0.00     0.086 H 
BRANCH  12  14
ATOM     14  C6  <0> d          -0.013   1.086   0.008  0.00  0.00     0.040 C 
ATOM     15  H9  <0> d           0.002  -0.004   0.002  0.00  0.00     0.077 H 
ATOM     16  H10 <0> d           1.010   1.463   0.000  0.00  0.00     0.077 H 
BRANCH  14  17
ATOM     17  O1  <0> d          -0.704   1.559  -1.150  0.00  0.00    -0.398 OA
ATOM     18  H11 <0> d          -0.304   1.284  -1.986  0.00  0.00     0.209 HD
ENDBRANCH  14  17
ENDBRANCH  12  14
BRANCH  12  19
ATOM     19  O2  <0> d          -0.647   3.004   1.334  0.00  0.00    -0.393 OA
ATOM     20  H12 <0> d           0.258   3.345   1.368  0.00  0.00     0.210 HD
ENDBRANCH  12  19
ENDBRANCH   1  12
TORSDOF 6
