REMARK  1 active torsions:
REMARK  status: ('A' for Active; 'I' for Inactive)
REMARK    1  A    between atoms: C3_3  and  N3_7 
ROOT
ATOM      1  C1  <0> d           1.180  -2.103  -0.021  0.00  0.00     0.027 A 
ATOM      2  C2  <0> d           1.225  -0.706  -0.013  0.00  0.00     0.107 A 
ATOM      3  C3  <0> d           0.002  -0.004   0.002  0.00  0.00     0.144 A 
ATOM      4  N1  <0> d          -1.132  -0.697   0.015  0.00  0.00    -0.223 NA
ATOM      5  C4  <0> d          -1.119  -2.014   0.002  0.00  0.00     0.088 A 
ATOM      6  N2  <0> d           0.004  -2.707  -0.013  0.00  0.00    -0.252 NA
ATOM      7  C5  <0> d           2.476  -0.009  -0.021  0.00  0.00     0.105 C 
ATOM      8  N4  <0> d           3.468   0.544  -0.027  0.00  0.00    -0.191 NA
ATOM      9  H1  <0> d           2.092  -2.681  -0.033  0.00  0.00     0.117 H 
ATOM     10  H2  <0> d          -2.060  -2.545   0.008  0.00  0.00     0.146 H 
ENDROOT
BRANCH   3  11
ATOM     11  N3  <0> d          -0.017   1.376   0.010  0.00  0.00    -0.383 N 
ATOM     12  H3  <0> d           0.817   1.872   0.004  0.00  0.00     0.157 HD
ATOM     13  H4  <0> d          -0.863   1.849   0.016  0.00  0.00     0.157 HD
ENDBRANCH   3  11
TORSDOF 1
