REMARK  2 active torsions:
REMARK  status: ('A' for Active; 'I' for Inactive)
REMARK    1  A    between atoms: C2_4  and  N5_7 
REMARK    2  A    between atoms: N3_5  and  N4_6 
ROOT
ATOM      1  C1  <0> d          -0.013   1.076   0.008  0.00  0.00     0.120 A 
ATOM      2  N1  <0> d          -1.072   1.834   0.017  0.00  0.00    -0.127 NA
ATOM      3  N2  <0> d          -0.729   3.072   0.025  0.00  0.00     0.044 NA
ATOM      4  C2  <0> d           0.580   3.172   0.014  0.00  0.00     0.734 A 
ATOM      5  N3  <0> d           1.078   1.901   0.002  0.00  0.00    -0.100 N 
ATOM      6  H1  <0> d           0.002  -0.004   0.002  0.00  0.00     0.149 H 
ENDROOT
BRANCH   4   7
ATOM      7  N5  <0> d           1.317   4.345   0.013  0.00  0.00    -0.230 N 
ATOM      8  H4  <0> d           2.286   4.309   0.003  0.00  0.00     0.174 HD
ATOM      9  H5  <0> d           0.863   5.203   0.022  0.00  0.00     0.174 HD
ENDBRANCH   4   7
BRANCH   5  10
ATOM     10  N4  <0> d           2.392   1.531  -0.013  0.00  0.00    -0.227 NA
ATOM     11  H2  <0> d           2.731   1.437  -0.958  0.00  0.00     0.144 HD
ATOM     12  H3  <0> d           2.957   2.182   0.511  0.00  0.00     0.144 HD
ENDBRANCH   5  10
TORSDOF 2
