REMARK  2 active torsions:
REMARK  status: ('A' for Active; 'I' for Inactive)
REMARK    1  A    between atoms: C1_1  and  C2_2 
REMARK    2  A    between atoms: C3_3  and  C5_8 
ROOT
ATOM      1  C2  <0> d          -0.704   3.281   0.025  0.00  0.00     0.084 A 
ATOM      2  C3  <0> d           0.619   3.300   0.013  0.00  0.00     0.084 A 
ATOM      3  O1  <0> d           1.059   2.018   0.003  0.00  0.00    -0.258 OA
ATOM      4  C4  <0> d          -0.014   1.212   0.009  0.00  0.00     0.416 A 
ATOM      5  O2  <0> d           0.002  -0.004   0.002  0.00  0.00    -0.229 OA
ATOM      6  O3  <0> d          -1.110   1.988   0.017  0.00  0.00    -0.258 OA
ENDROOT
BRANCH   1   7
ATOM      7  C1  <0> d          -1.605   4.490   0.039  0.00  0.00    -0.029 C 
ATOM      8  H1  <0> d          -1.831   4.786  -0.986  0.00  0.00     0.036 H 
ATOM      9  H2  <0> d          -2.530   4.247   0.560  0.00  0.00     0.036 H 
ATOM     10  H3  <0> d          -1.103   5.311   0.552  0.00  0.00     0.036 H 
ENDBRANCH   1   7
BRANCH   2  11
ATOM     11  C5  <0> d           1.486   4.532   0.011  0.00  0.00    -0.029 C 
ATOM     12  H4  <0> d           2.536   4.238  -0.000  0.00  0.00     0.036 H 
ATOM     13  H5  <0> d           1.267   5.129  -0.875  0.00  0.00     0.036 H 
ATOM     14  H6  <0> d           1.283   5.121   0.905  0.00  0.00     0.036 H 
ENDBRANCH   2  11
TORSDOF 2
