REMARK  8 active torsions:
REMARK  status: ('A' for Active; 'I' for Inactive)
REMARK    1  A    between atoms: C1_1  and  C2_2 
REMARK    2  A    between atoms: C2_2  and  O1_3 
REMARK    3  A    between atoms: O1_3  and  C3_4 
REMARK    4  A    between atoms: C3_4  and  C4_6 
REMARK    5  A    between atoms: C3_4  and  O4_11 
REMARK    6  A    between atoms: C4_6  and  O3_8 
REMARK    7  A    between atoms: O3_8  and  C5_9 
REMARK    8  A    between atoms: C5_9  and  C6_10 
ROOT
ATOM      1  C3  <0> d          -1.329   1.940   0.019  0.00  0.00     0.213 C 
ATOM      2  H1  <0> d          -1.651   2.123  -1.006  0.00  0.00     0.145 H 
ENDROOT
BRANCH   1   3
ATOM      3  O1  <0> d          -2.312   1.150   0.693  0.00  0.00    -0.353 OA
BRANCH   3   4
ATOM      4  C2  <0> d          -3.645   1.648   0.565  0.00  0.00     0.020 C 
ATOM      5  H5  <0> d          -3.699   2.654   0.983  0.00  0.00     0.073 H 
ATOM      6  H6  <0> d          -3.923   1.677  -0.488  0.00  0.00     0.073 H 
BRANCH   4   7
ATOM      7  C1  <0> d          -4.607   0.730   1.322  0.00  0.00    -0.056 C 
ATOM      8  H2  <0> d          -5.624   1.110   1.225  0.00  0.00     0.030 H 
ATOM      9  H3  <0> d          -4.553  -0.276   0.905  0.00  0.00     0.030 H 
ATOM     10  H4  <0> d          -4.329   0.701   2.376  0.00  0.00     0.030 H 
ENDBRANCH   4   7
ENDBRANCH   3   4
ENDBRANCH   1   3
BRANCH   1  11
ATOM     11  C4  <0> d          -0.014   1.204   0.009  0.00  0.00     0.314 C 
ATOM     12  O2  <0> d           0.002  -0.004   0.002  0.00  0.00    -0.260 OA
BRANCH  11  13
ATOM     13  O3  <0> d           1.139   1.891   0.001  0.00  0.00    -0.318 OA
BRANCH  13  14
ATOM     14  C5  <0> d           2.367   1.117  -0.015  0.00  0.00     0.026 C 
ATOM     15  H7  <0> d           2.409   0.484   0.872  0.00  0.00     0.074 H 
ATOM     16  H8  <0> d           2.392   0.493  -0.908  0.00  0.00     0.074 H 
BRANCH  14  17
ATOM     17  C6  <0> d           3.568   2.065  -0.021  0.00  0.00    -0.056 C 
ATOM     18  H9  <0> d           4.490   1.484  -0.033  0.00  0.00     0.030 H 
ATOM     19  H10 <0> d           3.526   2.698  -0.907  0.00  0.00     0.030 H 
ATOM     20  H11 <0> d           3.543   2.689   0.873  0.00  0.00     0.030 H 
ENDBRANCH  14  17
ENDBRANCH  13  14
ENDBRANCH  11  13
ENDBRANCH   1  11
BRANCH   1  21
ATOM     21  O4  <0> d          -1.172   3.187   0.699  0.00  0.00    -0.363 OA
ATOM     22  H12 <0> d          -0.887   3.100   1.618  0.00  0.00     0.213 HD
ENDBRANCH   1  21
TORSDOF 8
