REMARK  1 active torsions:
REMARK  status: ('A' for Active; 'I' for Inactive)
REMARK    1  A    between atoms: C6_6  and  O1_7 
ROOT
ATOM      1  C1  <0> d          -0.013   1.076   0.008  0.00  0.00    -0.051 A 
ATOM      2  C2  <0> d           1.173   1.784   0.000  0.00  0.00    -0.074 A 
ATOM      3  C3  <0> d           1.159   3.168   0.008  0.00  0.00    -0.052 A 
ATOM      4  C4  <0> d          -0.046   3.847   0.022  0.00  0.00    -0.049 A 
ATOM      5  C5  <0> d          -1.235   3.140   0.031  0.00  0.00    -0.044 A 
ATOM      6  C6  <0> d          -1.222   1.754   0.017  0.00  0.00     0.066 A 
ATOM      7  C7  <0> d           0.208   5.340   0.027  0.00  0.00    -0.040 C 
ATOM      8  C8  <0> d           1.674   5.502  -0.427  0.00  0.00    -0.058 C 
ATOM      9  C9  <0> d           2.304   4.159   0.001  0.00  0.00    -0.040 C 
ATOM     10  H1  <0> d           0.002  -0.004   0.002  0.00  0.00     0.087 H 
ATOM     11  H2  <0> d           2.114   1.255  -0.011  0.00  0.00     0.084 H 
ATOM     12  H3  <0> d          -2.176   3.670   0.042  0.00  0.00     0.088 H 
ATOM     13  H5  <0> d          -0.462   5.839  -0.672  0.00  0.00     0.040 H 
ATOM     14  H6  <0> d           0.076   5.742   1.031  0.00  0.00     0.040 H 
ATOM     15  H7  <0> d           1.733   5.630  -1.508  0.00  0.00     0.033 H 
ATOM     16  H8  <0> d           2.150   6.335   0.090  0.00  0.00     0.033 H 
ATOM     17  H9  <0> d           2.736   4.245   0.999  0.00  0.00     0.040 H 
ATOM     18  H10 <0> d           3.066   3.853  -0.716  0.00  0.00     0.040 H 
ENDROOT
BRANCH   6  19
ATOM     19  O1  <0> d          -2.392   1.062   0.019  0.00  0.00    -0.361 OA
ATOM     20  H4  <0> d          -2.726   0.857   0.903  0.00  0.00     0.217 HD
ENDBRANCH   6  19
TORSDOF 1
