REMARK  1 active torsions:
REMARK  status: ('A' for Active; 'I' for Inactive)
REMARK    1  A    between atoms: C2_2  and  C5_8 
ROOT
ATOM      1  C1  <0> d          -1.488   2.868  -0.622  0.00  0.00     0.023 C 
ATOM      2  C2  <0> d          -0.798   1.617  -1.212  0.00  0.00     0.054 C 
ATOM      3  H1  <0> d          -1.535   0.887  -1.549  0.00  0.00     0.059 H 
ATOM      4  C3  <0> d          -0.013   1.086   0.008  0.00  0.00     0.008 C 
ATOM      5  N1  <0> d          -0.737   1.577   1.186  0.00  0.00    -0.360 N 
ATOM      6  C4  <0> d          -1.570   2.583   0.861  0.00  0.00     0.218 C 
ATOM      7  O1  <0> d          -2.283   3.174   1.644  0.00  0.00    -0.274 OA
ATOM      8  H2  <0> d          -0.887   3.758  -0.806  0.00  0.00     0.048 H 
ATOM      9  H3  <0> d          -2.487   2.987  -1.043  0.00  0.00     0.048 H 
ATOM     10  H4  <0> d           0.002  -0.004   0.002  0.00  0.00     0.065 H 
ATOM     11  H5  <0> d           1.005   1.476   0.000  0.00  0.00     0.065 H 
ATOM     12  H6  <0> d          -0.628   1.223   2.083  0.00  0.00     0.162 HD
ENDROOT
BRANCH   2  13
ATOM     13  C5  <0> d           0.136   1.993  -2.333  0.00  0.00     0.179 C 
ATOM     14  O2  <0> d           1.329   1.859  -2.196  0.00  0.00    -0.648 OA
ATOM     15  O3  <0> d          -0.357   2.477  -3.484  0.00  0.00    -0.648 OA
ENDBRANCH   2  13
TORSDOF 1
