REMARK  2 active torsions:
REMARK  status: ('A' for Active; 'I' for Inactive)
REMARK    1  A    between atoms: C1_1  and  N1_2 
REMARK       I    between atoms: N1_2  and  C2_3 
REMARK       I    between atoms: C2_3  and  N2_5 
REMARK    2  A    between atoms: N2_5  and  C3_6 
ROOT
ATOM      1  C3  <0> d          -1.228   3.135   0.023  0.00  0.00     0.039 A 
ATOM      2  C4  <0> d          -1.102   1.963  -0.721  0.00  0.00    -0.040 A 
ATOM      3  C5  <0> d           0.101   1.288  -0.711  0.00  0.00     0.004 A 
ATOM      4  N3  <0> d           1.127   1.745  -0.018  0.00  0.00    -0.273 NA
ATOM      5  C6  <0> d           1.049   2.853   0.695  0.00  0.00     0.004 A 
ATOM      6  C7  <0> d          -0.120   3.583   0.741  0.00  0.00    -0.040 A 
ATOM      7  H6  <0> d          -1.937   1.586  -1.294  0.00  0.00     0.089 H 
ATOM      8  H7  <0> d           0.206   0.377  -1.282  0.00  0.00     0.114 H 
ATOM      9  H8  <0> d           1.912   3.192   1.248  0.00  0.00     0.114 H 
ATOM     10  H9  <0> d          -0.177   4.489   1.326  0.00  0.00     0.089 H 
ENDROOT
BRANCH   1  11
ATOM     11  N2  <0> d          -2.429   3.844   0.044  0.00  0.00    -0.309 N 
ATOM     12  C2  <0> d          -3.602   3.187  -0.050  0.00  0.00     0.320 C 
ATOM     13  N1  <0> d          -4.756   3.877  -0.138  0.00  0.00    -0.347 N 
ATOM     14  O1  <0> d          -3.618   1.971  -0.056  0.00  0.00    -0.247 OA
ATOM     15  H4  <0> d          -4.743   4.847  -0.134  0.00  0.00     0.163 HD
ATOM     16  H5  <0> d          -2.420   4.811   0.126  0.00  0.00     0.170 HD
BRANCH  13  17
ATOM     17  C1  <0> d          -6.031   3.162  -0.240  0.00  0.00    -0.017 C 
ATOM     18  H1  <0> d          -6.847   3.882  -0.301  0.00  0.00     0.056 H 
ATOM     19  H2  <0> d          -6.027   2.539  -1.135  0.00  0.00     0.056 H 
ATOM     20  H3  <0> d          -6.166   2.533   0.639  0.00  0.00     0.056 H 
ENDBRANCH  13  17
ENDBRANCH   1  11
TORSDOF 2
