REMARK  0 active torsions:
REMARK  status: ('A' for Active; 'I' for Inactive)
ROOT
ATOM      1  C1  <0> d           1.113   2.086   0.003  0.00  0.00    -0.018 A 
ATOM      2  C2  <0> d          -0.016   1.347   0.009  0.00  0.00    -0.019 A 
ATOM      3  N1  <0> d           0.002  -0.004   0.002  0.00  0.00    -0.365 N 
ATOM      4  H1  <0> d          -0.943  -0.567   0.008  0.00  0.00     0.165 HD
ATOM      5  C3  <0> d           1.194  -0.727  -0.013  0.00  0.00     0.053 A 
ATOM      6  C4  <0> d           1.356  -2.116  -0.023  0.00  0.00    -0.049 A 
ATOM      7  C5  <0> d           2.594  -2.658  -0.038  0.00  0.00    -0.042 A 
ATOM      8  S1  <0> d           3.648  -1.217  -0.040  0.00  0.00    -0.096 SA
ATOM      9  C6  <0> d           2.376   0.020  -0.021  0.00  0.00     0.081 A 
ATOM     10  C7  <0> d           2.365   1.420  -0.013  0.00  0.00     0.192 A 
ATOM     11  O1  <0> d           3.411   2.054  -0.020  0.00  0.00    -0.287 OA
ATOM     12  H2  <0> d           1.063   3.164   0.009  0.00  0.00     0.091 H 
ATOM     13  H3  <0> d          -0.970   1.853   0.017  0.00  0.00     0.111 H 
ATOM     14  H4  <0> d           0.488  -2.759  -0.018  0.00  0.00     0.087 H 
ATOM     15  H5  <0> d           2.875  -3.700  -0.047  0.00  0.00     0.095 H 
ENDROOT
TORSDOF 0
