REMARK  3 active torsions:
REMARK  status: ('A' for Active; 'I' for Inactive)
REMARK    1  A    between atoms: N3_6  and  C3_7 
REMARK    2  A    between atoms: C3_7  and  C4_8 
REMARK    3  A    between atoms: C4_8  and  O1_9 
ROOT
ATOM      1  C1  <0> d          -2.009   1.177   1.370  0.00  0.00     0.167 C 
ATOM      2  N1  <0> d          -2.626   1.915   2.484  0.00  0.00    -0.228 NA
ATOM      3  S1  <0> d          -1.877   1.429   4.013  0.00  0.00     0.007 SA
ATOM      4  N2  <0> d          -0.147   1.580   3.667  0.00  0.00    -0.228 NA
ATOM      5  C2  <0> d           0.173   0.882   2.411  0.00  0.00     0.167 C 
ATOM      6  N3  <0> d          -0.578   1.483   1.305  0.00  0.00     0.117 N 
ATOM      7  H1  <0> d          -2.491   1.474   0.426  0.00  0.00     0.104 H 
ATOM      8  H2  <0> d          -2.147   0.097   1.528  0.00  0.00     0.104 H 
ATOM      9  H3  <0> d          -3.624   1.767   2.507  0.00  0.00     0.138 HD
ATOM     10  H4  <0> d           0.407   1.223   4.430  0.00  0.00     0.138 HD
ATOM     11  H5  <0> d           1.251   0.968   2.208  0.00  0.00     0.104 H 
ATOM     12  H6  <0> d          -0.100  -0.180   2.501  0.00  0.00     0.104 H 
ENDROOT
BRANCH   6  13
ATOM     13  C3  <0> d          -0.013   1.086   0.008  0.00  0.00     0.135 C 
ATOM     14  H7  <0> d          -0.550   1.604  -0.800  0.00  0.00     0.083 H 
ATOM     15  H8  <0> d           1.053   1.358  -0.026  0.00  0.00     0.083 H 
BRANCH  13  16
ATOM     16  C4  <0> d          -0.159  -0.427  -0.171  0.00  0.00     0.042 C 
ATOM     17  H9  <0> d           0.372  -0.741  -1.081  0.00  0.00     0.076 H 
ATOM     18  H10 <0> d           0.270  -0.942   0.701  0.00  0.00     0.076 H 
BRANCH  16  19
ATOM     19  O1  <0> d          -1.544  -0.761  -0.287  0.00  0.00    -0.399 OA
ATOM     20  H11 <0> d          -1.847  -1.809  -0.422  0.00  0.00     0.209 HD
ENDBRANCH  16  19
ENDBRANCH  13  16
ENDBRANCH   6  13
TORSDOF 3
