REMARK  2 active torsions:
REMARK  status: ('A' for Active; 'I' for Inactive)
REMARK    1  A    between atoms: C1_1  and  N1_2 
REMARK    2  A    between atoms: C4_5  and  N3_7 
ROOT
ATOM      1  N1  <0> d          -0.698   1.558   1.213  0.00  0.00    -0.282 N 
ATOM      2  C2  <0> d          -2.021   1.809   1.327  0.00  0.00     0.023 A 
ATOM      3  C3  <0> d          -2.257   2.224   2.593  0.00  0.00     0.098 A 
ATOM      4  C4  <0> d          -1.030   2.234   3.278  0.00  0.00     0.164 A 
ATOM      5  N2  <0> d          -0.097   1.834   2.448  0.00  0.00    -0.154 NA
ATOM      6 Cl1  <0> d          -3.800   2.669   3.252  0.00  0.00    -0.079 Cl
ATOM      7  H4  <0> d          -2.759   1.698   0.546  0.00  0.00     0.117 H 
ENDROOT
BRANCH   1   8
ATOM      8  C1  <0> d          -0.013   1.086   0.008  0.00  0.00     0.002 C 
ATOM      9  H1  <0> d           0.002  -0.004   0.002  0.00  0.00     0.059 H 
ATOM     10  H2  <0> d           1.010   1.463   0.000  0.00  0.00     0.059 H 
ATOM     11  H3  <0> d          -0.540   1.447  -0.875  0.00  0.00     0.059 H 
ENDBRANCH   1   8
BRANCH   4  12
ATOM     12  N3  <0> d          -0.838   2.606   4.614  0.00  0.00    -0.381 N 
ATOM     13  H5  <0> d           0.051   2.581   5.002  0.00  0.00     0.157 HD
ATOM     14  H6  <0> d          -1.594   2.889   5.153  0.00  0.00     0.157 HD
ENDBRANCH   4  12
TORSDOF 2
