REMARK  1 active torsions:
REMARK  status: ('A' for Active; 'I' for Inactive)
REMARK    1  A    between atoms: C4_5  and  N3_7 
ROOT
ATOM      1  C1  <0> d          -0.016   1.323   0.009  0.00  0.00     0.031 A 
ATOM      2  C2  <0> d           1.178   2.005   0.002  0.00  0.00     0.016 A 
ATOM      3  C3  <0> d           2.378   1.295  -0.007  0.00  0.00     0.191 A 
ATOM      4  N1  <0> d           2.319  -0.036  -0.019  0.00  0.00    -0.038 NA
ATOM      5  C4  <0> d           1.153  -0.661  -0.014  0.00  0.00     0.722 A 
ATOM      6  N2  <0> d           0.002  -0.004   0.002  0.00  0.00    -0.075 NA
ATOM      7  O1  <0> d           3.443   2.133   0.011  0.00  0.00    -0.333 OA
ATOM      8  C5  <0> d           3.026   3.442  -0.413  0.00  0.00     0.031 C 
ATOM      9  C6  <0> d           1.533   3.476  -0.005  0.00  0.00    -0.015 C 
ATOM     10  H1  <0> d          -0.954   1.858   0.026  0.00  0.00     0.116 H 
ATOM     11  H4  <0> d           3.587   4.215   0.113  0.00  0.00     0.075 H 
ATOM     12  H5  <0> d           3.134   3.552  -1.492  0.00  0.00     0.075 H 
ATOM     13  H6  <0> d           0.940   4.016  -0.743  0.00  0.00     0.043 H 
ATOM     14  H7  <0> d           1.409   3.911   0.987  0.00  0.00     0.043 H 
ENDROOT
BRANCH   5  15
ATOM     15  N3  <0> d           1.134  -2.045  -0.027  0.00  0.00    -0.231 N 
ATOM     16  H2  <0> d           1.967  -2.541  -0.039  0.00  0.00     0.174 HD
ATOM     17  H3  <0> d           0.287  -2.519  -0.023  0.00  0.00     0.174 HD
ENDBRANCH   5  15
TORSDOF 1
