REMARK  4 active torsions:
REMARK  status: ('A' for Active; 'I' for Inactive)
REMARK    1  A    between atoms: C1_1  and  N1_2 
REMARK    2  A    between atoms: N1_2  and  C2_3 
REMARK    3  A    between atoms: C6_7  and  N2_9 
REMARK    4  A    between atoms: N2_9  and  C8_10 
ROOT
ATOM      1  C2  <0> d           1.160   3.171   0.008  0.00  0.00     0.029 A 
ATOM      2  C3  <0> d           1.175   1.781   0.000  0.00  0.00    -0.057 A 
ATOM      3  C4  <0> d          -0.013   1.076   0.008  0.00  0.00    -0.079 A 
ATOM      4  C5  <0> d          -1.219   1.749   0.017  0.00  0.00    -0.057 A 
ATOM      5  C6  <0> d          -1.242   3.138   0.030  0.00  0.00     0.029 A 
ATOM      6  C7  <0> d          -0.050   3.850   0.023  0.00  0.00    -0.032 A 
ATOM      7  H5  <0> d           2.117   1.252  -0.011  0.00  0.00     0.086 H 
ATOM      8  H6  <0> d           0.002  -0.004   0.002  0.00  0.00     0.083 H 
ATOM      9  H7  <0> d          -2.146   1.194   0.019  0.00  0.00     0.086 H 
ATOM     10  H8  <0> d          -0.065   4.930   0.029  0.00  0.00     0.090 H 
ENDROOT
BRANCH   1  11
ATOM     11  N1  <0> d           2.361   3.883   0.001  0.00  0.00    -0.394 N 
ATOM     12  H4  <0> d           2.350   4.853   0.007  0.00  0.00     0.159 HD
BRANCH  11  13
ATOM     13  C1  <0> d           3.638   3.166  -0.014  0.00  0.00    -0.021 C 
ATOM     14  H1  <0> d           4.459   3.884  -0.017  0.00  0.00     0.056 H 
ATOM     15  H2  <0> d           3.711   2.535   0.872  0.00  0.00     0.056 H 
ATOM     16  H3  <0> d           3.696   2.545  -0.908  0.00  0.00     0.056 H 
ENDBRANCH  11  13
ENDBRANCH   1  11
BRANCH   5  17
ATOM     17  N2  <0> d          -2.462   3.818   0.045  0.00  0.00    -0.394 N 
ATOM     18  H9  <0> d          -2.477   4.787   0.050  0.00  0.00     0.159 HD
BRANCH  17  19
ATOM     19  C8  <0> d          -3.719   3.066   0.052  0.00  0.00    -0.021 C 
ATOM     20  H10 <0> d          -4.558   3.761   0.064  0.00  0.00     0.056 H 
ATOM     21  H11 <0> d          -3.775   2.443  -0.841  0.00  0.00     0.056 H 
ATOM     22  H12 <0> d          -3.759   2.433   0.939  0.00  0.00     0.056 H 
ENDBRANCH  17  19
ENDBRANCH   5  17
TORSDOF 4
