REMARK  3 active torsions:
REMARK  status: ('A' for Active; 'I' for Inactive)
REMARK    1  A    between atoms: C1_1  and  C2_2 
REMARK    2  A    between atoms: C4_4  and  C8_9 
REMARK    3  A    between atoms: C6_6  and  C7_8 
ROOT
ATOM      1  C2  <0> d          -3.702   1.951   0.031  0.00  0.00     0.032 A 
ATOM      2  C3  <0> d          -2.519   1.237   0.021  0.00  0.00    -0.043 A 
ATOM      3  C4  <0> d          -1.306   1.933   0.019  0.00  0.00     0.044 A 
ATOM      4  C5  <0> d          -1.348   3.331   0.032  0.00  0.00    -0.043 A 
ATOM      5  C6  <0> d          -2.576   3.964   0.037  0.00  0.00     0.032 A 
ATOM      6  N1  <0> d          -3.696   3.269   0.038  0.00  0.00    -0.259 NA
ATOM      7  H4  <0> d          -2.532   0.157   0.014  0.00  0.00     0.088 H 
ATOM      8  H5  <0> d          -0.434   3.906   0.035  0.00  0.00     0.088 H 
ENDROOT
BRANCH   1   9
ATOM      9  C1  <0> d          -5.016   1.214   0.033  0.00  0.00    -0.035 C 
ATOM     10  H1  <0> d          -5.327   1.030   1.062  0.00  0.00     0.035 H 
ATOM     11  H2  <0> d          -5.771   1.815  -0.473  0.00  0.00     0.035 H 
ATOM     12  H3  <0> d          -4.900   0.263  -0.486  0.00  0.00     0.035 H 
ENDBRANCH   1   9
BRANCH   5  13
ATOM     13  C7  <0> d          -2.635   5.470   0.045  0.00  0.00    -0.035 C 
ATOM     14  H6  <0> d          -2.645   5.827   1.075  0.00  0.00     0.035 H 
ATOM     15  H7  <0> d          -1.763   5.871  -0.470  0.00  0.00     0.035 H 
ATOM     16  H8  <0> d          -3.541   5.801  -0.463  0.00  0.00     0.035 H 
ENDBRANCH   5  13
BRANCH   3  17
ATOM     17  C8  <0> d          -0.014   1.210   0.009  0.00  0.00     0.209 C 
ATOM     18  O1  <0> d           0.002  -0.004   0.002  0.00  0.00    -0.644 OA
ATOM     19  O2  <0> d           1.143   1.899   0.001  0.00  0.00    -0.644 OA
ENDBRANCH   3  17
TORSDOF 3
