REMARK  4 active torsions:
REMARK  status: ('A' for Active; 'I' for Inactive)
REMARK    1  A    between atoms: C3_4  and  N3_9 
REMARK    2  A    between atoms: N2_5  and  C4_6 
REMARK    3  A    between atoms: C4_6  and  C5_7 
REMARK    4  A    between atoms: C5_7  and  O1_8 
ROOT
ATOM      1  C1  <0> d          -3.370   2.106   0.030  0.00  0.00     0.069 A 
ATOM      2  N1  <0> d          -2.741   3.244   0.034  0.00  0.00    -0.229 NA
ATOM      3  C2  <0> d          -1.401   3.015   0.031  0.00  0.00     0.181 A 
ATOM      4  C3  <0> d          -1.217   1.641   0.017  0.00  0.00     0.142 A 
ATOM      5  N2  <0> d          -2.465   1.086   0.020  0.00  0.00    -0.324 N 
ATOM      6  C6  <0> d          -0.370   4.009   0.039  0.00  0.00     0.123 C 
ATOM      7  N4  <0> d           0.448   4.797   0.046  0.00  0.00    -0.190 NA
ATOM      8  H1  <0> d          -4.443   1.987   0.035  0.00  0.00     0.143 H 
ENDROOT
BRANCH   4   9
ATOM      9  N3  <0> d          -0.011   0.966   0.007  0.00  0.00    -0.383 N 
ATOM     10  H7  <0> d           0.002  -0.004   0.002  0.00  0.00     0.157 HD
ATOM     11  H8  <0> d           0.822   1.462   0.002  0.00  0.00     0.157 HD
ENDBRANCH   4   9
BRANCH   5  12
ATOM     12  C4  <0> d          -2.775  -0.346   0.013  0.00  0.00     0.022 C 
ATOM     13  H2  <0> d          -3.764  -0.501  -0.417  0.00  0.00     0.068 H 
ATOM     14  H3  <0> d          -2.032  -0.876  -0.583  0.00  0.00     0.068 H 
BRANCH  12  15
ATOM     15  C5  <0> d          -2.753  -0.878   1.447  0.00  0.00     0.032 C 
ATOM     16  H4  <0> d          -1.764  -0.723   1.878  0.00  0.00     0.076 H 
ATOM     17  H5  <0> d          -3.496  -0.348   2.043  0.00  0.00     0.076 H 
BRANCH  15  18
ATOM     18  O1  <0> d          -3.055  -2.275   1.441  0.00  0.00    -0.399 OA
ATOM     19  H6  <0> d          -3.059  -2.681   2.319  0.00  0.00     0.209 HD
ENDBRANCH  15  18
ENDBRANCH  12  15
ENDBRANCH   5  12
TORSDOF 4
