REMARK  0 active torsions:
REMARK  status: ('A' for Active; 'I' for Inactive)
ROOT
ATOM      1  C1  <0> d           1.154   3.055   0.007  0.00  0.00     0.044 A 
ATOM      2  C2  <0> d          -0.046   3.751   0.022  0.00  0.00     0.174 A 
ATOM      3  C3  <0> d          -1.231   3.024   0.029  0.00  0.00     0.167 A 
ATOM      4  N1  <0> d          -1.173   1.701   0.017  0.00  0.00    -0.227 NA
ATOM      5  C4  <0> d          -0.013   1.076   0.008  0.00  0.00     0.088 A 
ATOM      6  N2  <0> d           1.130   1.732   0.001  0.00  0.00    -0.251 NA
ATOM      7 Cl1  <0> d          -2.764   3.838   0.047  0.00  0.00    -0.059 Cl
ATOM      8  F1  <0> d          -0.064   5.102   0.029  0.00  0.00    -0.201 F 
ATOM      9  H1  <0> d           2.094   3.586   0.001  0.00  0.00     0.119 H 
ATOM     10  H2  <0> d           0.002  -0.004   0.002  0.00  0.00     0.146 H 
ENDROOT
TORSDOF 0
