REMARK  7 active torsions:
REMARK  status: ('A' for Active; 'I' for Inactive)
REMARK    1  A    between atoms: C1_1  and  C2_2 
REMARK    2  A    between atoms: C2_2  and  O1_3 
REMARK    3  A    between atoms: O1_3  and  C3_4 
REMARK    4  A    between atoms: C3_4  and  C4_6 
REMARK    5  A    between atoms: C4_6  and  C5_8 
REMARK    6  A    between atoms: C4_6  and  O3_9 
REMARK    7  A    between atoms: O3_9  and  C6_10 
ROOT
ATOM      1  C4  <0> d          -1.329   1.940   0.019  0.00  0.00     0.118 C 
ATOM      2  H1  <0> d          -1.400   2.570  -0.867  0.00  0.00     0.098 H 
ENDROOT
BRANCH   1   3
ATOM      3  C3  <0> d          -0.014   1.204   0.009  0.00  0.00     0.287 C 
ATOM      4  O2  <0> d           0.002  -0.004   0.002  0.00  0.00    -0.262 OA
BRANCH   3   5
ATOM      5  O1  <0> d           1.139   1.891   0.001  0.00  0.00    -0.320 OA
BRANCH   5   6
ATOM      6  C2  <0> d           2.367   1.117  -0.015  0.00  0.00     0.026 C 
ATOM      7  H5  <0> d           2.409   0.484   0.872  0.00  0.00     0.074 H 
ATOM      8  H6  <0> d           2.392   0.493  -0.908  0.00  0.00     0.074 H 
BRANCH   6   9
ATOM      9  C1  <0> d           3.568   2.065  -0.021  0.00  0.00    -0.056 C 
ATOM     10  H2  <0> d           4.490   1.484  -0.033  0.00  0.00     0.030 H 
ATOM     11  H3  <0> d           3.526   2.698  -0.907  0.00  0.00     0.030 H 
ATOM     12  H4  <0> d           3.543   2.689   0.873  0.00  0.00     0.030 H 
ENDBRANCH   6   9
ENDBRANCH   5   6
ENDBRANCH   3   5
ENDBRANCH   1   3
BRANCH   1  13
ATOM     13  C5  <0> d          -1.417   2.811   1.273  0.00  0.00    -0.043 C 
ATOM     14  H7  <0> d          -0.598   3.531   1.273  0.00  0.00     0.031 H 
ATOM     15  H8  <0> d          -2.368   3.344   1.281  0.00  0.00     0.031 H 
ATOM     16  H9  <0> d          -1.346   2.181   2.160  0.00  0.00     0.031 H 
ENDBRANCH   1  13
BRANCH   1  17
ATOM     17  O3  <0> d          -2.403   0.997   0.019  0.00  0.00    -0.381 OA
BRANCH  17  18
ATOM     18  C6  <0> d          -3.589   1.466  -0.626  0.00  0.00     0.005 C 
ATOM     19  H10 <0> d          -4.356   0.692  -0.583  0.00  0.00     0.066 H 
ATOM     20  H11 <0> d          -3.948   2.361  -0.119  0.00  0.00     0.066 H 
ATOM     21  H12 <0> d          -3.368   1.701  -1.667  0.00  0.00     0.066 H 
ENDBRANCH  17  18
ENDBRANCH   1  17
TORSDOF 7
