REMARK  3 active torsions:
REMARK  status: ('A' for Active; 'I' for Inactive)
REMARK    1  A    between atoms: C1_1  and  C2_2 
REMARK    2  A    between atoms: C2_2  and  C3_3 
REMARK    3  A    between atoms: C3_3  and  C8_9 
ROOT
ATOM      1  C3  <0> d          -0.019   1.527   0.010  0.00  0.00     0.057 C 
ATOM      2  C4  <0> d           0.002  -0.004   0.002  0.00  0.00    -0.036 C 
ATOM      3  C5  <0> d           0.796  -0.503   1.214  0.00  0.00    -0.060 C 
ATOM      4  C6  <0> d           2.204   0.098   1.170  0.00  0.00    -0.045 C 
ATOM      5  C7  <0> d           2.098   1.625   1.133  0.00  0.00     0.021 C 
ATOM      6  O1  <0> d           1.323   2.020   0.000  0.00  0.00    -0.381 OA
ATOM      7  H6  <0> d          -1.019  -0.383   0.054  0.00  0.00     0.037 H 
ATOM      8  H7  <0> d           0.475  -0.357  -0.914  0.00  0.00     0.037 H 
ATOM      9  H8  <0> d           0.295  -0.192   2.131  0.00  0.00     0.033 H 
ATOM     10  H9  <0> d           0.862  -1.590   1.183  0.00  0.00     0.033 H 
ATOM     11  H10 <0> d           2.758  -0.208   2.058  0.00  0.00     0.036 H 
ATOM     12  H11 <0> d           2.722  -0.253   0.278  0.00  0.00     0.036 H 
ATOM     13  H12 <0> d           1.616   1.978   2.045  0.00  0.00     0.074 H 
ATOM     14  H13 <0> d           3.096   2.057   1.060  0.00  0.00     0.074 H 
ENDROOT
BRANCH   1  15
ATOM     15  C2  <0> d          -0.758   2.034  -1.229  0.00  0.00    -0.040 C 
ATOM     16  H4  <0> d          -0.248   1.682  -2.126  0.00  0.00     0.036 H 
ATOM     17  H5  <0> d          -1.781   1.657  -1.222  0.00  0.00     0.036 H 
BRANCH  15  18
ATOM     18  C1  <0> d          -0.779   3.564  -1.221  0.00  0.00    -0.074 C 
ATOM     19  H1  <0> d          -1.289   3.915  -0.324  0.00  0.00     0.027 H 
ATOM     20  H2  <0> d           0.244   3.941  -1.228  0.00  0.00     0.027 H 
ATOM     21  H3  <0> d          -1.306   3.925  -2.104  0.00  0.00     0.027 H 
ENDBRANCH  15  18
ENDBRANCH   1  15
BRANCH   1  22
ATOM     22  C8  <0> d          -0.734   2.020   1.269  0.00  0.00    -0.048 C 
ATOM     23  H14 <0> d          -0.207   1.659   2.152  0.00  0.00     0.031 H 
ATOM     24  H15 <0> d          -0.749   3.110   1.275  0.00  0.00     0.031 H 
ATOM     25  H16 <0> d          -1.757   1.643   1.278  0.00  0.00     0.031 H 
ENDBRANCH   1  22
TORSDOF 3
