REMARK  1 active torsions:
REMARK  status: ('A' for Active; 'I' for Inactive)
REMARK    1  A    between atoms: C1_1  and  C2_2 
ROOT
ATOM      1  C2  <0> d           1.289   4.426   0.014  0.00  0.00     0.084 A 
ATOM      2  C3  <0> d           0.653   3.172   0.013  0.00  0.00     0.116 A 
ATOM      3  C4  <0> d          -0.744   3.111   0.026  0.00  0.00     0.136 A 
ATOM      4  C5  <0> d          -1.493   4.366   0.040  0.00  0.00     0.314 A 
ATOM      5  O1  <0> d          -2.712   4.366   0.052  0.00  0.00    -0.262 OA
ATOM      6  N1  <0> d          -0.802   5.527   0.039  0.00  0.00    -0.105 NA
ATOM      7  N2  <0> d           0.595   5.528   0.027  0.00  0.00    -0.149 NA
ATOM      8  N3  <0> d          -1.089   1.810   0.017  0.00  0.00    -0.344 N 
ATOM      9  C6  <0> d          -0.013   1.076   0.008  0.00  0.00     0.065 A 
ATOM     10  N4  <0> d           1.090   1.873   0.002  0.00  0.00    -0.239 NA
ATOM     11  H1  <0> d          -2.151   1.523   0.017  0.00  0.00     0.167 HD
ATOM     12  H5  <0> d           0.090   0.081   0.006  0.00  0.00     0.143 H 
ENDROOT
BRANCH   1  13
ATOM     13  C1  <0> d           2.795   4.496  -0.000  0.00  0.00    -0.032 C 
ATOM     14  H2  <0> d           3.209   3.477  -0.010  0.00  0.00     0.035 H 
ATOM     15  H3  <0> d           3.145   5.026   0.898  0.00  0.00     0.035 H 
ATOM     16  H4  <0> d           3.128   5.036  -0.898  0.00  0.00     0.035 H 
ENDBRANCH   1  13
TORSDOF 1
