REMARK  1 active torsions:
REMARK  status: ('A' for Active; 'I' for Inactive)
REMARK    1  A    between atoms: C1_1  and  C2_2 
ROOT
ATOM      1  C2  <0> d           0.002  -0.004   0.002  0.00  0.00     0.142 A 
ATOM      2  N1  <0> d           1.226  -0.439  -0.012  0.00  0.00    -0.226 NA
ATOM      3  C3  <0> d           2.070   0.629  -0.014  0.00  0.00     0.094 A 
ATOM      4  C4  <0> d           3.457   0.761  -0.027  0.00  0.00    -0.032 A 
ATOM      5  C5  <0> d           4.024   2.033  -0.026  0.00  0.00     0.047 A 
ATOM      6  C6  <0> d           3.202   3.168  -0.012  0.00  0.00    -0.060 A 
ATOM      7  C7  <0> d           1.843   3.039  -0.000  0.00  0.00    -0.046 A 
ATOM      8  C8  <0> d           1.261   1.778  -0.000  0.00  0.00     0.106 A 
ATOM      9  O1  <0> d          -0.016   1.338   0.009  0.00  0.00    -0.294 OA
ATOM     10  C9  <0> d           5.448   2.181  -0.039  0.00  0.00     0.099 C 
ATOM     11  N2  <0> d           6.578   2.298  -0.049  0.00  0.00    -0.191 NA
ATOM     12  H4  <0> d           4.087  -0.116  -0.038  0.00  0.00     0.089 H 
ATOM     13  H5  <0> d           3.648   4.152  -0.012  0.00  0.00     0.086 H 
ATOM     14  H6  <0> d           1.219   3.920   0.010  0.00  0.00     0.087 H 
ENDROOT
BRANCH   1  15
ATOM     15  C1  <0> d          -1.223  -0.882   0.010  0.00  0.00    -0.015 C 
ATOM     16  H1  <0> d          -0.917  -1.938   0.001  0.00  0.00     0.038 H 
ATOM     17  H2  <0> d          -1.832  -0.669  -0.881  0.00  0.00     0.038 H 
ATOM     18  H3  <0> d          -1.814  -0.678   0.915  0.00  0.00     0.038 H 
ENDBRANCH   1  15
TORSDOF 1
