REMARK  4 active torsions:
REMARK  status: ('A' for Active; 'I' for Inactive)
REMARK    1  A    between atoms: C1_1  and  C2_2 
REMARK    2  A    between atoms: C2_2  and  C3_3 
REMARK    3  A    between atoms: C3_3  and  N1_4 
REMARK    4  A    between atoms: C5_6  and  N2_11 
ROOT
ATOM      1  N1  <0> d          -0.020   1.094   2.454  0.00  0.00    -0.323 N 
ATOM      2  C4  <0> d           0.975   1.846   2.997  0.00  0.00     0.008 A 
ATOM      3  C5  <0> d           1.645   1.415   4.098  0.00  0.00     0.041 A 
ATOM      4  C6  <0> d           1.309   0.181   4.682  0.00  0.00    -0.051 A 
ATOM      5  C7  <0> d           0.311  -0.568   4.132  0.00  0.00    -0.015 A 
ATOM      6  C8  <0> d          -0.365  -0.089   2.997  0.00  0.00     0.247 A 
ATOM      7  O1  <0> d          -1.264  -0.749   2.500  0.00  0.00    -0.268 OA
ATOM      8  H8  <0> d           1.234   2.795   2.550  0.00  0.00     0.115 H 
ATOM      9  H9  <0> d           1.836  -0.170   5.557  0.00  0.00     0.087 H 
ATOM     10  H10 <0> d           0.039  -1.518   4.567  0.00  0.00     0.092 H 
ENDROOT
BRANCH   1  11
ATOM     11  C3  <0> d          -0.729   1.579   1.267  0.00  0.00     0.002 C 
ATOM     12  H6  <0> d          -0.744   2.679   1.273  0.00  0.00     0.065 H 
ATOM     13  H7  <0> d          -1.761   1.198   1.275  0.00  0.00     0.065 H 
BRANCH  11  14
ATOM     14  C2  <0> d          -0.013   1.086   0.008  0.00  0.00    -0.053 C 
ATOM     15  H4  <0> d           0.002  -0.014   0.002  0.00  0.00     0.034 H 
ATOM     16  H5  <0> d           1.019   1.466   0.000  0.00  0.00     0.034 H 
BRANCH  14  17
ATOM     17  C1  <0> d          -0.753   1.593  -1.232  0.00  0.00    -0.075 C 
ATOM     18  H1  <0> d          -0.238   1.238  -2.136  0.00  0.00     0.027 H 
ATOM     19  H2  <0> d          -0.768   2.693  -1.225  0.00  0.00     0.027 H 
ATOM     20  H3  <0> d          -1.785   1.212  -1.224  0.00  0.00     0.027 H 
ENDBRANCH  14  17
ENDBRANCH  11  14
ENDBRANCH   1  11
BRANCH   3  21
ATOM     21  N2  <0> d           2.669   2.199   4.649  0.00  0.00    -0.398 N 
ATOM     22  H11 <0> d           3.211   1.849   5.540  0.00  0.00     0.156 HD
ATOM     23  H12 <0> d           2.931   3.164   4.191  0.00  0.00     0.156 HD
ENDBRANCH   3  21
TORSDOF 4
