REMARK  2 active torsions:
REMARK  status: ('A' for Active; 'I' for Inactive)
REMARK    1  A    between atoms: C1_1  and  N1_2 
REMARK    2  A    between atoms: C3_4  and  C7_10 
ROOT
ATOM      1  N1  <0> d          -0.698   1.558   1.213  0.00  0.00    -0.356 N 
ATOM      2  C2  <0> d          -0.819   2.997   1.411  0.00  0.00     0.010 C 
ATOM      3  C3  <0> d          -1.118   3.315   2.875  0.00  0.00     0.046 C 
ATOM      4  H1  <0> d          -0.241   3.092   3.483  0.00  0.00     0.059 H 
ATOM      5  C4  <0> d          -2.298   2.452   3.337  0.00  0.00    -0.043 C 
ATOM      6  C5  <0> d          -1.848   0.989   3.358  0.00  0.00     0.010 C 
ATOM      7  C6  <0> d          -1.169   0.645   2.063  0.00  0.00     0.219 C 
ATOM      8  O1  <0> d          -1.041  -0.526   1.776  0.00  0.00    -0.273 OA
ATOM      9  H5  <0> d           0.114   3.480   1.119  0.00  0.00     0.065 H 
ATOM     10  H6  <0> d          -1.629   3.380   0.790  0.00  0.00     0.065 H 
ATOM     11  H7  <0> d          -3.132   2.570   2.646  0.00  0.00     0.035 H 
ATOM     12  H8  <0> d          -2.605   2.755   4.338  0.00  0.00     0.035 H 
ATOM     13  H9  <0> d          -2.717   0.345   3.493  0.00  0.00     0.047 H 
ATOM     14  H10 <0> d          -1.153   0.835   4.183  0.00  0.00     0.047 H 
ENDROOT
BRANCH   1  15
ATOM     15  C1  <0> d          -0.013   1.086   0.008  0.00  0.00    -0.016 C 
ATOM     16  H2  <0> d           0.002  -0.004   0.002  0.00  0.00     0.056 H 
ATOM     17  H3  <0> d           1.010   1.463   0.000  0.00  0.00     0.056 H 
ATOM     18  H4  <0> d          -0.540   1.447  -0.875  0.00  0.00     0.056 H 
ENDBRANCH   1  15
BRANCH   3  19
ATOM     19  C7  <0> d          -1.472   4.773   3.015  0.00  0.00     0.178 C 
ATOM     20  O2  <0> d          -2.557   5.093   3.441  0.00  0.00    -0.648 OA
ATOM     21  O3  <0> d          -0.583   5.716   2.667  0.00  0.00    -0.648 OA
ENDBRANCH   3  19
TORSDOF 2
