REMARK  1 active torsions:
REMARK  status: ('A' for Active; 'I' for Inactive)
REMARK    1  A    between atoms: C6_6  and  C7_7 
ROOT
ATOM      1  C1  <0> d           1.204  -0.680  -0.014  0.00  0.00    -0.063 A 
ATOM      2  C2  <0> d           0.002  -0.004   0.002  0.00  0.00    -0.042 A 
ATOM      3  C3  <0> d          -0.017   1.382   0.010  0.00  0.00     0.154 A 
ATOM      4  C4  <0> d           1.174   2.097   0.002  0.00  0.00     0.155 A 
ATOM      5  C5  <0> d           2.382   1.430  -0.013  0.00  0.00    -0.026 A 
ATOM      6  C6  <0> d           2.404   0.033  -0.021  0.00  0.00     0.043 A 
ATOM      7  F1  <0> d           1.149   3.448   0.009  0.00  0.00    -0.203 F 
ATOM      8  F2  <0> d          -1.197   2.039   0.019  0.00  0.00    -0.203 F 
ATOM      9  H1  <0> d           1.216  -1.760  -0.020  0.00  0.00     0.085 H 
ATOM     10  H2  <0> d          -0.926  -0.555   0.008  0.00  0.00     0.088 H 
ATOM     11  H3  <0> d           3.307   1.986  -0.019  0.00  0.00     0.090 H 
ENDROOT
BRANCH   6  12
ATOM     12  C7  <0> d           3.693  -0.687  -0.037  0.00  0.00     0.209 C 
ATOM     13  O1  <0> d           3.710  -1.901  -0.044  0.00  0.00    -0.644 OA
ATOM     14  O2  <0> d           4.850   0.004  -0.045  0.00  0.00    -0.644 OA
ENDBRANCH   6  12
TORSDOF 1
