REMARK  4 active torsions:
REMARK  status: ('A' for Active; 'I' for Inactive)
REMARK    1  A    between atoms: C1_1  and  C2_2 
REMARK    2  A    between atoms: C4_4  and  N2_10 
REMARK    3  A    between atoms: C6_7  and  O1_8 
REMARK    4  A    between atoms: O1_8  and  C7_9 
ROOT
ATOM      1  C2  <0> d           2.359  -0.026  -0.021  0.00  0.00    -0.007 A 
ATOM      2  C3  <0> d           2.381   1.357  -0.013  0.00  0.00    -0.046 A 
ATOM      3  C4  <0> d           1.167   2.040   0.002  0.00  0.00     0.044 A 
ATOM      4  C5  <0> d          -0.016   1.315   0.009  0.00  0.00     0.030 A 
ATOM      5  N1  <0> d           0.002  -0.004   0.002  0.00  0.00    -0.234 NA
ATOM      6  C6  <0> d           1.136  -0.684  -0.013  0.00  0.00     0.169 A 
ATOM      7  H4  <0> d           3.318   1.895  -0.019  0.00  0.00     0.088 H 
ATOM      8  H5  <0> d          -0.962   1.836   0.017  0.00  0.00     0.118 H 
ENDROOT
BRANCH   6   9
ATOM      9  O1  <0> d           1.104  -2.041  -0.020  0.00  0.00    -0.339 OA
BRANCH   9  10
ATOM     10  C7  <0> d          -0.184  -2.660  -0.011  0.00  0.00     0.012 C 
ATOM     11  H6  <0> d          -0.726  -2.359   0.885  0.00  0.00     0.067 H 
ATOM     12  H7  <0> d          -0.742  -2.349  -0.894  0.00  0.00     0.067 H 
ATOM     13  H8  <0> d          -0.066  -3.744  -0.019  0.00  0.00     0.067 H 
ENDBRANCH   9  10
ENDBRANCH   6   9
BRANCH   1  14
ATOM     14  C1  <0> d           3.646  -0.810  -0.037  0.00  0.00    -0.047 C 
ATOM     15  H1  <0> d           3.947  -0.994  -1.068  0.00  0.00     0.033 H 
ATOM     16  H2  <0> d           4.424  -0.241   0.473  0.00  0.00     0.033 H 
ATOM     17  H3  <0> d           3.498  -1.762   0.474  0.00  0.00     0.033 H 
ENDBRANCH   1  14
BRANCH   3  18
ATOM     18  N2  <0> d           1.141   3.440   0.010  0.00  0.00    -0.398 N 
ATOM     19  H9  <0> d           0.291   3.909   0.020  0.00  0.00     0.156 HD
ATOM     20  H10 <0> d           1.971   3.940   0.004  0.00  0.00     0.156 HD
ENDBRANCH   3  18
TORSDOF 4
