REMARK  1 active torsions:
REMARK  status: ('A' for Active; 'I' for Inactive)
REMARK    1  A    between atoms: C10_14  and  O1_16 
ROOT
ATOM      1  C1  <0> d          -2.112   3.698  -1.193  0.00  0.00    -0.046 C 
ATOM      2  C2  <0> d          -2.190   2.841  -2.472  0.00  0.00    -0.106 C 
ATOM      3  C3  <0> d          -1.464   1.720  -2.303  0.00  0.00    -0.102 C 
ATOM      4  C4  <0> d          -0.949   1.717  -0.950  0.00  0.00    -0.030 C 
ATOM      5  H1  <0> d          -1.885   1.536  -0.422  0.00  0.00     0.047 H 
ATOM      6  C5  <0> d          -0.747   3.293  -0.667  0.00  0.00    -0.038 C 
ATOM      7  H2  <0> d           0.052   3.727  -1.269  0.00  0.00     0.042 H 
ATOM      8  C6  <0> d          -0.369   3.265   0.812  0.00  0.00    -0.025 C 
ATOM      9  H3  <0> d          -0.765   4.067   1.435  0.00  0.00     0.044 H 
ATOM     10  C7  <0> d          -0.621   1.789   1.304  0.00  0.00    -0.055 C 
ATOM     11  C8  <0> d          -0.013   1.086   0.008  0.00  0.00    -0.044 C 
ATOM     12  H4  <0> d           0.002  -0.004   0.002  0.00  0.00     0.041 H 
ATOM     13  C9  <0> d           1.381   1.770  -0.002  0.00  0.00    -0.037 C 
ATOM     14  C10 <0> d           1.199   3.150   0.683  0.00  0.00     0.040 C 
ATOM     15  H5  <0> d           1.595   3.949   0.056  0.00  0.00     0.083 H 
ATOM     16  H6  <0> d          -2.901   3.429  -0.490  0.00  0.00     0.039 H 
ATOM     17  H7  <0> d          -2.144   4.762  -1.429  0.00  0.00     0.039 H 
ATOM     18  H8  <0> d          -2.742   3.099  -3.364  0.00  0.00     0.076 H 
ATOM     19  H9  <0> d          -1.296   0.944  -3.034  0.00  0.00     0.077 H 
ATOM     20  H10 <0> d          -1.680   1.564   1.433  0.00  0.00     0.034 H 
ATOM     21  H11 <0> d          -0.046   1.563   2.201  0.00  0.00     0.034 H 
ATOM     22  H12 <0> d           2.097   1.167   0.557  0.00  0.00     0.037 H 
ATOM     23  H13 <0> d           1.724   1.904  -1.027  0.00  0.00     0.037 H 
ENDROOT
BRANCH  14  24
ATOM     24  O1  <0> d           1.821   3.164   1.970  0.00  0.00    -0.395 OA
ATOM     25  H14 <0> d           2.776   3.014   1.947  0.00  0.00     0.210 HD
ENDBRANCH  14  24
TORSDOF 1
