REMARK  3 active torsions:
REMARK  status: ('A' for Active; 'I' for Inactive)
REMARK    1  A    between atoms: C1_1  and  C2_2 
REMARK    2  A    between atoms: C7_7  and  C8_8 
REMARK    3  A    between atoms: C8_8  and  N2_12 
ROOT
ATOM      1  C8  <0> d           2.451   3.937  -0.001  0.00  0.00     0.237 C 
ATOM      2  H1  <0> d           2.350   4.862  -0.586  0.00  0.00     0.119 H 
ATOM      3  C9  <0> d           2.823   4.285   1.380  0.00  0.00     0.100 C 
ATOM      4  N1  <0> d           3.111   4.553   2.446  0.00  0.00    -0.195 NA
ENDROOT
BRANCH   1   5
ATOM      5  C7  <0> d           1.156   3.166   0.008  0.00  0.00    -0.006 A 
ATOM      6  C2  <0> d          -0.050   3.840   0.023  0.00  0.00    -0.053 A 
ATOM      7  C3  <0> d          -1.238   3.133   0.030  0.00  0.00    -0.077 A 
ATOM      8  C4  <0> d          -1.219   1.751   0.017  0.00  0.00    -0.082 A 
ATOM      9  H5  <0> d          -2.180   3.660   0.043  0.00  0.00     0.084 H 
ATOM     10  C5  <0> d          -0.013   1.076   0.008  0.00  0.00    -0.082 A 
ATOM     11  H6  <0> d          -2.147   1.198   0.019  0.00  0.00     0.083 H 
ATOM     12  C6  <0> d           1.175   1.783   0.000  0.00  0.00    -0.073 A 
ATOM     13  H7  <0> d           0.002  -0.004   0.002  0.00  0.00     0.083 H 
ATOM     14  H8  <0> d           2.117   1.256  -0.011  0.00  0.00     0.084 H 
BRANCH   6  15
ATOM     15  C1  <0> d          -0.070   5.347   0.032  0.00  0.00    -0.051 C 
ATOM     16  H2  <0> d          -1.112   5.700   0.043  0.00  0.00     0.033 H 
ATOM     17  H3  <0> d           0.435   5.726  -0.869  0.00  0.00     0.033 H 
ATOM     18  H4  <0> d           0.452   5.716   0.927  0.00  0.00     0.033 H 
ENDBRANCH   6  15
ENDBRANCH   1   5
BRANCH   1  19
ATOM     19  N2  <0> d           3.508   3.112  -0.600  0.00  0.00     0.100 N 
ATOM     20  H9  <0> d           4.453   3.675  -0.606  0.00  0.00     0.315 HD
ATOM     21  H10 <0> d           3.634   2.191  -0.011  0.00  0.00     0.315 HD
ENDBRANCH   1  19
TORSDOF 3
