REMARK  3 active torsions:
REMARK  status: ('A' for Active; 'I' for Inactive)
REMARK    1  A    between atoms: C1_1  and  C2_2 
REMARK    2  A    between atoms: C2_2  and  N1_3 
REMARK    3  A    between atoms: C4_5  and  C11_12 
ROOT
ATOM      1  N1  <0> d          -1.372  -0.511   0.012  0.00  0.00    -0.356 N 
ATOM      2  C3  <0> d          -2.067  -0.875   1.133  0.00  0.00    -0.013 A 
ATOM      3  C4  <0> d          -3.296  -1.295   0.794  0.00  0.00    -0.034 A 
ATOM      4  C5  <0> d          -3.397  -1.191  -0.664  0.00  0.00    -0.002 A 
ATOM      5  C6  <0> d          -2.159  -0.687  -1.104  0.00  0.00     0.045 A 
ATOM      6  C7  <0> d          -1.955  -0.473  -2.463  0.00  0.00    -0.056 A 
ATOM      7  C8  <0> d          -2.963  -0.753  -3.359  0.00  0.00    -0.081 A 
ATOM      8  C9  <0> d          -4.183  -1.247  -2.920  0.00  0.00    -0.082 A 
ATOM      9  C10 <0> d          -4.403  -1.473  -1.590  0.00  0.00    -0.070 A 
ATOM     10  H6  <0> d          -1.684  -0.832   2.142  0.00  0.00     0.112 H 
ATOM     11  H7  <0> d          -1.009  -0.088  -2.815  0.00  0.00     0.087 H 
ATOM     12  H8  <0> d          -2.803  -0.586  -4.414  0.00  0.00     0.083 H 
ATOM     13  H9  <0> d          -4.963  -1.462  -3.635  0.00  0.00     0.083 H 
ATOM     14  H10 <0> d          -5.355  -1.856  -1.255  0.00  0.00     0.084 H 
ENDROOT
BRANCH   1  15
ATOM     15  C2  <0> d           0.002  -0.004   0.002  0.00  0.00    -0.004 C 
ATOM     16  H4  <0> d           0.512  -0.356  -0.895  0.00  0.00     0.064 H 
ATOM     17  H5  <0> d           0.529  -0.365   0.885  0.00  0.00     0.064 H 
BRANCH  15  18
ATOM     18  C1  <0> d          -0.019   1.526   0.010  0.00  0.00    -0.061 C 
ATOM     19  H1  <0> d           1.004   1.903   0.003  0.00  0.00     0.029 H 
ATOM     20  H2  <0> d          -0.546   1.887  -0.873  0.00  0.00     0.029 H 
ATOM     21  H3  <0> d          -0.529   1.877   0.907  0.00  0.00     0.029 H 
ENDBRANCH  15  18
ENDBRANCH   1  15
BRANCH   3  22
ATOM     22  C11 <0> d          -4.369  -1.781   1.734  0.00  0.00    -0.049 C 
ATOM     23  H11 <0> d          -4.982  -0.938   2.053  0.00  0.00     0.033 H 
ATOM     24  H12 <0> d          -4.995  -2.513   1.223  0.00  0.00     0.033 H 
ATOM     25  H13 <0> d          -3.906  -2.244   2.605  0.00  0.00     0.033 H 
ENDBRANCH   3  22
TORSDOF 3
