REMARK  3 active torsions:
REMARK  status: ('A' for Active; 'I' for Inactive)
REMARK    1  A    between atoms: C1_1  and  C2_2 
REMARK    2  A    between atoms: C5_5  and  O1_9 
REMARK    3  A    between atoms: C6_6  and  C7_8 
ROOT
ATOM      1  C2  <0> d          -0.018   1.503   0.010  0.00  0.00     0.031 A 
ATOM      2  C3  <0> d           1.175   2.201   0.003  0.00  0.00    -0.057 A 
ATOM      3  C4  <0> d           1.148   3.586   0.010  0.00  0.00    -0.047 A 
ATOM      4  C5  <0> d          -0.089   4.223   0.025  0.00  0.00     0.089 A 
ATOM      5  C6  <0> d          -1.243   3.454   0.032  0.00  0.00     0.064 A 
ATOM      6  N1  <0> d          -1.174   2.138   0.019  0.00  0.00    -0.256 NA
ATOM      7  H4  <0> d           2.117   1.673  -0.009  0.00  0.00     0.086 H 
ATOM      8  H5  <0> d           2.065   4.157   0.004  0.00  0.00     0.087 H 
ENDROOT
BRANCH   1   9
ATOM      9  C1  <0> d           0.002  -0.004   0.002  0.00  0.00    -0.035 C 
ATOM     10  H1  <0> d           0.017  -0.373   1.028  0.00  0.00     0.035 H 
ATOM     11  H2  <0> d          -0.888  -0.377  -0.505  0.00  0.00     0.035 H 
ATOM     12  H3  <0> d           0.892  -0.352  -0.522  0.00  0.00     0.035 H 
ENDBRANCH   1   9
BRANCH   5  13
ATOM     13  C7  <0> d          -2.590   4.130   0.048  0.00  0.00    -0.033 C 
ATOM     14  H6  <0> d          -2.924   4.298  -0.976  0.00  0.00     0.035 H 
ATOM     15  H7  <0> d          -3.309   3.495   0.565  0.00  0.00     0.035 H 
ATOM     16  H8  <0> d          -2.510   5.086   0.566  0.00  0.00     0.035 H 
ENDBRANCH   5  13
BRANCH   4  17
ATOM     17  O1  <0> d          -0.165   5.580   0.033  0.00  0.00    -0.359 OA
ATOM     18  H9  <0> d          -0.195   5.978  -0.848  0.00  0.00     0.217 HD
ENDBRANCH   4  17
TORSDOF 3
