REMARK  2 active torsions:
REMARK  status: ('A' for Active; 'I' for Inactive)
REMARK    1  A    between atoms: C1_1  and  C2_2 
REMARK    2  A    between atoms: C5_5  and  N2_9 
ROOT
ATOM      1  C2  <0> d          -0.018   1.503   0.010  0.00  0.00     0.007 A 
ATOM      2  C3  <0> d           1.174   2.199   0.003  0.00  0.00    -0.059 A 
ATOM      3  C4  <0> d           1.151   3.587   0.010  0.00  0.00    -0.051 A 
ATOM      4  C5  <0> d          -0.082   4.228   0.025  0.00  0.00     0.080 A 
ATOM      5  C6  <0> d          -1.245   3.457   0.033  0.00  0.00     0.205 A 
ATOM      6  N1  <0> d          -1.176   2.137   0.019  0.00  0.00    -0.337 N 
ATOM      7  O1  <0> d          -2.457   4.068   0.047  0.00  0.00    -0.170 OA
ATOM      8  H4  <0> d           2.115   1.669  -0.009  0.00  0.00     0.086 H 
ATOM      9  H5  <0> d           2.069   4.154   0.004  0.00  0.00     0.087 H 
ATOM     10  H8  <0> d          -2.116   1.567   0.016  0.00  0.00     0.168 HD
ENDROOT
BRANCH   1  11
ATOM     11  C1  <0> d           0.002  -0.004   0.002  0.00  0.00    -0.037 C 
ATOM     12  H1  <0> d           1.044  -0.357  -0.005  0.00  0.00     0.035 H 
ATOM     13  H2  <0> d          -0.516  -0.373  -0.896  0.00  0.00     0.035 H 
ATOM     14  H3  <0> d          -0.507  -0.383   0.901  0.00  0.00     0.035 H 
ENDBRANCH   1  11
BRANCH   4  15
ATOM     15  N2  <0> d          -0.156   5.625   0.034  0.00  0.00    -0.396 N 
ATOM     16  H6  <0> d          -1.136   6.124   0.046  0.00  0.00     0.156 HD
ATOM     17  H7  <0> d           0.766   6.225   0.029  0.00  0.00     0.156 HD
ENDBRANCH   4  15
TORSDOF 2
