REMARK  3 active torsions:
REMARK  status: ('A' for Active; 'I' for Inactive)
REMARK    1  A    between atoms: C1_1  and  N1_2 
REMARK    2  A    between atoms: N1_2  and  C2_3 
REMARK    3  A    between atoms: C3_4  and  C6_9 
REMARK       I    between atoms: C6_9  and  N4_11 
ROOT
ATOM      1  C2  <0> d          -3.682   1.545   0.134  0.00  0.00     0.157 A 
ATOM      2  C3  <0> d          -2.456   0.867   0.026  0.00  0.00     0.169 A 
ATOM      3  N2  <0> d          -2.445  -0.458  -0.087  0.00  0.00    -0.250 NA
ATOM      4  C4  <0> d          -3.579  -1.129  -0.087  0.00  0.00     0.020 A 
ATOM      5  C5  <0> d          -4.790  -0.460   0.020  0.00  0.00     0.021 A 
ATOM      6  N3  <0> d          -4.817   0.856   0.128  0.00  0.00    -0.240 NA
ATOM      7  H5  <0> d          -3.566  -2.205  -0.174  0.00  0.00     0.117 H 
ATOM      8  H6  <0> d          -5.714  -1.018   0.015  0.00  0.00     0.117 H 
ENDROOT
BRANCH   1   9
ATOM      9  N1  <0> d          -3.705   2.923   0.246  0.00  0.00    -0.377 N 
ATOM     10  H4  <0> d          -2.882   3.430   0.173  0.00  0.00     0.160 HD
BRANCH   9  11
ATOM     11  C1  <0> d          -4.975   3.618   0.476  0.00  0.00    -0.019 C 
ATOM     12  H1  <0> d          -4.796   4.691   0.537  0.00  0.00     0.056 H 
ATOM     13  H2  <0> d          -5.657   3.409  -0.347  0.00  0.00     0.056 H 
ATOM     14  H3  <0> d          -5.415   3.269   1.411  0.00  0.00     0.056 H 
ENDBRANCH   9  11
ENDBRANCH   1   9
BRANCH   2  15
ATOM     15  C6  <0> d          -1.187   1.623   0.032  0.00  0.00     0.271 C 
ATOM     16  O1  <0> d          -1.202   2.838   0.029  0.00  0.00    -0.266 OA
ATOM     17  N4  <0> d          -0.011   0.964   0.040  0.00  0.00    -0.365 N 
ATOM     18  H7  <0> d           0.002  -0.006   0.043  0.00  0.00     0.159 HD
ATOM     19  H8  <0> d           0.823   1.460   0.040  0.00  0.00     0.159 HD
ENDBRANCH   2  15
TORSDOF 3
