REMARK  4 active torsions:
REMARK  status: ('A' for Active; 'I' for Inactive)
REMARK    1  A    between atoms: C3_3  and  N3_9 
REMARK    2  A    between atoms: N1_4  and  C4_6 
REMARK    3  A    between atoms: C4_6  and  C5_7 
REMARK    4  A    between atoms: C5_7  and  O1_8 
ROOT
ATOM      1  C1  <0> d           1.411   1.039   4.128  0.00  0.00     0.045 A 
ATOM      2  C2  <0> d           0.631  -0.140   4.162  0.00  0.00     0.108 A 
ATOM      3  C3  <0> d          -0.262  -0.067   3.097  0.00  0.00     0.140 A 
ATOM      4  N1  <0> d          -0.020   1.094   2.454  0.00  0.00    -0.251 N 
ATOM      5  N2  <0> d           1.018   1.759   3.115  0.00  0.00    -0.181 NA
ATOM      6  C6  <0> d           0.736  -1.203   5.115  0.00  0.00     0.105 C 
ATOM      7  N4  <0> d           0.818  -2.047   5.872  0.00  0.00    -0.191 NA
ATOM      8  H1  <0> d           2.198   1.298   4.821  0.00  0.00     0.119 H 
ENDROOT
BRANCH   3   9
ATOM      9  N3  <0> d          -1.216  -1.009   2.760  0.00  0.00    -0.383 N 
ATOM     10  H7  <0> d          -1.791  -0.864   1.992  0.00  0.00     0.157 HD
ATOM     11  H8  <0> d          -1.310  -1.816   3.290  0.00  0.00     0.157 HD
ENDBRANCH   3   9
BRANCH   4  12
ATOM     12  C4  <0> d          -0.729   1.579   1.267  0.00  0.00     0.038 C 
ATOM     13  H2  <0> d          -0.744   2.669   1.273  0.00  0.00     0.070 H 
ATOM     14  H3  <0> d          -1.751   1.202   1.275  0.00  0.00     0.070 H 
BRANCH  12  15
ATOM     15  C5  <0> d          -0.013   1.086   0.008  0.00  0.00     0.033 C 
ATOM     16  H4  <0> d           0.002  -0.004   0.002  0.00  0.00     0.076 H 
ATOM     17  H5  <0> d           1.010   1.463   0.000  0.00  0.00     0.076 H 
BRANCH  15  18
ATOM     18  O1  <0> d          -0.704   1.559  -1.150  0.00  0.00    -0.399 OA
ATOM     19  H6  <0> d          -0.304   1.284  -1.986  0.00  0.00     0.209 HD
ENDBRANCH  15  18
ENDBRANCH  12  15
ENDBRANCH   4  12
TORSDOF 4
