REMARK  5 active torsions:
REMARK  status: ('A' for Active; 'I' for Inactive)
REMARK    1  A    between atoms: C1_1  and  C2_2 
REMARK    2  A    between atoms: C2_2  and  C3_4 
REMARK    3  A    between atoms: C2_2  and  C5_7 
REMARK    4  A    between atoms: C3_4  and  C4_5 
REMARK    5  A    between atoms: C4_5  and  O1_6 
ROOT
ATOM      1  C2  <0> d          -2.530   3.893   0.046  0.00  0.00    -0.030 C 
ATOM      2  H1  <0> d          -2.322   4.963   0.049  0.00  0.00     0.046 H 
ENDROOT
BRANCH   1   3
ATOM      3  C1  <0> d          -3.324   3.524   1.301  0.00  0.00    -0.069 C 
ATOM      4  H2  <0> d          -2.742   3.778   2.186  0.00  0.00     0.028 H 
ATOM      5  H3  <0> d          -4.263   4.077   1.312  0.00  0.00     0.028 H 
ATOM      6  H4  <0> d          -3.531   2.454   1.297  0.00  0.00     0.028 H 
ENDBRANCH   1   3
BRANCH   1   7
ATOM      7  C3  <0> d          -3.346   3.536  -1.198  0.00  0.00    -0.039 C 
ATOM      8  H5  <0> d          -2.747   3.716  -2.090  0.00  0.00     0.037 H 
ATOM      9  H6  <0> d          -3.630   2.484  -1.157  0.00  0.00     0.037 H 
BRANCH   7  10
ATOM     10  C4  <0> d          -4.607   4.402  -1.247  0.00  0.00     0.017 C 
ATOM     11  H7  <0> d          -5.206   4.222  -0.354  0.00  0.00     0.074 H 
ATOM     12  H8  <0> d          -4.323   5.454  -1.288  0.00  0.00     0.074 H 
BRANCH  10  13
ATOM     13  O1  <0> d          -5.369   4.069  -2.408  0.00  0.00    -0.401 OA
ATOM     14  H9  <0> d          -6.184   4.580  -2.504  0.00  0.00     0.209 HD
ENDBRANCH  10  13
ENDBRANCH   7  10
ENDBRANCH   1   7
BRANCH   1  15
ATOM     15  C5  <0> d          -1.231   3.129   0.030  0.00  0.00    -0.052 A 
ATOM     16  C9  <0> d          -0.015   3.796   0.022  0.00  0.00    -0.060 A 
ATOM     17  C8  <0> d           1.155   3.061   0.007  0.00  0.00     0.002 A 
ATOM     18  H13 <0> d           0.016   4.875   0.028  0.00  0.00     0.086 H 
ATOM     19  N1  <0> d           1.125   1.743   0.001  0.00  0.00    -0.273 NA
ATOM     20  H12 <0> d           2.107   3.573   0.001  0.00  0.00     0.114 H 
ATOM     21  C7  <0> d          -0.013   1.076   0.008  0.00  0.00     0.002 A 
ATOM     22  C6  <0> d          -1.223   1.742   0.017  0.00  0.00    -0.060 A 
ATOM     23  H11 <0> d           0.002  -0.004   0.002  0.00  0.00     0.114 H 
ATOM     24  H10 <0> d          -2.151   1.190   0.018  0.00  0.00     0.086 H 
ENDBRANCH   1  15
TORSDOF 5
