REMARK  1 active torsions:
REMARK  status: ('A' for Active; 'I' for Inactive)
REMARK    1  A    between atoms: C5_6  and  C7_9 
ROOT
ATOM      1  C1  <0> d          -0.729   1.579   1.266  0.00  0.00    -0.064 C 
ATOM      2  C2  <0> d          -0.013   1.086   0.008  0.00  0.00    -0.059 C 
ATOM      3  C3  <0> d          -0.754   1.594  -1.233  0.00  0.00    -0.009 C 
ATOM      4  C4  <0> d          -0.879   3.098  -1.136  0.00  0.00     0.141 C 
ATOM      5  O1  <0> d          -0.537   3.808  -2.051  0.00  0.00    -0.297 OA
ATOM      6  C5  <0> d          -1.444   3.691   0.136  0.00  0.00     0.088 C 
ATOM      7  H1  <0> d          -2.414   3.461   0.208  0.00  0.00     0.068 H 
ATOM      8  C6  <0> d          -0.677   3.107   1.327  0.00  0.00    -0.046 C 
ATOM      9  H2  <0> d          -1.769   1.253   1.242  0.00  0.00     0.033 H 
ATOM     10  H3  <0> d          -0.241   1.164   2.148  0.00  0.00     0.033 H 
ATOM     11  H4  <0> d           0.002  -0.004   0.002  0.00  0.00     0.033 H 
ATOM     12  H5  <0> d           1.010   1.463   0.000  0.00  0.00     0.033 H 
ATOM     13  H6  <0> d          -0.240   1.346  -2.054  0.00  0.00     0.044 H 
ATOM     14  H7  <0> d          -1.746   1.143  -1.277  0.00  0.00     0.044 H 
ATOM     15  H8  <0> d           0.361   3.437   1.288  0.00  0.00     0.034 H 
ATOM     16  H9  <0> d          -1.133   3.450   2.256  0.00  0.00     0.034 H 
ENDROOT
BRANCH   6  17
ATOM     17  C7  <0> d          -1.283   5.189   0.111  0.00  0.00     0.184 C 
ATOM     18  O2  <0> d          -0.635   5.742   0.968  0.00  0.00    -0.647 OA
ATOM     19  O3  <0> d          -1.860   5.910  -0.864  0.00  0.00    -0.647 OA
ENDBRANCH   6  17
TORSDOF 1
