REMARK  4 active torsions:
REMARK  status: ('A' for Active; 'I' for Inactive)
REMARK    1  A    between atoms: C1_1  and  C2_2 
REMARK    2  A    between atoms: C5_6  and  C7_9 
REMARK    3  A    between atoms: C5_6  and  C8_10 
REMARK    4  A    between atoms: C8_10  and  O2_11 
ROOT
ATOM      1  C2  <0> d           1.422   2.047  -0.001  0.00  0.00    -0.037 C 
ATOM      2  H1  <0> d           1.915   1.735  -0.922  0.00  0.00     0.042 H 
ATOM      3  C3  <0> d          -0.019   1.528   0.010  0.00  0.00    -0.057 C 
ATOM      4  C4  <0> d           0.002  -0.004   0.002  0.00  0.00    -0.034 C 
ATOM      5  C5  <0> d           0.808  -0.502   1.204  0.00  0.00     0.078 C 
ATOM      6  O1  <0> d           2.128   0.042   1.149  0.00  0.00    -0.378 OA
ATOM      7  C6  <0> d           2.174   1.469   1.202  0.00  0.00     0.024 C 
ATOM      8  H5  <0> d          -0.544   1.890  -0.873  0.00  0.00     0.033 H 
ATOM      9  H6  <0> d          -0.527   1.880   0.908  0.00  0.00     0.033 H 
ATOM     10  H7  <0> d          -1.018  -0.383   0.066  0.00  0.00     0.037 H 
ATOM     11  H8  <0> d           0.465  -0.357  -0.920  0.00  0.00     0.037 H 
ATOM     12  H9  <0> d           1.705   1.814   2.123  0.00  0.00     0.074 H 
ATOM     13  H10 <0> d           3.212   1.801   1.176  0.00  0.00     0.074 H 
ENDROOT
BRANCH   5  14
ATOM     14  C7  <0> d           0.125  -0.055   2.498  0.00  0.00    -0.046 C 
ATOM     15  H11 <0> d          -0.882  -0.469   2.539  0.00  0.00     0.031 H 
ATOM     16  H12 <0> d           0.699  -0.409   3.354  0.00  0.00     0.031 H 
ATOM     17  H13 <0> d           0.071   1.034   2.522  0.00  0.00     0.031 H 
ENDBRANCH   5  14
BRANCH   5  18
ATOM     18  C8  <0> d           0.884  -2.030   1.170  0.00  0.00     0.045 C 
ATOM     19  H14 <0> d          -0.123  -2.443   1.121  0.00  0.00     0.078 H 
ATOM     20  H15 <0> d           1.450  -2.346   0.293  0.00  0.00     0.078 H 
BRANCH  18  21
ATOM     21  O2  <0> d           1.536  -2.501   2.351  0.00  0.00    -0.398 OA
ATOM     22  H16 <0> d           1.619  -3.464   2.397  0.00  0.00     0.209 HD
ENDBRANCH  18  21
ENDBRANCH   5  18
BRANCH   1  23
ATOM     23  C1  <0> d           1.416   3.574   0.086  0.00  0.00    -0.071 C 
ATOM     24  H2  <0> d           0.926   3.884   1.009  0.00  0.00     0.028 H 
ATOM     25  H3  <0> d           2.442   3.943   0.078  0.00  0.00     0.028 H 
ATOM     26  H4  <0> d           0.876   3.984  -0.767  0.00  0.00     0.028 H 
ENDBRANCH   1  23
TORSDOF 4
