REMARK  0 active torsions:
REMARK  status: ('A' for Active; 'I' for Inactive)
ROOT
ATOM      1  C1  <0> d          -0.017   1.379   0.010  0.00  0.00    -0.060 A 
ATOM      2  C2  <0> d           1.274   1.810  -0.000  0.00  0.00    -0.022 A 
ATOM      3  N1  <0> d           2.100   0.739  -0.015  0.00  0.00    -0.363 N 
ATOM      4  H1  <0> d           3.069   0.770  -0.027  0.00  0.00     0.165 HD
ATOM      5  C3  <0> d           1.338  -0.396  -0.009  0.00  0.00     0.084 A 
ATOM      6  C4  <0> d           0.002  -0.004   0.002  0.00  0.00    -0.026 A 
ATOM      7  C5  <0> d          -1.135  -0.992  -0.003  0.00  0.00    -0.038 C 
ATOM      8  C6  <0> d          -0.634  -2.287  -0.656  0.00  0.00    -0.055 C 
ATOM      9  C7  <0> d           0.618  -2.795   0.056  0.00  0.00    -0.003 C 
ATOM     10  C8  <0> d           1.718  -1.759  -0.013  0.00  0.00     0.176 C 
ATOM     11  O1  <0> d           2.887  -2.085  -0.070  0.00  0.00    -0.291 OA
ATOM     12  H2  <0> d          -0.897   2.005   0.025  0.00  0.00     0.086 H 
ATOM     13  H3  <0> d           1.589   2.843   0.002  0.00  0.00     0.111 H 
ATOM     14  H4  <0> d          -1.452  -1.194   1.020  0.00  0.00     0.040 H 
ATOM     15  H5  <0> d          -1.971  -0.589  -0.576  0.00  0.00     0.040 H 
ATOM     16  H6  <0> d          -1.415  -3.045  -0.598  0.00  0.00     0.034 H 
ATOM     17  H7  <0> d          -0.400  -2.095  -1.704  0.00  0.00     0.034 H 
ATOM     18  H8  <0> d           0.381  -3.001   1.100  0.00  0.00     0.044 H 
ATOM     19  H9  <0> d           0.958  -3.714  -0.422  0.00  0.00     0.044 H 
ENDROOT
TORSDOF 0
