REMARK  3 active torsions:
REMARK  status: ('A' for Active; 'I' for Inactive)
REMARK    1  A    between atoms: C1_1  and  C2_2 
REMARK    2  A    between atoms: C5_6  and  O2_11 
REMARK    3  A    between atoms: C6_8  and  O1_10 
ROOT
ATOM      1  C2  <0> d           0.187   3.205   1.711  0.00  0.00    -0.030 C 
ATOM      2  H1  <0> d           0.673   3.060   2.675  0.00  0.00     0.043 H 
ATOM      3  C3  <0> d           1.248   3.400   0.608  0.00  0.00    -0.057 C 
ATOM      4  C4  <0> d           1.426   1.987  -0.001  0.00  0.00    -0.038 C 
ATOM      5  C5  <0> d          -0.017   1.425   0.010  0.00  0.00     0.060 C 
ATOM      6  H2  <0> d          -0.580   1.802  -0.844  0.00  0.00     0.086 H 
ATOM      7  C6  <0> d          -0.618   1.949   1.331  0.00  0.00     0.063 C 
ATOM      8  H3  <0> d          -0.521   1.194   2.111  0.00  0.00     0.087 H 
ATOM      9  H7  <0> d           2.185   3.751   1.038  0.00  0.00     0.033 H 
ATOM     10  H8  <0> d           0.890   4.098  -0.148  0.00  0.00     0.033 H 
ATOM     11  H9  <0> d           2.082   1.378   0.621  0.00  0.00     0.036 H 
ATOM     12  H10 <0> d           1.808   2.050  -1.020  0.00  0.00     0.036 H 
ENDROOT
BRANCH   1  13
ATOM     13  C1  <0> d          -0.739   4.422   1.769  0.00  0.00    -0.070 C 
ATOM     14  H4  <0> d          -1.219   4.560   0.800  0.00  0.00     0.028 H 
ATOM     15  H5  <0> d          -1.500   4.264   2.533  0.00  0.00     0.028 H 
ATOM     16  H6  <0> d          -0.156   5.310   2.015  0.00  0.00     0.028 H 
ENDBRANCH   1  13
BRANCH   7  17
ATOM     17  O1  <0> d          -1.993   2.287   1.143  0.00  0.00    -0.393 OA
ATOM     18  H11 <0> d          -2.549   1.541   0.881  0.00  0.00     0.210 HD
ENDBRANCH   7  17
BRANCH   5  19
ATOM     19  O2  <0> d           0.002  -0.004   0.002  0.00  0.00    -0.393 OA
ATOM     20  H12 <0> d           0.422  -0.387  -0.780  0.00  0.00     0.210 HD
ENDBRANCH   5  19
TORSDOF 3
