REMARK  1 active torsions:
REMARK  status: ('A' for Active; 'I' for Inactive)
REMARK    1  A    between atoms: C1_1  and  C2_2 
ROOT
ATOM      1  C2  <0> d           0.002  -0.004   0.002  0.00  0.00     0.054 A 
ATOM      2  C3  <0> d          -0.016   1.356   0.009  0.00  0.00     0.105 A 
ATOM      3  C4  <0> d           1.331   1.801  -0.001  0.00  0.00     0.126 A 
ATOM      4  C5  <0> d           1.274   3.264   0.007  0.00  0.00     0.053 A 
ATOM      5  N1  <0> d           0.024   3.620   0.021  0.00  0.00    -0.184 NA
ATOM      6  N2  <0> d          -0.803   2.493   0.028  0.00  0.00    -0.274 N 
ATOM      7  H1  <0> d          -1.803   2.507   0.043  0.00  0.00     0.189 HD
ATOM      8  N3  <0> d           2.107   0.733  -0.014  0.00  0.00    -0.171 NA
ATOM      9  N4  <0> d           1.289  -0.404  -0.012  0.00  0.00    -0.280 N 
ATOM     10  H2  <0> d           1.606  -1.353  -0.021  0.00  0.00     0.189 HD
ATOM     11  H6  <0> d           2.123   3.931   0.003  0.00  0.00     0.121 H 
ENDROOT
BRANCH   1  12
ATOM     12  C1  <0> d          -1.205  -0.906   0.009  0.00  0.00    -0.034 C 
ATOM     13  H3  <0> d          -1.507  -1.118  -1.017  0.00  0.00     0.035 H 
ATOM     14  H4  <0> d          -0.959  -1.839   0.516  0.00  0.00     0.035 H 
ATOM     15  H5  <0> d          -2.024  -0.413   0.534  0.00  0.00     0.035 H 
ENDBRANCH   1  12
TORSDOF 1
