REMARK  2 active torsions:
REMARK  status: ('A' for Active; 'I' for Inactive)
REMARK    1  A    between atoms: C1_1  and  C2_2 
REMARK    2  A    between atoms: C6_7  and  O1_10 
ROOT
ATOM      1  C2  <0> d           0.368   3.533  -1.232  0.00  0.00    -0.055 C 
ATOM      2  H1  <0> d          -0.622   3.076  -1.225  0.00  0.00     0.039 H 
ATOM      3  C3  <0> d           1.121   3.099  -2.491  0.00  0.00    -0.062 C 
ATOM      4  C4  <0> d           1.262   1.575  -2.500  0.00  0.00    -0.062 C 
ATOM      5  C5  <0> d           2.040   1.127  -1.261  0.00  0.00    -0.041 C 
ATOM      6  C6  <0> d           1.286   1.562  -0.002  0.00  0.00     0.036 C 
ATOM      7  H2  <0> d           1.840   1.243   0.881  0.00  0.00     0.082 H 
ATOM      8  C7  <0> d           1.145   3.085   0.008  0.00  0.00    -0.038 C 
ATOM      9  H6  <0> d           2.111   3.555  -2.498  0.00  0.00     0.033 H 
ATOM     10  H7  <0> d           0.567   3.418  -3.374  0.00  0.00     0.033 H 
ATOM     11  H8  <0> d           1.799   1.266  -3.397  0.00  0.00     0.033 H 
ATOM     12  H9  <0> d           0.273   1.118  -2.493  0.00  0.00     0.033 H 
ATOM     13  H10 <0> d           3.029   1.584  -1.268  0.00  0.00     0.036 H 
ATOM     14  H11 <0> d           2.140   0.042  -1.268  0.00  0.00     0.036 H 
ATOM     15  H12 <0> d           0.608   3.395   0.904  0.00  0.00     0.037 H 
ATOM     16  H13 <0> d           2.135   3.542   0.001  0.00  0.00     0.037 H 
ENDROOT
BRANCH   1  17
ATOM     17  C1  <0> d           0.226   5.056  -1.222  0.00  0.00    -0.073 C 
ATOM     18  H3  <0> d          -0.328   5.375  -2.105  0.00  0.00     0.028 H 
ATOM     19  H4  <0> d          -0.310   5.366  -0.325  0.00  0.00     0.028 H 
ATOM     20  H5  <0> d           1.216   5.513  -1.229  0.00  0.00     0.028 H 
ENDBRANCH   1  17
BRANCH   6  21
ATOM     21  O1  <0> d          -0.011   0.963   0.007  0.00  0.00    -0.396 OA
ATOM     22  H14 <0> d           0.002  -0.004   0.002  0.00  0.00     0.210 HD
ENDBRANCH   6  21
TORSDOF 2
