REMARK  3 active torsions:
REMARK  status: ('A' for Active; 'I' for Inactive)
REMARK    1  A    between atoms: C1_1  and  C2_2 
REMARK    2  A    between atoms: C2_2  and  C3_3 
REMARK    3  A    between atoms: C2_2  and  C4_4 
ROOT
ATOM      1  C4  <0> d           0.742  -0.511   1.242  0.00  0.00    -0.035 C 
ATOM      2  H1  <0> d           1.764  -0.132   1.254  0.00  0.00     0.046 H 
ATOM      3  C5  <0> d           0.741  -2.057   1.275  0.00  0.00    -0.055 C 
ATOM      4  C6  <0> d           0.596  -2.330   2.790  0.00  0.00    -0.049 C 
ATOM      5  C7  <0> d          -0.070  -1.091   3.342  0.00  0.00    -0.106 C 
ATOM      6  C8  <0> d           0.011  -0.097   2.497  0.00  0.00    -0.102 C 
ATOM      7  H9  <0> d          -0.107  -2.460   0.722  0.00  0.00     0.034 H 
ATOM      8  H10 <0> d           1.680  -2.457   0.893  0.00  0.00     0.034 H 
ATOM      9  H11 <0> d          -0.030  -3.206   2.960  0.00  0.00     0.038 H 
ATOM     10  H12 <0> d           1.576  -2.469   3.246  0.00  0.00     0.038 H 
ATOM     11  H13 <0> d          -0.550  -1.034   4.308  0.00  0.00     0.076 H 
ATOM     12  H14 <0> d          -0.392   0.890   2.672  0.00  0.00     0.076 H 
ENDROOT
BRANCH   1  13
ATOM     13  C2  <0> d           0.002  -0.004   0.002  0.00  0.00    -0.054 C 
ATOM     14  H5  <0> d          -1.020  -0.381   0.010  0.00  0.00     0.039 H 
BRANCH  13  15
ATOM     15  C1  <0> d          -0.019   1.526   0.010  0.00  0.00    -0.073 C 
ATOM     16  H2  <0> d           1.004   1.903   0.003  0.00  0.00     0.028 H 
ATOM     17  H3  <0> d          -0.546   1.887  -0.873  0.00  0.00     0.028 H 
ATOM     18  H4  <0> d          -0.529   1.877   0.907  0.00  0.00     0.028 H 
ENDBRANCH  13  15
BRANCH  13  19
ATOM     19  C3  <0> d           0.718  -0.497  -1.257  0.00  0.00    -0.073 C 
ATOM     20  H6  <0> d           1.741  -0.120  -1.264  0.00  0.00     0.028 H 
ATOM     21  H7  <0> d           0.733  -1.587  -1.263  0.00  0.00     0.028 H 
ATOM     22  H8  <0> d           0.191  -0.136  -2.140  0.00  0.00     0.028 H 
ENDBRANCH  13  19
ENDBRANCH   1  13
TORSDOF 3
