REMARK  3 active torsions:
REMARK  status: ('A' for Active; 'I' for Inactive)
REMARK    1  A    between atoms: C1_1  and  C2_2 
REMARK    2  A    between atoms: C4_5  and  C6_9 
REMARK    3  A    between atoms: C6_9  and  O2_10 
ROOT
ATOM      1  C2  <0> d           0.002  -0.004   0.002  0.00  0.00     0.101 A 
ATOM      2  N1  <0> d          -0.006  -0.639  -1.153  0.00  0.00    -0.247 NA
ATOM      3  C3  <0> d           0.017  -1.962  -1.204  0.00  0.00     0.017 A 
ATOM      4  C4  <0> d           0.050  -2.681  -0.024  0.00  0.00     0.037 A 
ATOM      5  C5  <0> d           0.051  -1.978   1.180  0.00  0.00     0.190 A 
ATOM      6  N2  <0> d           0.027  -0.651   1.150  0.00  0.00    -0.323 N 
ATOM      7  O1  <0> d           0.077  -2.639   2.363  0.00  0.00    -0.171 OA
ATOM      8  H4  <0> d           0.020  -2.442  -2.081  0.00  0.00     0.116 H 
ATOM      9  H5  <0> d           0.029  -0.091   2.097  0.00  0.00     0.169 HD
ENDROOT
BRANCH   4  10
ATOM     10  C6  <0> d           0.076  -4.188  -0.038  0.00  0.00     0.046 C 
ATOM     11  H6  <0> d          -0.809  -4.576   0.488  0.00  0.00     0.081 H 
ATOM     12  H7  <0> d           0.987  -4.543   0.466  0.00  0.00     0.081 H 
BRANCH  10  13
ATOM     13  O2  <0> d           0.068  -4.652  -1.389  0.00  0.00    -0.396 OA
ATOM     14  H8  <0> d           0.085  -5.731  -1.601  0.00  0.00     0.209 HD
ENDBRANCH  10  13
ENDBRANCH   4  10
BRANCH   1  15
ATOM     15  C1  <0> d          -0.018   1.503   0.010  0.00  0.00    -0.021 C 
ATOM     16  H1  <0> d          -0.009   1.864   1.049  0.00  0.00     0.037 H 
ATOM     17  H2  <0> d          -0.929   1.860  -0.493  0.00  0.00     0.037 H 
ATOM     18  H3  <0> d           0.867   1.884  -0.519  0.00  0.00     0.037 H 
ENDBRANCH   1  15
TORSDOF 3
