REMARK  3 active torsions:
REMARK  status: ('A' for Active; 'I' for Inactive)
REMARK    1  A    between atoms: C1_1  and  C2_2 
REMARK    2  A    between atoms: C5_6  and  O2_12 
REMARK    3  A    between atoms: C6_8  and  O1_11 
ROOT
ATOM      1  C2  <0> d           0.742  -0.511   1.242  0.00  0.00    -0.055 C 
ATOM      2  H1  <0> d           0.232  -0.159   2.138  0.00  0.00     0.039 H 
ATOM      3  C3  <0> d           0.002  -0.004   0.002  0.00  0.00    -0.060 C 
ATOM      4  C4  <0> d          -0.019   1.526   0.010  0.00  0.00    -0.038 C 
ATOM      5  C5  <0> d           1.417   2.055  -0.000  0.00  0.00     0.060 C 
ATOM      6  H2  <0> d           1.927   1.704  -0.897  0.00  0.00     0.086 H 
ATOM      7  C6  <0> d           2.157   1.548   1.239  0.00  0.00     0.060 C 
ATOM      8  H3  <0> d           1.647   1.900   2.136  0.00  0.00     0.086 H 
ATOM      9  C7  <0> d           2.178   0.019   1.231  0.00  0.00    -0.036 C 
ATOM     10  H7  <0> d          -1.020  -0.381   0.010  0.00  0.00     0.033 H 
ATOM     11  H8  <0> d           0.512  -0.356  -0.895  0.00  0.00     0.033 H 
ATOM     12  H9  <0> d          -0.546   1.887  -0.873  0.00  0.00     0.036 H 
ATOM     13  H10 <0> d          -0.529   1.877   0.907  0.00  0.00     0.036 H 
ATOM     14  H11 <0> d           2.705  -0.342   2.114  0.00  0.00     0.037 H 
ATOM     15  H12 <0> d           2.688  -0.333   0.334  0.00  0.00     0.037 H 
ENDROOT
BRANCH   1  16
ATOM     16  C1  <0> d           0.763  -2.041   1.233  0.00  0.00    -0.073 C 
ATOM     17  H4  <0> d           1.273  -2.392   0.336  0.00  0.00     0.028 H 
ATOM     18  H5  <0> d           1.290  -2.402   2.116  0.00  0.00     0.028 H 
ATOM     19  H6  <0> d          -0.260  -2.418   1.241  0.00  0.00     0.028 H 
ENDBRANCH   1  16
BRANCH   7  20
ATOM     20  O1  <0> d           3.497   2.043   1.229  0.00  0.00    -0.393 OA
ATOM     21  H13 <0> d           3.561   3.008   1.234  0.00  0.00     0.210 HD
ENDBRANCH   7  20
BRANCH   5  22
ATOM     22  O2  <0> d           1.397   3.484   0.007  0.00  0.00    -0.393 OA
ATOM     23  H14 <0> d           0.943   3.876  -0.751  0.00  0.00     0.210 HD
ENDBRANCH   5  22
TORSDOF 3
