REMARK  7 active torsions:
REMARK  status: ('A' for Active; 'I' for Inactive)
REMARK    1  A    between atoms: C1_1  and  C2_2 
REMARK    2  A    between atoms: C2_2  and  C3_3 
REMARK    3  A    between atoms: C2_2  and  C5_6 
REMARK    4  A    between atoms: C2_2  and  O3_9 
REMARK    5  A    between atoms: C3_3  and  C4_4 
REMARK    6  A    between atoms: C4_4  and  O1_5 
REMARK    7  A    between atoms: C5_6  and  C6_7 
ROOT
ATOM      1  C2  <0> d           0.002  -0.004   0.002  0.00  0.00     0.065 C 
ENDROOT
BRANCH   1   2
ATOM      2  C1  <0> d          -0.019   1.526   0.010  0.00  0.00    -0.047 C 
ATOM      3  H1  <0> d           1.004   1.903   0.003  0.00  0.00     0.031 H 
ATOM      4  H2  <0> d          -0.546   1.887  -0.873  0.00  0.00     0.031 H 
ATOM      5  H3  <0> d          -0.529   1.877   0.907  0.00  0.00     0.031 H 
ENDBRANCH   1   2
BRANCH   1   6
ATOM      6  C3  <0> d          -1.433  -0.534   0.013  0.00  0.00    -0.017 C 
ATOM      7  H4  <0> d          -1.933  -0.247  -0.912  0.00  0.00     0.040 H 
ATOM      8  H5  <0> d          -1.419  -1.620   0.097  0.00  0.00     0.040 H 
BRANCH   6   9
ATOM      9  C4  <0> d          -2.187   0.060   1.205  0.00  0.00     0.019 C 
ATOM     10  H6  <0> d          -1.687  -0.227   2.130  0.00  0.00     0.074 H 
ATOM     11  H7  <0> d          -2.201   1.146   1.121  0.00  0.00     0.074 H 
BRANCH   9  12
ATOM     12  O1  <0> d          -3.527  -0.435   1.215  0.00  0.00    -0.401 OA
ATOM     13  H8  <0> d          -4.065  -0.100   1.946  0.00  0.00     0.209 HD
ENDBRANCH   9  12
ENDBRANCH   6   9
ENDBRANCH   1   6
BRANCH   1  14
ATOM     14  C5  <0> d           0.718  -0.497  -1.257  0.00  0.00     0.044 C 
ATOM     15  H9  <0> d           0.733  -1.587  -1.263  0.00  0.00     0.053 H 
ATOM     16  H10 <0> d           0.191  -0.136  -2.140  0.00  0.00     0.053 H 
BRANCH  14  17
ATOM     17  C6  <0> d           2.132   0.024  -1.268  0.00  0.00     0.175 C 
ATOM     18  O2  <0> d           2.526   0.719  -0.361  0.00  0.00    -0.648 OA
ATOM     19  O4  <0> d           2.953  -0.283  -2.284  0.00  0.00    -0.648 OA
ENDBRANCH  14  17
ENDBRANCH   1  14
BRANCH   1  20
ATOM     20  O3  <0> d           0.693  -0.477   1.160  0.00  0.00    -0.390 OA
ATOM     21  H11 <0> d           0.745  -1.441   1.220  0.00  0.00     0.210 HD
ENDBRANCH   1  20
TORSDOF 7
