REMARK  0 active torsions:
REMARK  status: ('A' for Active; 'I' for Inactive)
ROOT
ATOM      1  C1  <0> d          -1.247   3.502   0.032  0.00  0.00    -0.043 A 
ATOM      2  C2  <0> d          -0.057   4.204   0.025  0.00  0.00    -0.040 A 
ATOM      3  C3  <0> d           1.154   3.531   0.010  0.00  0.00     0.156 A 
ATOM      4  C4  <0> d           1.182   2.148   0.002  0.00  0.00     0.178 A 
ATOM      5  C5  <0> d          -0.017   1.428   0.010  0.00  0.00     0.122 A 
ATOM      6  C6  <0> d          -1.239   2.117   0.019  0.00  0.00     0.131 A 
ATOM      7  O1  <0> d          -2.409   1.428   0.021  0.00  0.00    -0.190 OA
ATOM      8  C7  <0> d           0.002  -0.004   0.002  0.00  0.00     0.105 C 
ATOM      9  N1  <0> d           0.018  -1.140  -0.004  0.00  0.00    -0.191 NA
ATOM     10  F1  <0> d           2.364   1.494  -0.013  0.00  0.00    -0.201 F 
ATOM     11  F2  <0> d           2.312   4.228   0.003  0.00  0.00    -0.203 F 
ATOM     12  H1  <0> d          -2.187   4.034   0.044  0.00  0.00     0.088 H 
ATOM     13  H2  <0> d          -0.070   5.284   0.031  0.00  0.00     0.088 H 
ENDROOT
TORSDOF 0
