REMARK  0 active torsions:
REMARK  status: ('A' for Active; 'I' for Inactive)
ROOT
ATOM      1  C1  <0> d           0.669   3.991   0.016  0.00  0.00     0.040 A 
ATOM      2  C2  <0> d          -0.685   3.630   0.028  0.00  0.00     0.042 A 
ATOM      3  N1  <0> d          -1.024   2.363   0.029  0.00  0.00    -0.144 NA
ATOM      4  N2  <0> d          -0.017   1.395   0.010  0.00  0.00     0.051 N 
ATOM      5  C3  <0> d           1.300   1.779  -0.001  0.00  0.00     0.787 A 
ATOM      6  N3  <0> d           1.611   3.077   0.003  0.00  0.00    -0.069 NA
ATOM      7  N4  <0> d           2.016   0.663  -0.014  0.00  0.00     0.069 NA
ATOM      8  N5  <0> d           1.241  -0.363  -0.012  0.00  0.00    -0.006 NA
ATOM      9  N6  <0> d           0.002  -0.004   0.002  0.00  0.00    -0.007 NA
ATOM     10  H1  <0> d           0.942   5.036   0.019  0.00  0.00     0.118 H 
ATOM     11  H2  <0> d          -1.448   4.394   0.039  0.00  0.00     0.119 H 
ENDROOT
TORSDOF 0
