REMARK  6 active torsions:
REMARK  status: ('A' for Active; 'I' for Inactive)
REMARK    1  A    between atoms: C1_1  and  C2_2 
REMARK    2  A    between atoms: C1_1  and  C3_4 
REMARK    3  A    between atoms: C2_2  and  O1_3 
REMARK    4  A    between atoms: C3_4  and  O2_5 
REMARK    5  A    between atoms: O2_5  and  C4_6 
REMARK    6  A    between atoms: C4_6  and  C5_7 
ROOT
ATOM      1  C3  <0> d           1.417   2.055  -0.000  0.00  0.00     0.022 C 
ATOM      2  H6  <0> d           1.944   1.694   0.883  0.00  0.00     0.074 H 
ATOM      3  H7  <0> d           1.927   1.704  -0.897  0.00  0.00     0.074 H 
ENDROOT
BRANCH   1   4
ATOM      4  C1  <0> d          -0.019   1.526   0.010  0.00  0.00    -0.026 C 
ATOM      5  H1  <0> d          -0.546   1.887  -0.873  0.00  0.00     0.039 H 
ATOM      6  H2  <0> d          -0.529   1.877   0.907  0.00  0.00     0.039 H 
BRANCH   4   7
ATOM      7  C2  <0> d           0.002  -0.004   0.002  0.00  0.00     0.019 C 
ATOM      8  H3  <0> d           0.512  -0.356  -0.895  0.00  0.00     0.074 H 
ATOM      9  H4  <0> d           0.529  -0.365   0.885  0.00  0.00     0.074 H 
BRANCH   7  10
ATOM     10  O1  <0> d          -1.339  -0.499   0.012  0.00  0.00    -0.401 OA
ATOM     11  H5  <0> d          -1.402  -1.464   0.008  0.00  0.00     0.209 HD
ENDBRANCH   7  10
ENDBRANCH   4   7
ENDBRANCH   1   4
BRANCH   1  12
ATOM     12  O2  <0> d           1.397   3.484   0.007  0.00  0.00    -0.382 OA
BRANCH  12  13
ATOM     13  C4  <0> d           2.695   4.083  -0.002  0.00  0.00     0.109 C 
ATOM     14  H8  <0> d           3.248   3.764   0.881  0.00  0.00     0.088 H 
ATOM     15  H9  <0> d           3.231   3.774  -0.899  0.00  0.00     0.088 H 
BRANCH  13  16
ATOM     16  C5  <0> d           2.553   5.606   0.008  0.00  0.00     0.408 C 
ATOM     17  F1  <0> d           1.864   6.004   1.159  0.00  0.00    -0.169 F 
ATOM     18  F2  <0> d           3.823   6.193  -0.001  0.00  0.00    -0.169 F 
ATOM     19  F3  <0> d           1.843   6.016  -1.126  0.00  0.00    -0.169 F 
ENDBRANCH  13  16
ENDBRANCH  12  13
ENDBRANCH   1  12
TORSDOF 6
