REMARK  1 active torsions:
REMARK  status: ('A' for Active; 'I' for Inactive)
REMARK    1  A    between atoms: C3_3  and  S1_8 
ROOT
ATOM      1  C1  <0> d          -0.017   1.380   0.010  0.00  0.00    -0.044 A 
ATOM      2  C2  <0> d           1.171   2.087   0.002  0.00  0.00    -0.058 A 
ATOM      3  C3  <0> d           2.377   1.412  -0.013  0.00  0.00     0.075 A 
ATOM      4  C4  <0> d           2.397   0.030  -0.021  0.00  0.00    -0.058 A 
ATOM      5  C5  <0> d           1.211  -0.679  -0.013  0.00  0.00    -0.044 A 
ATOM      6  C6  <0> d           0.002  -0.004   0.002  0.00  0.00     0.116 A 
ATOM      7  F1  <0> d          -1.158  -0.696   0.010  0.00  0.00    -0.206 F 
ATOM      8  H1  <0> d          -0.959   1.908   0.017  0.00  0.00     0.088 H 
ATOM      9  H2  <0> d           1.157   3.167   0.008  0.00  0.00     0.086 H 
ATOM     10  H3  <0> d           3.340  -0.496  -0.032  0.00  0.00     0.086 H 
ATOM     11  H4  <0> d           1.227  -1.759  -0.019  0.00  0.00     0.088 H 
ENDROOT
BRANCH   3  12
ATOM     12  S1  <0> d           3.891   2.314  -0.023  0.00  0.00     0.286 S 
ATOM     13  O1  <0> d           4.033   2.732  -1.374  0.00  0.00    -0.206 OA
ATOM     14  O2  <0> d           3.559   3.598   0.725  0.00  0.00    -0.206 OA
ENDBRANCH   3  12
TORSDOF 1
