REMARK  4 active torsions:
REMARK  status: ('A' for Active; 'I' for Inactive)
REMARK    1  A    between atoms: C1_1  and  O1_2 
REMARK    2  A    between atoms: O1_2  and  C2_3 
REMARK    3  A    between atoms: C3_4  and  C7_9 
REMARK    4  A    between atoms: C7_9  and  O2_10 
ROOT
ATOM      1  C2  <0> d           0.625  -0.617   1.040  0.00  0.00     0.172 A 
ATOM      2  C3  <0> d           0.682  -2.005   1.085  0.00  0.00     0.018 A 
ATOM      3  C4  <0> d           1.320  -2.618   2.149  0.00  0.00    -0.069 A 
ATOM      4  C5  <0> d           1.882  -1.817   3.134  0.00  0.00    -0.065 A 
ATOM      5  C6  <0> d           1.788  -0.445   3.025  0.00  0.00     0.005 A 
ATOM      6  N1  <0> d           1.177   0.111   1.996  0.00  0.00    -0.237 NA
ATOM      7  H4  <0> d           1.380  -3.694   2.211  0.00  0.00     0.084 H 
ATOM      8  H5  <0> d           2.387  -2.264   3.978  0.00  0.00     0.085 H 
ATOM      9  H6  <0> d           2.223   0.182   3.789  0.00  0.00     0.114 H 
ENDROOT
BRANCH   1  10
ATOM     10  O1  <0> d           0.002  -0.004   0.002  0.00  0.00    -0.339 OA
BRANCH  10  11
ATOM     11  C1  <0> d          -0.017   1.425   0.010  0.00  0.00     0.012 C 
ATOM     12  H1  <0> d           1.005   1.802   0.002  0.00  0.00     0.067 H 
ATOM     13  H2  <0> d          -0.544   1.786  -0.873  0.00  0.00     0.067 H 
ATOM     14  H3  <0> d          -0.527   1.776   0.907  0.00  0.00     0.067 H 
ENDBRANCH  10  11
ENDBRANCH   1  10
BRANCH   2  15
ATOM     15  C7  <0> d           0.056  -2.831  -0.009  0.00  0.00     0.044 C 
ATOM     16  H7  <0> d          -1.012  -2.617  -0.060  0.00  0.00     0.081 H 
ATOM     17  H8  <0> d           0.522  -2.584  -0.963  0.00  0.00     0.081 H 
BRANCH  15  18
ATOM     18  O2  <0> d           0.251  -4.218   0.271  0.00  0.00    -0.396 OA
ATOM     19  H9  <0> d          -0.127  -4.811  -0.393  0.00  0.00     0.209 HD
ENDBRANCH  15  18
ENDBRANCH   2  15
TORSDOF 4
