REMARK  4 active torsions:
REMARK  status: ('A' for Active; 'I' for Inactive)
REMARK    1  A    between atoms: C1_1  and  C2_2 
REMARK    2  A    between atoms: C2_2  and  N1_3 
REMARK    3  A    between atoms: N1_3  and  C3_4 
REMARK    4  A    between atoms: N1_3  and  C4_5 
ROOT
ATOM      1  C4  <0> d           0.939  -1.924  -1.138  0.00  0.00     0.246 C 
ATOM      2  C5  <0> d           1.880  -2.242   0.043  0.00  0.00    -0.018 C 
ATOM      3  C6  <0> d           2.779  -3.387  -0.486  0.00  0.00    -0.062 C 
ATOM      4  C7  <0> d           3.013  -2.984  -1.963  0.00  0.00    -0.062 C 
ATOM      5  C8  <0> d           1.659  -2.396  -2.413  0.00  0.00    -0.018 C 
ATOM      6  C9  <0> d          -0.333  -2.648  -0.979  0.00  0.00     0.102 C 
ATOM      7  N2  <0> d          -1.314  -3.206  -0.857  0.00  0.00    -0.194 NA
ATOM      8  H9  <0> d           2.483  -1.370   0.296  0.00  0.00     0.038 H 
ATOM      9  H10 <0> d           1.307  -2.575   0.908  0.00  0.00     0.038 H 
ATOM     10  H11 <0> d           3.722  -3.421   0.059  0.00  0.00     0.033 H 
ATOM     11  H12 <0> d           2.262  -4.344  -0.423  0.00  0.00     0.033 H 
ATOM     12  H13 <0> d           3.798  -2.232  -2.034  0.00  0.00     0.033 H 
ATOM     13  H14 <0> d           3.266  -3.859  -2.561  0.00  0.00     0.033 H 
ATOM     14  H15 <0> d           1.067  -3.162  -2.914  0.00  0.00     0.038 H 
ATOM     15  H16 <0> d           1.824  -1.552  -3.083  0.00  0.00     0.038 H 
ENDROOT
BRANCH   1  16
ATOM     16  N1  <0> d           0.690  -0.478  -1.207  0.00  0.00     0.107 N 
BRANCH  16  17
ATOM     17  C2  <0> d           0.002  -0.004   0.002  0.00  0.00     0.112 C 
ATOM     18  H4  <0> d           0.529  -0.365   0.885  0.00  0.00     0.079 H 
ATOM     19  H5  <0> d          -1.020  -0.381   0.010  0.00  0.00     0.079 H 
BRANCH  17  20
ATOM     20  C1  <0> d          -0.019   1.526   0.010  0.00  0.00    -0.051 C 
ATOM     21  H1  <0> d           1.004   1.903   0.003  0.00  0.00     0.029 H 
ATOM     22  H2  <0> d          -0.546   1.887  -0.873  0.00  0.00     0.029 H 
ATOM     23  H3  <0> d          -0.529   1.877   0.907  0.00  0.00     0.029 H 
ENDBRANCH  17  20
ENDBRANCH  16  17
BRANCH  16  24
ATOM     24  C3  <0> d          -0.071  -0.132  -2.415  0.00  0.00     0.097 C 
ATOM     25  H6  <0> d          -0.181   0.951  -2.477  0.00  0.00     0.071 H 
ATOM     26  H7  <0> d           0.460  -0.494  -3.295  0.00  0.00     0.071 H 
ATOM     27  H8  <0> d          -1.056  -0.596  -2.369  0.00  0.00     0.071 H 
ENDBRANCH  16  24
ENDBRANCH   1  16
TORSDOF 4
