REMARK  0 active torsions:
REMARK  status: ('A' for Active; 'I' for Inactive)
ROOT
ATOM      1  C1  <0> d           3.370   2.531  -0.018  0.00  0.00    -0.061 A 
ATOM      2  C2  <0> d           2.472   1.505  -0.014  0.00  0.00    -0.055 A 
ATOM      3  C3  <0> d           1.104   1.770   0.001  0.00  0.00     0.042 A 
ATOM      4  C4  <0> d           0.652   3.104   0.013  0.00  0.00    -0.007 A 
ATOM      5  C5  <0> d          -0.811   3.036   0.026  0.00  0.00    -0.056 A 
ATOM      6  C6  <0> d          -1.142   1.736   0.016  0.00  0.00    -0.022 A 
ATOM      7  N1  <0> d          -0.011   0.966   0.007  0.00  0.00    -0.365 N 
ATOM      8  H1  <0> d           0.002  -0.004   0.002  0.00  0.00     0.165 HD
ATOM      9  C7  <0> d           1.572   4.151   0.009  0.00  0.00    -0.051 A 
ATOM     10  C8  <0> d           2.934   3.864  -0.006  0.00  0.00     0.045 A 
ATOM     11  C9  <0> d           3.890   4.930  -0.011  0.00  0.00     0.099 C 
ATOM     12  N2  <0> d           4.648   5.775  -0.015  0.00  0.00    -0.191 NA
ATOM     13  H2  <0> d           4.428   2.315  -0.029  0.00  0.00     0.085 H 
ATOM     14  H3  <0> d           2.822   0.484  -0.022  0.00  0.00     0.087 H 
ATOM     15  H4  <0> d          -1.494   3.873   0.037  0.00  0.00     0.086 H 
ATOM     16  H5  <0> d          -2.152   1.353   0.019  0.00  0.00     0.111 H 
ATOM     17  H6  <0> d           1.231   5.176   0.017  0.00  0.00     0.087 H 
ENDROOT
TORSDOF 0
