REMARK  2 active torsions:
REMARK  status: ('A' for Active; 'I' for Inactive)
REMARK    1  A    between atoms: C1_1  and  N1_2 
REMARK       I    between atoms: N1_2  and  C2_3 
REMARK       I    between atoms: C2_3  and  N2_5 
REMARK    2  A    between atoms: N2_5  and  C3_6 
ROOT
ATOM      1  C3  <0> d          -0.058  -0.004   0.008  0.00  0.00     0.131 A 
ATOM      2  C4  <0> d          -1.280  -0.656   0.123  0.00  0.00    -0.038 A 
ATOM      3  C5  <0> d          -1.307  -2.040   0.120  0.00  0.00    -0.078 A 
ATOM      4  C6  <0> d          -0.106  -2.725   0.000  0.00  0.00    -0.066 A 
ATOM      5  C7  <0> d           1.071  -2.012  -0.111  0.00  0.00     0.004 A 
ATOM      6  N3  <0> d           1.065  -0.693  -0.109  0.00  0.00    -0.243 NA
ATOM      7  H6  <0> d          -2.196  -0.092   0.215  0.00  0.00     0.089 H 
ATOM      8  H7  <0> d          -2.242  -2.574   0.208  0.00  0.00     0.083 H 
ATOM      9  H8  <0> d          -0.092  -3.805  -0.006  0.00  0.00     0.085 H 
ATOM     10  H9  <0> d           2.008  -2.541  -0.204  0.00  0.00     0.114 H 
ENDROOT
BRANCH   1  11
ATOM     11  N2  <0> d          -0.017   1.390   0.010  0.00  0.00    -0.293 N 
ATOM     12  C2  <0> d           1.170   2.029   0.002  0.00  0.00     0.321 C 
ATOM     13  N1  <0> d           1.213   3.372   0.107  0.00  0.00    -0.347 N 
ATOM     14  O1  <0> d           2.201   1.393  -0.100  0.00  0.00    -0.247 OA
ATOM     15  H4  <0> d           0.390   3.878   0.189  0.00  0.00     0.163 HD
ATOM     16  H5  <0> d          -0.842   1.899   0.021  0.00  0.00     0.172 HD
BRANCH  13  17
ATOM     17  C1  <0> d           2.503   4.066   0.099  0.00  0.00    -0.017 C 
ATOM     18  H1  <0> d           3.109   3.717   0.934  0.00  0.00     0.056 H 
ATOM     19  H2  <0> d           3.021   3.859  -0.838  0.00  0.00     0.056 H 
ATOM     20  H3  <0> d           2.338   5.139   0.193  0.00  0.00     0.056 H 
ENDBRANCH  13  17
ENDBRANCH   1  11
TORSDOF 2
