REMARK  5 active torsions:
REMARK  status: ('A' for Active; 'I' for Inactive)
REMARK    1  A    between atoms: C1_1  and  C2_2 
REMARK    2  A    between atoms: C2_2  and  O1_3 
REMARK    3  A    between atoms: O1_3  and  C3_4 
REMARK    4  A    between atoms: C3_4  and  C4_6 
REMARK    5  A    between atoms: C6_8  and  N3_12 
ROOT
ATOM      1  C4  <0> d          -2.848  -2.418   0.016  0.00  0.00     0.129 A 
ATOM      2  C5  <0> d          -3.163  -3.762   0.018  0.00  0.00    -0.004 A 
ATOM      3  C6  <0> d          -4.556  -3.870   0.029  0.00  0.00     0.143 A 
ATOM      4  N1  <0> d          -5.071  -2.662   0.034  0.00  0.00    -0.157 NA
ATOM      5  N2  <0> d          -4.028  -1.728   0.032  0.00  0.00    -0.270 N 
ATOM      6  H1  <0> d          -4.125  -0.763   0.038  0.00  0.00     0.189 HD
ATOM      7  H7  <0> d          -2.459  -4.582   0.011  0.00  0.00     0.093 H 
ENDROOT
BRANCH   1   8
ATOM      8  C3  <0> d          -1.497  -1.837   0.006  0.00  0.00     0.311 C 
ATOM      9  O2  <0> d          -0.523  -2.565  -0.007  0.00  0.00    -0.258 OA
BRANCH   8  10
ATOM     10  O1  <0> d          -1.339  -0.499   0.012  0.00  0.00    -0.317 OA
BRANCH  10  11
ATOM     11  C2  <0> d           0.002  -0.004   0.002  0.00  0.00     0.026 C 
ATOM     12  H5  <0> d           0.512  -0.356  -0.895  0.00  0.00     0.074 H 
ATOM     13  H6  <0> d           0.529  -0.365   0.885  0.00  0.00     0.074 H 
BRANCH  11  14
ATOM     14  C1  <0> d          -0.019   1.526   0.010  0.00  0.00    -0.056 C 
ATOM     15  H2  <0> d           1.004   1.903   0.003  0.00  0.00     0.030 H 
ATOM     16  H3  <0> d          -0.546   1.887  -0.873  0.00  0.00     0.030 H 
ATOM     17  H4  <0> d          -0.529   1.877   0.907  0.00  0.00     0.030 H 
ENDBRANCH  11  14
ENDBRANCH  10  11
ENDBRANCH   8  10
ENDBRANCH   1   8
BRANCH   3  18
ATOM     18  N3  <0> d          -5.283  -5.067   0.033  0.00  0.00    -0.383 N 
ATOM     19  H8  <0> d          -4.816  -5.918   0.028  0.00  0.00     0.157 HD
ATOM     20  H9  <0> d          -6.252  -5.046   0.041  0.00  0.00     0.157 HD
ENDBRANCH   3  18
TORSDOF 5
