REMARK  6 active torsions:
REMARK  status: ('A' for Active; 'I' for Inactive)
REMARK    1  A    between atoms: C1_1  and  C2_2 
REMARK    2  A    between atoms: C2_2  and  C3_3 
REMARK    3  A    between atoms: C3_3  and  C4_4 
REMARK    4  A    between atoms: C4_4  and  C5_6 
REMARK    5  A    between atoms: C5_6  and  C6_7 
REMARK    6  A    between atoms: C6_7  and  C7_8 
ROOT
ATOM      1  C4  <0> d           0.739  -2.004  -1.265  0.00  0.00     0.127 C 
ATOM      2  O1  <0> d           0.233  -2.620  -0.358  0.00  0.00    -0.298 OA
ENDROOT
BRANCH   1   3
ATOM      3  C3  <0> d           0.718  -0.497  -1.257  0.00  0.00    -0.010 C 
ATOM      4  H6  <0> d           0.191  -0.136  -2.140  0.00  0.00     0.044 H 
ATOM      5  H7  <0> d           1.741  -0.120  -1.264  0.00  0.00     0.044 H 
BRANCH   3   6
ATOM      6  C2  <0> d           0.002  -0.004   0.002  0.00  0.00    -0.062 C 
ATOM      7  H4  <0> d           0.529  -0.365   0.885  0.00  0.00     0.033 H 
ATOM      8  H5  <0> d          -1.020  -0.381   0.010  0.00  0.00     0.033 H 
BRANCH   6   9
ATOM      9  C1  <0> d          -0.019   1.526   0.010  0.00  0.00    -0.076 C 
ATOM     10  H1  <0> d           1.004   1.903   0.003  0.00  0.00     0.027 H 
ATOM     11  H2  <0> d          -0.546   1.887  -0.873  0.00  0.00     0.027 H 
ATOM     12  H3  <0> d          -0.529   1.877   0.907  0.00  0.00     0.027 H 
ENDBRANCH   6   9
ENDBRANCH   3   6
ENDBRANCH   1   3
BRANCH   1  13
ATOM     13  C5  <0> d           1.391  -2.743  -2.406  0.00  0.00    -0.007 C 
ATOM     14  H8  <0> d           0.893  -2.481  -3.340  0.00  0.00     0.044 H 
ATOM     15  H9  <0> d           2.443  -2.465  -2.464  0.00  0.00     0.044 H 
BRANCH  13  16
ATOM     16  C6  <0> d           1.274  -4.250  -2.170  0.00  0.00    -0.044 C 
ATOM     17  H10 <0> d           1.771  -4.512  -1.236  0.00  0.00     0.039 H 
ATOM     18  H11 <0> d           0.221  -4.528  -2.112  0.00  0.00     0.039 H 
BRANCH  16  19
ATOM     19  C7  <0> d           1.925  -4.989  -3.311  0.00  0.00    -0.112 C 
ATOM     20  C8  <0> d           2.865  -5.868  -3.069  0.00  0.00    -0.125 C 
ATOM     21  H13 <0> d           3.173  -6.064  -2.053  0.00  0.00     0.066 H 
ATOM     22  H14 <0> d           3.333  -6.397  -3.887  0.00  0.00     0.066 H 
ATOM     23  H12 <0> d           1.617  -4.793  -4.327  0.00  0.00     0.075 H 
ENDBRANCH  16  19
ENDBRANCH  13  16
ENDBRANCH   1  13
TORSDOF 6
