REMARK  3 active torsions:
REMARK  status: ('A' for Active; 'I' for Inactive)
REMARK    1  A    between atoms: C3_3  and  N1_10 
REMARK    2  A    between atoms: C6_6  and  C7_7 
REMARK    3  A    between atoms: C7_7  and  C8_8 
ROOT
ATOM      1  C1  <0> d           0.002  -0.004   0.002  0.00  0.00    -0.074 A 
ATOM      2  C2  <0> d          -0.017   1.377   0.010  0.00  0.00    -0.057 A 
ATOM      3  C3  <0> d           1.178   2.086   0.002  0.00  0.00     0.025 A 
ATOM      4  C4  <0> d           2.387   1.403  -0.012  0.00  0.00    -0.057 A 
ATOM      5  C5  <0> d           2.399   0.022  -0.020  0.00  0.00    -0.074 A 
ATOM      6  C6  <0> d           1.208  -0.681  -0.013  0.00  0.00    -0.048 A 
ATOM      7  H1  <0> d          -0.926  -0.556   0.008  0.00  0.00     0.084 H 
ATOM      8  H2  <0> d          -0.959   1.905   0.017  0.00  0.00     0.086 H 
ATOM      9  H3  <0> d           3.318   1.952  -0.018  0.00  0.00     0.086 H 
ATOM     10  H4  <0> d           3.339  -0.509  -0.032  0.00  0.00     0.084 H 
ENDROOT
BRANCH   6  11
ATOM     11  C7  <0> d           1.224  -2.188  -0.021  0.00  0.00     0.039 C 
ATOM     12  H5  <0> d           2.123  -2.544   0.482  0.00  0.00     0.056 H 
ATOM     13  H6  <0> d           0.344  -2.563   0.499  0.00  0.00     0.056 H 
BRANCH  11  14
ATOM     14  C8  <0> d           1.216  -2.682  -1.445  0.00  0.00     0.176 C 
ATOM     15  O1  <0> d           1.199  -1.892  -2.359  0.00  0.00    -0.648 OA
ATOM     16  O2  <0> d           1.228  -4.000  -1.697  0.00  0.00    -0.648 OA
ENDBRANCH  11  14
ENDBRANCH   6  11
BRANCH   3  17
ATOM     17  N1  <0> d           1.162   3.483   0.009  0.00  0.00    -0.399 N 
ATOM     18  H7  <0> d           0.317   3.958   0.019  0.00  0.00     0.156 HD
ATOM     19  H8  <0> d           1.997   3.977   0.004  0.00  0.00     0.156 HD
ENDBRANCH   3  17
TORSDOF 3
