REMARK  3 active torsions:
REMARK  status: ('A' for Active; 'I' for Inactive)
REMARK    1  A    between atoms: C1_1  and  C2_2 
REMARK    2  A    between atoms: C2_2  and  O1_3 
REMARK    3  A    between atoms: N1_4  and  C3_5 
ROOT
ATOM      1  C2  <0> d           0.002  -0.004   0.002  0.00  0.00     0.153 C 
ATOM      2  N1  <0> d           0.000  -0.649  -1.129  0.00  0.00    -0.042 NA
ENDROOT
BRANCH   2   3
ATOM      3  C3  <0> d           0.019  -2.012  -1.137  0.00  0.00     0.746 A 
ATOM      4  N2  <0> d           0.039  -2.797  -0.075  0.00  0.00    -0.053 NA
ATOM      5  C4  <0> d           0.053  -4.071  -0.459  0.00  0.00     0.125 A 
ATOM      6  H5  <0> d           0.071  -4.924   0.204  0.00  0.00     0.150 H 
ATOM      7  N3  <0> d           0.042  -4.128  -1.765  0.00  0.00    -0.152 NA
ATOM      8  N4  <0> d           0.014  -2.805  -2.235  0.00  0.00    -0.104 N 
ATOM      9  H1  <0> d          -0.004  -2.517  -3.161  0.00  0.00     0.208 HD
ENDBRANCH   2   3
BRANCH   1  10
ATOM     10  C1  <0> d          -0.018   1.503   0.010  0.00  0.00    -0.015 C 
ATOM     11  H2  <0> d           1.004   1.880   0.003  0.00  0.00     0.038 H 
ATOM     12  H3  <0> d          -0.545   1.864  -0.873  0.00  0.00     0.038 H 
ATOM     13  H4  <0> d          -0.529   1.854   0.907  0.00  0.00     0.038 H 
ENDBRANCH   1  10
BRANCH   1  14
ATOM     14  O1  <0> d           0.022  -0.684   1.165  0.00  0.00    -0.348 OA
ATOM     15  H6  <0> d           0.022  -0.120   1.950  0.00  0.00     0.219 HD
ENDBRANCH   1  14
TORSDOF 3
