REMARK  5 active torsions:
REMARK  status: ('A' for Active; 'I' for Inactive)
REMARK    1  A    between atoms: C1_1  and  C2_2 
REMARK    2  A    between atoms: C4_4  and  C7_8 
REMARK    3  A    between atoms: C7_8  and  C8_9 
REMARK    4  A    between atoms: C7_8  and  C9_10 
REMARK    5  A    between atoms: C7_8  and  C10_11 
ROOT
ATOM      1  C2  <0> d           1.096   2.023   0.003  0.00  0.00     0.030 A 
ATOM      2  C3  <0> d           2.331   1.401  -0.013  0.00  0.00    -0.053 A 
ATOM      3  C4  <0> d           2.389   0.017  -0.021  0.00  0.00    -0.047 A 
ATOM      4  C5  <0> d           1.199  -0.695  -0.013  0.00  0.00    -0.059 A 
ATOM      5  C6  <0> d           0.002  -0.004   0.002  0.00  0.00     0.003 A 
ATOM      6  N1  <0> d          -0.016   1.315   0.009  0.00  0.00    -0.266 NA
ATOM      7  H4  <0> d           3.238   1.987  -0.018  0.00  0.00     0.087 H 
ATOM      8  H5  <0> d           1.207  -1.775  -0.019  0.00  0.00     0.086 H 
ATOM      9  H6  <0> d          -0.929  -0.550   0.008  0.00  0.00     0.114 H 
ENDROOT
BRANCH   3  10
ATOM     10  C7  <0> d           3.715  -0.699  -0.038  0.00  0.00    -0.024 C 
BRANCH  10  11
ATOM     11  C8  <0> d           3.479  -2.211  -0.044  0.00  0.00    -0.066 C 
ATOM     12  H7  <0> d           4.447  -2.733  -0.056  0.00  0.00     0.028 H 
ATOM     13  H8  <0> d           2.901  -2.488  -0.938  0.00  0.00     0.028 H 
ATOM     14  H9  <0> d           2.919  -2.498   0.858  0.00  0.00     0.028 H 
ENDBRANCH  10  11
BRANCH  10  15
ATOM     15  C9  <0> d           4.495  -0.300  -1.292  0.00  0.00    -0.066 C 
ATOM     16  H10 <0> d           5.463  -0.822  -1.305  0.00  0.00     0.028 H 
ATOM     17  H11 <0> d           4.665   0.787  -1.288  0.00  0.00     0.028 H 
ATOM     18  H12 <0> d           3.917  -0.577  -2.186  0.00  0.00     0.028 H 
ENDBRANCH  10  15
BRANCH  10  19
ATOM     19  C10 <0> d           4.519  -0.314   1.206  0.00  0.00    -0.066 C 
ATOM     20  H13 <0> d           5.487  -0.837   1.194  0.00  0.00     0.028 H 
ATOM     21  H14 <0> d           3.959  -0.601   2.108  0.00  0.00     0.028 H 
ATOM     22  H15 <0> d           4.689   0.773   1.210  0.00  0.00     0.028 H 
ENDBRANCH  10  19
ENDBRANCH   3  10
BRANCH   1  23
ATOM     23  C1  <0> d           1.020   3.528   0.011  0.00  0.00    -0.035 C 
ATOM     24  H1  <0> d           2.038   3.947   0.003  0.00  0.00     0.035 H 
ATOM     25  H2  <0> d           0.492   3.864   0.916  0.00  0.00     0.035 H 
ATOM     26  H3  <0> d           0.476   3.873  -0.881  0.00  0.00     0.035 H 
ENDBRANCH   1  23
TORSDOF 5
