REMARK  3 active torsions:
REMARK  status: ('A' for Active; 'I' for Inactive)
REMARK    1  A    between atoms: C1_1  and  C2_2 
REMARK    2  A    between atoms: C2_2  and  O2_4 
REMARK    3  A    between atoms: O2_4  and  C3_5 
ROOT
ATOM      1  C3  <0> d          -0.019   1.534   0.011  0.00  0.00     0.048 C 
ATOM      2  C4  <0> d           1.453   1.995  -0.001  0.00  0.00    -0.040 C 
ATOM      3  C5  <0> d           2.232   0.792   0.586  0.00  0.00    -0.063 C 
ATOM      4  C6  <0> d           1.486  -0.425  -0.014  0.00  0.00    -0.063 C 
ATOM      5  C7  <0> d           0.002  -0.004   0.002  0.00  0.00    -0.040 C 
ATOM      6  H4  <0> d          -0.516   1.896   0.910  0.00  0.00     0.084 H 
ATOM      7  H5  <0> d           1.781   2.201  -1.020  0.00  0.00     0.036 H 
ATOM      8  H6  <0> d           1.582   2.877   0.627  0.00  0.00     0.036 H 
ATOM      9  H7  <0> d           2.169   0.786   1.675  0.00  0.00     0.033 H 
ATOM     10  H8  <0> d           3.272   0.808   0.259  0.00  0.00     0.033 H 
ATOM     11  H9  <0> d           1.639  -1.309   0.604  0.00  0.00     0.033 H 
ATOM     12  H10 <0> d           1.819  -0.610  -1.036  0.00  0.00     0.033 H 
ATOM     13  H11 <0> d          -0.485  -0.389   0.898  0.00  0.00     0.036 H 
ATOM     14  H12 <0> d          -0.502  -0.379  -0.888  0.00  0.00     0.036 H 
ENDROOT
BRANCH   1  15
ATOM     15  O2  <0> d          -0.704   2.029  -1.170  0.00  0.00    -0.316 OA
BRANCH  15  16
ATOM     16  C2  <0> d          -1.347   3.202  -1.055  0.00  0.00     0.255 C 
ATOM     17  O1  <0> d          -1.338   3.795  -0.003  0.00  0.00    -0.266 OA
BRANCH  16  18
ATOM     18  C1  <0> d          -2.081   3.778  -2.239  0.00  0.00     0.004 C 
ATOM     19  H1  <0> d          -3.111   3.421  -2.237  0.00  0.00     0.041 H 
ATOM     20  H2  <0> d          -2.073   4.866  -2.176  0.00  0.00     0.041 H 
ATOM     21  H3  <0> d          -1.589   3.464  -3.159  0.00  0.00     0.041 H 
ENDBRANCH  16  18
ENDBRANCH  15  16
ENDBRANCH   1  15
TORSDOF 3
