REMARK  3 active torsions:
REMARK  status: ('A' for Active; 'I' for Inactive)
REMARK    1  A    between atoms: C1_1  and  S1_2 
REMARK    2  A    between atoms: S1_2  and  C2_3 
REMARK    3  A    between atoms: N3_9  and  N4_10 
ROOT
ATOM      1  C2  <0> d           2.262   1.419  -0.012  0.00  0.00     0.207 A 
ATOM      2  N1  <0> d           1.071   1.993   0.003  0.00  0.00    -0.123 NA
ATOM      3  N2  <0> d          -0.016   1.308   0.009  0.00  0.00    -0.154 NA
ATOM      4  C3  <0> d           0.002  -0.004   0.002  0.00  0.00     0.090 A 
ATOM      5  C4  <0> d           1.241  -0.681  -0.013  0.00  0.00     0.283 A 
ATOM      6  O1  <0> d           1.289  -1.899  -0.021  0.00  0.00    -0.265 OA
ATOM      7  N3  <0> d           2.373   0.060  -0.020  0.00  0.00    -0.218 N 
ATOM      8  H4  <0> d          -0.923  -0.561   0.008  0.00  0.00     0.126 H 
ENDROOT
BRANCH   1   9
ATOM      9  S1  <0> d           3.715   2.415  -0.020  0.00  0.00    -0.093 SA
BRANCH   9  10
ATOM     10  C1  <0> d           2.966   4.063  -0.004  0.00  0.00    -0.027 C 
ATOM     11  H1  <0> d           2.340   4.186  -0.888  0.00  0.00     0.042 H 
ATOM     12  H2  <0> d           2.357   4.176   0.892  0.00  0.00     0.042 H 
ATOM     13  H3  <0> d           3.752   4.819  -0.008  0.00  0.00     0.042 H 
ENDBRANCH   9  10
ENDBRANCH   1   9
BRANCH   7  14
ATOM     14  N4  <0> d           3.600  -0.540  -0.036  0.00  0.00    -0.238 NA
ATOM     15  H5  <0> d           3.511  -1.545  -0.041  0.00  0.00     0.143 HD
ATOM     16  H6  <0> d           4.148  -0.222  -0.821  0.00  0.00     0.143 HD
ENDBRANCH   7  14
TORSDOF 3
