REMARK  7 active torsions:
REMARK  status: ('A' for Active; 'I' for Inactive)
REMARK    1  A    between atoms: C1_1  and  C2_2 
REMARK    2  A    between atoms: C2_2  and  C3_3 
REMARK    3  A    between atoms: C3_3  and  C4_4 
REMARK       I    between atoms: C4_4  and  N1_6 
REMARK    4  A    between atoms: N1_6  and  C5_7 
REMARK    5  A    between atoms: N1_6  and  C7_9 
REMARK    6  A    between atoms: C5_7  and  C6_8 
REMARK    7  A    between atoms: C7_9  and  C8_10 
ROOT
ATOM      1  C4  <0> d          -0.014   1.209   0.009  0.00  0.00     0.219 C 
ATOM      2  O1  <0> d           0.002  -0.004   0.002  0.00  0.00    -0.273 OA
ATOM      3  N1  <0> d           1.143   1.898   0.001  0.00  0.00    -0.353 N 
ENDROOT
BRANCH   3   4
ATOM      4  C5  <0> d           1.124   3.363   0.009  0.00  0.00    -0.006 C 
ATOM      5  H8  <0> d           2.004   3.741  -0.511  0.00  0.00     0.063 H 
ATOM      6  H9  <0> d           0.224   3.717  -0.494  0.00  0.00     0.063 H 
BRANCH   4   7
ATOM      7  C6  <0> d           1.131   3.865   1.455  0.00  0.00    -0.061 C 
ATOM      8  H10 <0> d           0.251   3.487   1.975  0.00  0.00     0.029 H 
ATOM      9  H11 <0> d           2.030   3.511   1.958  0.00  0.00     0.029 H 
ATOM     10  H12 <0> d           1.116   4.955   1.461  0.00  0.00     0.029 H 
ENDBRANCH   4   7
ENDBRANCH   3   4
BRANCH   3  11
ATOM     11  C7  <0> d           2.422   1.183  -0.015  0.00  0.00    -0.006 C 
ATOM     12  H13 <0> d           3.179   1.780   0.495  0.00  0.00     0.063 H 
ATOM     13  H14 <0> d           2.309   0.226   0.495  0.00  0.00     0.063 H 
BRANCH  11  14
ATOM     14  C8  <0> d           2.853   0.942  -1.463  0.00  0.00    -0.061 C 
ATOM     15  H15 <0> d           2.097   0.345  -1.973  0.00  0.00     0.029 H 
ATOM     16  H16 <0> d           2.966   1.899  -1.972  0.00  0.00     0.029 H 
ATOM     17  H17 <0> d           3.804   0.410  -1.475  0.00  0.00     0.029 H 
ENDBRANCH  11  14
ENDBRANCH   3  11
BRANCH   1  18
ATOM     18  C3  <0> d          -1.330   1.944   0.019  0.00  0.00     0.009 C 
ATOM     19  H6  <0> d          -1.392   2.565   0.913  0.00  0.00     0.047 H 
ATOM     20  H7  <0> d          -1.400   2.575  -0.867  0.00  0.00     0.047 H 
BRANCH  18  21
ATOM     21  C2  <0> d          -2.479   0.934   0.019  0.00  0.00    -0.061 C 
ATOM     22  H4  <0> d          -2.417   0.313  -0.875  0.00  0.00     0.033 H 
ATOM     23  H5  <0> d          -2.408   0.304   0.905  0.00  0.00     0.033 H 
BRANCH  21  24
ATOM     24  C1  <0> d          -3.814   1.681   0.029  0.00  0.00    -0.076 C 
ATOM     25  H1  <0> d          -3.876   2.302   0.923  0.00  0.00     0.027 H 
ATOM     26  H2  <0> d          -3.885   2.312  -0.857  0.00  0.00     0.027 H 
ATOM     27  H3  <0> d          -4.633   0.962   0.029  0.00  0.00     0.027 H 
ENDBRANCH  21  24
ENDBRANCH  18  21
ENDBRANCH   1  18
TORSDOF 7
