REMARK  2 active torsions:
REMARK  status: ('A' for Active; 'I' for Inactive)
REMARK    1  A    between atoms: C1_1  and  C2_2 
REMARK    2  A    between atoms: C4_4  and  C8_11 
ROOT
ATOM      1  C2  <0> d           0.002  -0.004   0.002  0.00  0.00    -0.035 C 
ATOM      2  C3  <0> d           0.006  -0.716  -1.206  0.00  0.00    -0.047 C 
ATOM      3  C4  <0> d          -0.098  -2.062  -1.216  0.00  0.00     0.052 C 
ATOM      4  O1  <0> d          -0.310  -2.755  -0.083  0.00  0.00    -0.297 OA
ATOM      5  C5  <0> d           0.109  -2.195   1.080  0.00  0.00     0.162 C 
ATOM      6  N1  <0> d           0.576  -2.927   2.060  0.00  0.00    -0.378 N 
ATOM      7  C6  <0> d           0.023  -0.724   1.194  0.00  0.00     0.101 C 
ATOM      8  C7  <0> d          -0.040  -0.072   2.467  0.00  0.00     0.104 C 
ATOM      9  N2  <0> d          -0.089   0.445   3.477  0.00  0.00    -0.191 NA
ATOM     10  H4  <0> d           0.093  -0.181  -2.140  0.00  0.00     0.088 H 
ATOM     11  H5  <0> d           0.626  -3.891   1.964  0.00  0.00     0.158 HD
ATOM     12  H9  <0> d           0.870  -2.506   2.882  0.00  0.00     0.158 HD
ENDROOT
BRANCH   1  13
ATOM     13  C1  <0> d          -0.018   1.503   0.010  0.00  0.00    -0.050 C 
ATOM     14  H1  <0> d           1.004   1.880   0.003  0.00  0.00     0.033 H 
ATOM     15  H2  <0> d          -0.545   1.864  -0.873  0.00  0.00     0.033 H 
ATOM     16  H3  <0> d          -0.529   1.854   0.907  0.00  0.00     0.033 H 
ENDBRANCH   1  13
BRANCH   3  17
ATOM     17  C8  <0> d           0.026  -2.803  -2.522  0.00  0.00    -0.031 C 
ATOM     18  H6  <0> d           1.071  -3.061  -2.696  0.00  0.00     0.036 H 
ATOM     19  H7  <0> d          -0.571  -3.713  -2.482  0.00  0.00     0.036 H 
ATOM     20  H8  <0> d          -0.332  -2.169  -3.334  0.00  0.00     0.036 H 
ENDBRANCH   3  17
TORSDOF 2
