REMARK  1 active torsions:
REMARK  status: ('A' for Active; 'I' for Inactive)
REMARK    1  A    between atoms: C5_7  and  N2_8 
ROOT
ATOM      1  C1  <0> d          -0.019   1.540   0.011  0.00  0.00    -0.056 C 
ATOM      2  C2  <0> d           0.002  -0.004   0.002  0.00  0.00    -0.035 C 
ATOM      3  C3  <0> d           1.316  -0.386   0.631  0.00  0.00     0.022 A 
ATOM      4  C4  <0> d           2.182   0.723   0.631  0.00  0.00     0.072 A 
ATOM      5  N1  <0> d           3.291   0.322   1.187  0.00  0.00    -0.130 NA
ATOM      6  O1  <0> d           3.234  -0.841   1.518  0.00  0.00    -0.195 OA
ATOM      7  C5  <0> d           2.040  -1.379   1.215  0.00  0.00     0.174 A 
ATOM      8  C6  <0> d           1.482   1.902  -0.002  0.00  0.00    -0.022 C 
ATOM      9  H1  <0> d          -0.516   1.925  -0.880  0.00  0.00     0.034 H 
ATOM     10  H2  <0> d          -0.499   1.915   0.914  0.00  0.00     0.034 H 
ATOM     11  H3  <0> d          -0.827  -0.397   0.591  0.00  0.00     0.040 H 
ATOM     12  H4  <0> d          -0.052  -0.377  -1.021  0.00  0.00     0.040 H 
ATOM     13  H7  <0> d           1.829   2.041  -1.026  0.00  0.00     0.042 H 
ATOM     14  H8  <0> d           1.658   2.804   0.583  0.00  0.00     0.042 H 
ENDROOT
BRANCH   7  15
ATOM     15  N2  <0> d           1.629  -2.678   1.450  0.00  0.00    -0.378 N 
ATOM     16  H5  <0> d           0.739  -2.961   1.188  0.00  0.00     0.158 HD
ATOM     17  H6  <0> d           2.232  -3.308   1.877  0.00  0.00     0.158 HD
ENDBRANCH   7  15
TORSDOF 1
