REMARK  1 active torsions:
REMARK  status: ('A' for Active; 'I' for Inactive)
REMARK    1  A    between atoms: C4_5  and  C6_8 
ROOT
ATOM      1  C1  <0> d          -3.341  -1.339  -1.300  0.00  0.00    -0.060 C 
ATOM      2  C2  <0> d          -2.978  -2.818  -1.134  0.00  0.00    -0.045 C 
ATOM      3  C3  <0> d          -2.180  -2.998   0.159  0.00  0.00     0.021 C 
ATOM      4  O1  <0> d          -1.014  -2.173   0.117  0.00  0.00    -0.375 OA
ATOM      5  C4  <0> d          -1.293  -0.775   0.010  0.00  0.00     0.122 C 
ATOM      6  H1  <0> d          -1.899  -0.459   0.860  0.00  0.00     0.100 H 
ATOM      7  C5  <0> d          -2.056  -0.506  -1.289  0.00  0.00    -0.031 C 
ATOM      8  H2  <0> d          -3.984  -1.027  -0.477  0.00  0.00     0.033 H 
ATOM      9  H3  <0> d          -3.862  -1.194  -2.246  0.00  0.00     0.033 H 
ATOM     10  H4  <0> d          -3.890  -3.413  -1.085  0.00  0.00     0.036 H 
ATOM     11  H5  <0> d          -2.377  -3.143  -1.983  0.00  0.00     0.036 H 
ATOM     12  H6  <0> d          -2.797  -2.712   1.010  0.00  0.00     0.074 H 
ATOM     13  H7  <0> d          -1.883  -4.042   0.261  0.00  0.00     0.074 H 
ATOM     14  H8  <0> d          -2.308   0.553  -1.351  0.00  0.00     0.037 H 
ATOM     15  H9  <0> d          -1.434  -0.783  -2.141  0.00  0.00     0.037 H 
ENDROOT
BRANCH   5  16
ATOM     16  C6  <0> d           0.002  -0.004   0.002  0.00  0.00     0.203 C 
ATOM     17  O2  <0> d           1.056  -0.594  -0.011  0.00  0.00    -0.646 OA
ATOM     18  O3  <0> d          -0.016   1.338   0.009  0.00  0.00    -0.646 OA
ENDBRANCH   5  16
TORSDOF 1
