REMARK  6 active torsions:
REMARK  status: ('A' for Active; 'I' for Inactive)
REMARK    1  A    between atoms: C1_1  and  C2_2 
REMARK    2  A    between atoms: C2_2  and  C3_3 
REMARK    3  A    between atoms: C4_4  and  C5_5 
REMARK    4  A    between atoms: C5_5  and  C6_6 
REMARK    5  A    between atoms: C6_6  and  O1_7 
REMARK    6  A    between atoms: O1_7  and  C7_8 
ROOT
ATOM      1  C2  <0> d           0.002  -0.004   0.002  0.00  0.00    -0.064 C 
ATOM      2  C4  <0> d           0.000  -0.680  -1.183  0.00  0.00    -0.037 C 
ATOM      3  H6  <0> d          -0.016  -0.135  -2.115  0.00  0.00     0.097 H 
ENDROOT
BRANCH   2   4
ATOM      4  C5  <0> d           0.018  -1.987  -1.190  0.00  0.00    -0.120 C 
BRANCH   4   5
ATOM      5  C6  <0> d           0.035  -3.294  -1.198  0.00  0.00     0.123 C 
ATOM      6  H7  <0> d          -0.892  -3.846  -1.192  0.00  0.00     0.108 H 
BRANCH   5   7
ATOM      7  O1  <0> d           1.216  -3.954  -1.212  0.00  0.00    -0.376 OA
BRANCH   7   8
ATOM      8  C7  <0> d           1.161  -5.382  -1.220  0.00  0.00     0.006 C 
ATOM      9  H8  <0> d           0.642  -5.730  -0.327  0.00  0.00     0.066 H 
ATOM     10  H9  <0> d           0.625  -5.720  -2.106  0.00  0.00     0.066 H 
ATOM     11  H10 <0> d           2.174  -5.785  -1.231  0.00  0.00     0.066 H 
ENDBRANCH   7   8
ENDBRANCH   5   7
ENDBRANCH   4   5
ENDBRANCH   2   4
BRANCH   1  12
ATOM     12  C1  <0> d          -0.018   1.503   0.010  0.00  0.00    -0.051 C 
ATOM     13  H1  <0> d           1.004   1.880   0.003  0.00  0.00     0.033 H 
ATOM     14  H2  <0> d          -0.545   1.864  -0.873  0.00  0.00     0.033 H 
ATOM     15  H3  <0> d          -0.529   1.854   0.907  0.00  0.00     0.033 H 
ENDBRANCH   1  12
BRANCH   1  16
ATOM     16  C3  <0> d           0.023  -0.692   1.179  0.00  0.00    -0.115 C 
ATOM     17  H4  <0> d           0.037  -1.772   1.174  0.00  0.00     0.067 H 
ATOM     18  H5  <0> d           0.024  -0.158   2.118  0.00  0.00     0.067 H 
ENDBRANCH   1  16
TORSDOF 6
