REMARK  1 active torsions:
REMARK  status: ('A' for Active; 'I' for Inactive)
REMARK    1  A    between atoms: C4_5  and  N1_6 
ROOT
ATOM      1  C1  <0> d          -0.017   1.378   0.010  0.00  0.00    -0.049 A 
ATOM      2  C2  <0> d           1.157   2.051   0.002  0.00  0.00    -0.041 A 
ATOM      3  S1  <0> d           2.329   0.849  -0.016  0.00  0.00    -0.089 SA
ATOM      4  C3  <0> d           1.269  -0.585  -0.013  0.00  0.00     0.111 A 
ATOM      5  C4  <0> d           0.002  -0.004   0.002  0.00  0.00     0.054 A 
ATOM      6  C5  <0> d           1.627  -1.972  -0.025  0.00  0.00     0.109 C 
ATOM      7  N2  <0> d           1.910  -3.071  -0.034  0.00  0.00    -0.191 NA
ATOM      8  H1  <0> d          -0.955   1.913   0.026  0.00  0.00     0.087 H 
ATOM      9  H2  <0> d           1.306   3.121   0.006  0.00  0.00     0.095 H 
ENDROOT
BRANCH   5  10
ATOM     10  N1  <0> d          -1.167  -0.765   0.009  0.00  0.00    -0.397 N 
ATOM     11  H3  <0> d          -2.031  -0.326   0.020  0.00  0.00     0.156 HD
ATOM     12  H4  <0> d          -1.114  -1.734   0.004  0.00  0.00     0.156 HD
ENDBRANCH   5  10
TORSDOF 1
