REMARK  7 active torsions:
REMARK  status: ('A' for Active; 'I' for Inactive)
REMARK    1  A    between atoms: C1_1  and  C2_2 
REMARK    2  A    between atoms: C2_2  and  O1_3 
REMARK    3  A    between atoms: O1_3  and  C3_4 
REMARK    4  A    between atoms: C3_4  and  C4_5 
REMARK    5  A    between atoms: C4_5  and  O2_6 
REMARK    6  A    between atoms: O2_6  and  C5_7 
REMARK    7  A    between atoms: C5_7  and  C6_9 
ROOT
ATOM      1  C3  <0> d          -1.432  -1.925   0.005  0.00  0.00     0.040 C 
ATOM      2  H6  <0> d          -0.952  -2.316  -0.891  0.00  0.00     0.077 H 
ATOM      3  H7  <0> d          -0.935  -2.325   0.888  0.00  0.00     0.077 H 
ENDROOT
BRANCH   1   4
ATOM      4  O1  <0> d          -1.339  -0.499   0.012  0.00  0.00    -0.389 OA
BRANCH   4   5
ATOM      5  C2  <0> d           0.002  -0.004   0.002  0.00  0.00     0.016 C 
ATOM      6  H4  <0> d           0.512  -0.356  -0.895  0.00  0.00     0.073 H 
ATOM      7  H5  <0> d           0.529  -0.365   0.885  0.00  0.00     0.073 H 
BRANCH   5   8
ATOM      8  C1  <0> d          -0.019   1.526   0.010  0.00  0.00    -0.056 C 
ATOM      9  H1  <0> d           1.004   1.903   0.003  0.00  0.00     0.030 H 
ATOM     10  H2  <0> d          -0.546   1.887  -0.873  0.00  0.00     0.030 H 
ATOM     11  H3  <0> d          -0.529   1.877   0.907  0.00  0.00     0.030 H 
ENDBRANCH   5   8
ENDBRANCH   4   5
ENDBRANCH   1   4
BRANCH   1  12
ATOM     12  C4  <0> d          -2.905  -2.339   0.017  0.00  0.00     0.048 C 
ATOM     13  H8  <0> d          -2.976  -3.424   0.102  0.00  0.00     0.078 H 
ATOM     14  H9  <0> d          -3.406  -1.875   0.866  0.00  0.00     0.078 H 
BRANCH  12  15
ATOM     15  O2  <0> d          -3.529  -1.914  -1.196  0.00  0.00    -0.320 OA
BRANCH  15  16
ATOM     16  C5  <0> d          -4.832  -2.202  -1.344  0.00  0.00     0.254 C 
ATOM     17  O3  <0> d          -5.422  -2.796  -0.473  0.00  0.00    -0.266 OA
BRANCH  16  18
ATOM     18  C6  <0> d          -5.558  -1.785  -2.597  0.00  0.00     0.004 C 
ATOM     19  H10 <0> d          -5.484  -2.578  -3.341  0.00  0.00     0.041 H 
ATOM     20  H11 <0> d          -6.606  -1.600  -2.365  0.00  0.00     0.041 H 
ATOM     21  H12 <0> d          -5.107  -0.874  -2.992  0.00  0.00     0.041 H 
ENDBRANCH  16  18
ENDBRANCH  15  16
ENDBRANCH  12  15
ENDBRANCH   1  12
TORSDOF 7
