REMARK  0 active torsions:
REMARK  status: ('A' for Active; 'I' for Inactive)
ROOT
ATOM      1  C1  <0> d          -0.013   1.086   0.008  0.00  0.00    -0.057 C 
ATOM      2  C2  <0> d          -0.717   1.573   1.274  0.00  0.00    -0.052 C 
ATOM      3  C3  <0> d          -2.003   2.328   0.900  0.00  0.00     0.020 C 
ATOM      4  H1  <0> d          -2.475   2.616   1.734  0.00  0.00     0.058 H 
ATOM      5  C4  <0> d          -1.570   3.479  -0.004  0.00  0.00    -0.095 C 
ATOM      6  C5  <0> d          -0.909   3.094  -1.110  0.00  0.00    -0.102 C 
ATOM      7  C6  <0> d          -0.744   1.589  -1.243  0.00  0.00    -0.032 C 
ATOM      8  H2  <0> d          -0.188   1.336  -2.146  0.00  0.00     0.046 H 
ATOM      9  C7  <0> d          -2.147   0.949  -1.262  0.00  0.00    -0.003 C 
ATOM     10  C8  <0> d          -2.834   1.403   0.016  0.00  0.00     0.135 C 
ATOM     11  O1  <0> d          -3.954   1.057   0.310  0.00  0.00    -0.297 OA
ATOM     12  H3  <0> d           0.002  -0.004   0.002  0.00  0.00     0.034 H 
ATOM     13  H4  <0> d           1.011   1.459   0.000  0.00  0.00     0.034 H 
ATOM     14  H5  <0> d          -0.990   0.716   1.889  0.00  0.00     0.034 H 
ATOM     15  H6  <0> d          -0.044   2.221   1.835  0.00  0.00     0.034 H 
ATOM     16  H7  <0> d          -1.768   4.516   0.227  0.00  0.00     0.077 H 
ATOM     17  H8  <0> d          -0.539   3.786  -1.852  0.00  0.00     0.077 H 
ATOM     18  H9  <0> d          -2.643   1.259  -2.074  0.00  0.00     0.045 H 
ATOM     19  H10 <0> d          -2.064  -0.137  -1.280  0.00  0.00     0.045 H 
ENDROOT
TORSDOF 0
