REMARK  5 active torsions:
REMARK  status: ('A' for Active; 'I' for Inactive)
REMARK    1  A    between atoms: C1_1  and  C2_2 
REMARK    2  A    between atoms: C2_2  and  C3_3 
REMARK    3  A    between atoms: C2_2  and  C4_4 
REMARK    4  A    between atoms: C9_9  and  O1_10 
REMARK    5  A    between atoms: O1_10  and  C10_11 
ROOT
ATOM      1  C4  <0> d          -1.425   3.409   2.465  0.00  0.00    -0.021 A 
ATOM      2  C5  <0> d          -1.531   4.776   2.627  0.00  0.00    -0.074 A 
ATOM      3  C6  <0> d          -1.003   5.630   1.677  0.00  0.00    -0.082 A 
ATOM      4  C7  <0> d          -0.367   5.117   0.561  0.00  0.00    -0.080 A 
ATOM      5  C8  <0> d          -0.253   3.751   0.396  0.00  0.00    -0.050 A 
ATOM      6  C9  <0> d          -0.787   2.892   1.346  0.00  0.00     0.074 A 
ATOM      7  H8  <0> d          -2.026   5.179   3.498  0.00  0.00     0.084 H 
ATOM      8  H9  <0> d          -1.087   6.699   1.806  0.00  0.00     0.083 H 
ATOM      9  H10 <0> d           0.045   5.786  -0.180  0.00  0.00     0.083 H 
ATOM     10  H11 <0> d           0.247   3.351  -0.473  0.00  0.00     0.087 H 
ENDROOT
BRANCH   1  11
ATOM     11  C2  <0> d          -2.000   2.479   3.502  0.00  0.00    -0.033 C 
ATOM     12  H4  <0> d          -1.820   1.446   3.203  0.00  0.00     0.046 H 
BRANCH  11  13
ATOM     13  C1  <0> d          -1.330   2.743   4.852  0.00  0.00    -0.069 C 
ATOM     14  H1  <0> d          -1.746   2.071   5.602  0.00  0.00     0.028 H 
ATOM     15  H2  <0> d          -0.257   2.572   4.765  0.00  0.00     0.028 H 
ATOM     16  H3  <0> d          -1.510   3.776   5.150  0.00  0.00     0.028 H 
ENDBRANCH  11  13
BRANCH  11  17
ATOM     17  C3  <0> d          -3.506   2.720   3.623  0.00  0.00    -0.069 C 
ATOM     18  H5  <0> d          -3.983   2.531   2.662  0.00  0.00     0.028 H 
ATOM     19  H6  <0> d          -3.922   2.047   4.373  0.00  0.00     0.028 H 
ATOM     20  H7  <0> d          -3.686   3.752   3.922  0.00  0.00     0.028 H 
ENDBRANCH  11  17
ENDBRANCH   1  11
BRANCH   6  21
ATOM     21  O1  <0> d          -0.682   1.547   1.184  0.00  0.00    -0.355 OA
BRANCH  21  22
ATOM     22  C10 <0> d          -0.013   1.086   0.008  0.00  0.00     0.010 C 
ATOM     23  H12 <0> d           0.002  -0.004   0.002  0.00  0.00     0.066 H 
ATOM     24  H13 <0> d           1.010   1.463   0.000  0.00  0.00     0.066 H 
ATOM     25  H14 <0> d          -0.540   1.447  -0.875  0.00  0.00     0.066 H 
ENDBRANCH  21  22
ENDBRANCH   6  21
TORSDOF 5
