REMARK  2 active torsions:
REMARK  status: ('A' for Active; 'I' for Inactive)
REMARK    1  A    between atoms: C4_4  and  C7_7 
REMARK    2  A    between atoms: C7_7  and  N2_11 
ROOT
ATOM      1  C7  <0> d           1.423   1.615  -0.003  0.00  0.00     0.215 C 
ATOM      2  H1  <0> d           1.944   1.354  -0.935  0.00  0.00     0.112 H 
ATOM      3  C8  <0> d           1.406   3.082   0.126  0.00  0.00     0.095 C 
ATOM      4  N1  <0> d           1.393   4.213   0.226  0.00  0.00    -0.195 NA
ENDROOT
BRANCH   1   5
ATOM      5  C4  <0> d          -0.013   1.086   0.008  0.00  0.00    -0.012 C 
ATOM      6  C3  <0> d          -0.753   1.593  -1.232  0.00  0.00    -0.059 C 
ATOM      7  C2  <0> d          -2.188   1.063  -1.221  0.00  0.00    -0.065 C 
ATOM      8  H6  <0> d          -0.238   1.238  -2.136  0.00  0.00     0.033 H 
ATOM      9  H7  <0> d          -0.768   2.693  -1.225  0.00  0.00     0.033 H 
ATOM     10  C1  <0> d          -2.904   1.556   0.038  0.00  0.00    -0.065 C 
ATOM     11  H4  <0> d          -2.173  -0.037  -1.227  0.00  0.00     0.033 H 
ATOM     12  H5  <0> d          -2.720   1.427  -2.112  0.00  0.00     0.033 H 
ATOM     13  C6  <0> d          -2.164   1.050   1.278  0.00  0.00    -0.065 C 
ATOM     14  H2  <0> d          -3.936   1.176   0.046  0.00  0.00     0.033 H 
ATOM     15  H3  <0> d          -2.919   2.656   0.044  0.00  0.00     0.033 H 
ATOM     16  C5  <0> d          -0.729   1.579   1.267  0.00  0.00    -0.059 C 
ATOM     17  H11 <0> d          -2.679   1.405   2.183  0.00  0.00     0.033 H 
ATOM     18  H12 <0> d          -2.149  -0.050   1.272  0.00  0.00     0.033 H 
ATOM     19  H9  <0> d          -0.197   1.215   2.158  0.00  0.00     0.033 H 
ATOM     20  H10 <0> d          -0.744   2.679   1.273  0.00  0.00     0.033 H 
ATOM     21  H8  <0> d           0.002  -0.014   0.002  0.00  0.00     0.044 H 
ENDBRANCH   1   5
BRANCH   1  22
ATOM     22  N2  <0> d           2.168   1.034   1.121  0.00  0.00     0.096 N 
ATOM     23  H13 <0> d           3.200   1.414   1.114  0.00  0.00     0.314 HD
ATOM     24  H14 <0> d           1.681   1.313   2.068  0.00  0.00     0.314 HD
ENDBRANCH   1  22
TORSDOF 2
