REMARK  9 active torsions:
REMARK  status: ('A' for Active; 'I' for Inactive)
REMARK    1  A    between atoms: C1_1  and  C2_2 
REMARK    2  A    between atoms: C2_2  and  C3_4 
REMARK    3  A    between atoms: C2_2  and  O3_12 
REMARK    4  A    between atoms: C3_4  and  O1_5 
REMARK    5  A    between atoms: O1_5  and  C4_6 
REMARK    6  A    between atoms: C4_6  and  C5_8 
REMARK    7  A    between atoms: C4_6  and  C6_9 
REMARK    8  A    between atoms: C6_9  and  O2_10 
REMARK    9  A    between atoms: O2_10  and  C7_11 
ROOT
ATOM      1  C4  <0> d           2.002   1.296  -3.651  0.00  0.00     0.055 C 
ATOM      2  H2  <0> d           2.500   0.332  -3.546  0.00  0.00     0.086 H 
ENDROOT
BRANCH   1   3
ATOM      3  O1  <0> d           1.376   1.645  -2.415  0.00  0.00    -0.382 OA
BRANCH   3   4
ATOM      4  C3  <0> d           2.040   1.127  -1.261  0.00  0.00     0.043 C 
ATOM      5  H6  <0> d           3.059   1.512  -1.225  0.00  0.00     0.078 H 
ATOM      6  H7  <0> d           2.063   0.039  -1.313  0.00  0.00     0.078 H 
BRANCH   4   7
ATOM      7  C2  <0> d           1.286   1.562  -0.002  0.00  0.00     0.052 C 
ATOM      8  H1  <0> d           1.186   2.647   0.005  0.00  0.00     0.085 H 
BRANCH   7   9
ATOM      9  C1  <0> d           2.064   1.114   1.238  0.00  0.00    -0.051 C 
ATOM     10  H3  <0> d           2.164   0.029   1.231  0.00  0.00     0.031 H 
ATOM     11  H4  <0> d           3.053   1.571   1.231  0.00  0.00     0.031 H 
ATOM     12  H5  <0> d           1.527   1.423   2.135  0.00  0.00     0.031 H 
ENDBRANCH   7   9
BRANCH   7  13
ATOM     13  O3  <0> d          -0.011   0.963   0.007  0.00  0.00    -0.394 OA
ATOM     14  H16 <0> d           0.002  -0.004   0.002  0.00  0.00     0.210 HD
ENDBRANCH   7  13
ENDBRANCH   4   7
ENDBRANCH   3   4
ENDBRANCH   1   3
BRANCH   1  15
ATOM     15  C5  <0> d           3.033   2.364  -4.021  0.00  0.00    -0.050 C 
ATOM     16  H8  <0> d           3.787   2.428  -3.237  0.00  0.00     0.031 H 
ATOM     17  H9  <0> d           3.511   2.097  -4.964  0.00  0.00     0.031 H 
ATOM     18  H10 <0> d           2.535   3.328  -4.126  0.00  0.00     0.031 H 
ENDBRANCH   1  15
BRANCH   1  19
ATOM     19  C6  <0> d           0.943   1.206  -4.752  0.00  0.00     0.043 C 
ATOM     20  H11 <0> d           1.406   0.853  -5.674  0.00  0.00     0.078 H 
ATOM     21  H12 <0> d           0.162   0.509  -4.449  0.00  0.00     0.078 H 
BRANCH  19  22
ATOM     22  O2  <0> d           0.372   2.497  -4.970  0.00  0.00    -0.393 OA
BRANCH  22  23
ATOM     23  C7  <0> d          -0.634   2.524  -5.984  0.00  0.00     0.004 C 
ATOM     24  H13 <0> d          -0.204   2.199  -6.932  0.00  0.00     0.066 H 
ATOM     25  H14 <0> d          -1.448   1.855  -5.706  0.00  0.00     0.066 H 
ATOM     26  H15 <0> d          -1.018   3.539  -6.089  0.00  0.00     0.066 H 
ENDBRANCH  22  23
ENDBRANCH  19  22
ENDBRANCH   1  19
TORSDOF 9
