REMARK  4 active torsions:
REMARK  status: ('A' for Active; 'I' for Inactive)
REMARK    1  A    between atoms: C1_1  and  C2_2 
REMARK    2  A    between atoms: C5_6  and  C10_13 
REMARK    3  A    between atoms: C6_8  and  C8_11 
REMARK    4  A    between atoms: C6_8  and  C9_12 
ROOT
ATOM      1  C2  <0> d          -0.729   1.579   1.267  0.00  0.00     0.001 C 
ATOM      2  H1  <0> d          -1.669   1.240   1.270  0.00  0.00     0.051 H 
ATOM      3  C3  <0> d          -0.731   3.111   1.291  0.00  0.00    -0.055 C 
ATOM      4  C4  <0> d          -1.321   3.598   2.615  0.00  0.00    -0.060 C 
ATOM      5  C5  <0> d          -0.430   3.150   3.776  0.00  0.00    -0.044 C 
ATOM      6  H2  <0> d           0.584   3.515   3.618  0.00  0.00     0.041 H 
ATOM      7  C6  <0> d          -0.417   1.619   3.845  0.00  0.00     0.017 C 
ATOM      8  C7  <0> d           0.000   1.080   2.495  0.00  0.00     0.139 C 
ATOM      9  O1  <0> d           0.892   0.272   2.399  0.00  0.00    -0.297 OA
ATOM     10  H6  <0> d           0.291   3.478   1.191  0.00  0.00     0.034 H 
ATOM     11  H7  <0> d          -1.334   3.487   0.464  0.00  0.00     0.034 H 
ATOM     12  H8  <0> d          -2.319   3.180   2.743  0.00  0.00     0.033 H 
ATOM     13  H9  <0> d          -1.383   4.686   2.606  0.00  0.00     0.033 H 
ENDROOT
BRANCH   7  14
ATOM     14  C8  <0> d          -1.817   1.109   4.192  0.00  0.00    -0.062 C 
ATOM     15  H10 <0> d          -1.809   0.019   4.224  0.00  0.00     0.029 H 
ATOM     16  H11 <0> d          -2.115   1.498   5.165  0.00  0.00     0.029 H 
ATOM     17  H12 <0> d          -2.525   1.444   3.434  0.00  0.00     0.029 H 
ENDBRANCH   7  14
BRANCH   7  18
ATOM     18  C9  <0> d           0.578   1.158   4.912  0.00  0.00    -0.062 C 
ATOM     19  H13 <0> d           1.573   1.529   4.666  0.00  0.00     0.029 H 
ATOM     20  H14 <0> d           0.275   1.548   5.884  0.00  0.00     0.029 H 
ATOM     21  H15 <0> d           0.594   0.069   4.947  0.00  0.00     0.029 H 
ENDBRANCH   7  18
BRANCH   5  22
ATOM     22  C10 <0> d          -0.978   3.716   5.087  0.00  0.00    -0.072 C 
ATOM     23  H16 <0> d          -0.344   3.395   5.914  0.00  0.00     0.028 H 
ATOM     24  H17 <0> d          -0.987   4.804   5.038  0.00  0.00     0.028 H 
ATOM     25  H18 <0> d          -1.993   3.350   5.245  0.00  0.00     0.028 H 
ENDBRANCH   5  22
BRANCH   1  26
ATOM     26  C1  <0> d          -0.013   1.086   0.008  0.00  0.00    -0.066 C 
ATOM     27  H3  <0> d           0.002  -0.004   0.002  0.00  0.00     0.028 H 
ATOM     28  H4  <0> d           1.010   1.463   0.000  0.00  0.00     0.028 H 
ATOM     29  H5  <0> d          -0.540   1.447  -0.875  0.00  0.00     0.028 H 
ENDBRANCH   1  26
TORSDOF 4
