REMARK  4 active torsions:
REMARK  status: ('A' for Active; 'I' for Inactive)
REMARK    1  A    between atoms: C1_1  and  C2_2 
REMARK       I    between atoms: C2_2  and  N1_4 
REMARK    2  A    between atoms: N1_4  and  C3_5 
REMARK    3  A    between atoms: C3_5  and  C4_6 
REMARK    4  A    between atoms: C4_6  and  O2_7 
ROOT
ATOM      1  C2  <0> d           0.306   4.819   1.500  0.00  0.00     0.213 C 
ATOM      2  O1  <0> d           0.614   5.644   0.666  0.00  0.00    -0.274 OA
ATOM      3  N1  <0> d           0.530   3.511   1.268  0.00  0.00    -0.359 N 
ATOM      4  H4  <0> d           0.285   2.851   1.935  0.00  0.00     0.162 HD
ENDROOT
BRANCH   3   5
ATOM      5  C3  <0> d           1.145   3.085   0.008  0.00  0.00     0.015 C 
ATOM      6  H5  <0> d           2.130   3.542  -0.089  0.00  0.00     0.067 H 
ATOM      7  H6  <0> d           0.516   3.397  -0.827  0.00  0.00     0.067 H 
BRANCH   5   8
ATOM      8  C4  <0> d           1.286   1.562  -0.002  0.00  0.00     0.031 C 
ATOM      9  H7  <0> d           1.840   1.243   0.881  0.00  0.00     0.076 H 
ATOM     10  H8  <0> d           1.823   1.252  -0.899  0.00  0.00     0.076 H 
BRANCH   8  11
ATOM     11  O2  <0> d          -0.011   0.963   0.007  0.00  0.00    -0.399 OA
ATOM     12  H9  <0> d           0.002  -0.004   0.002  0.00  0.00     0.209 HD
ENDBRANCH   8  11
ENDBRANCH   5   8
ENDBRANCH   3   5
BRANCH   1  13
ATOM     13  C1  <0> d          -0.326   5.257   2.796  0.00  0.00    -0.003 C 
ATOM     14  H1  <0> d          -0.529   4.383   3.414  0.00  0.00     0.040 H 
ATOM     15  H2  <0> d           0.354   5.925   3.325  0.00  0.00     0.040 H 
ATOM     16  H3  <0> d          -1.259   5.780   2.587  0.00  0.00     0.040 H 
ENDBRANCH   1  13
TORSDOF 4
