REMARK  9 active torsions:
REMARK  status: ('A' for Active; 'I' for Inactive)
REMARK    1  A    between atoms: C1_1  and  C2_2 
REMARK    2  A    between atoms: C2_2  and  C3_3 
REMARK    3  A    between atoms: C3_3  and  C4_4 
REMARK    4  A    between atoms: C4_4  and  C5_5 
REMARK    5  A    between atoms: C5_5  and  C6_6 
REMARK    6  A    between atoms: C6_6  and  C7_7 
REMARK    7  A    between atoms: C7_7  and  C8_8 
REMARK    8  A    between atoms: C7_7  and  C9_9 
REMARK    9  A    between atoms: C7_7  and  O1_11 
ROOT
ATOM      1  C9  <0> d           0.002  -0.004   0.002  0.00  0.00    -0.080 C 
ATOM      2  C10 <0> d           0.018  -1.178  -0.004  0.00  0.00    -0.151 C 
ATOM      3  H17 <0> d           0.032  -2.228  -0.010  0.00  0.00     0.166 H 
ENDROOT
BRANCH   1   4
ATOM      4  C7  <0> d          -0.018   1.468   0.010  0.00  0.00     0.116 C 
BRANCH   4   5
ATOM      5  C6  <0> d          -0.758   1.975  -1.229  0.00  0.00    -0.026 C 
ATOM      6  H12 <0> d          -0.301   1.551  -2.124  0.00  0.00     0.038 H 
ATOM      7  H13 <0> d          -1.804   1.672  -1.177  0.00  0.00     0.038 H 
BRANCH   5   8
ATOM      8  C5  <0> d          -0.671   3.501  -1.286  0.00  0.00    -0.061 C 
ATOM      9  H10 <0> d          -1.128   3.925  -0.392  0.00  0.00     0.033 H 
ATOM     10  H11 <0> d           0.375   3.804  -1.339  0.00  0.00     0.033 H 
BRANCH   8  11
ATOM     11  C4  <0> d          -1.411   4.008  -2.526  0.00  0.00    -0.065 C 
ATOM     12  H8  <0> d          -0.954   3.584  -3.420  0.00  0.00     0.033 H 
ATOM     13  H9  <0> d          -2.457   3.705  -2.474  0.00  0.00     0.033 H 
BRANCH  11  14
ATOM     14  C3  <0> d          -1.325   5.534  -2.583  0.00  0.00    -0.065 C 
ATOM     15  H6  <0> d          -1.781   5.958  -1.689  0.00  0.00     0.033 H 
ATOM     16  H7  <0> d          -0.279   5.837  -2.635  0.00  0.00     0.033 H 
BRANCH  14  17
ATOM     17  C2  <0> d          -2.065   6.041  -3.823  0.00  0.00    -0.069 C 
ATOM     18  H4  <0> d          -1.608   5.618  -4.717  0.00  0.00     0.032 H 
ATOM     19  H5  <0> d          -3.110   5.738  -3.771  0.00  0.00     0.032 H 
BRANCH  17  20
ATOM     20  C1  <0> d          -1.978   7.568  -3.880  0.00  0.00    -0.077 C 
ATOM     21  H1  <0> d          -2.505   7.929  -4.763  0.00  0.00     0.027 H 
ATOM     22  H2  <0> d          -2.435   7.991  -2.985  0.00  0.00     0.027 H 
ATOM     23  H3  <0> d          -0.932   7.871  -3.932  0.00  0.00     0.027 H 
ENDBRANCH  17  20
ENDBRANCH  14  17
ENDBRANCH  11  14
ENDBRANCH   8  11
ENDBRANCH   5   8
ENDBRANCH   4   5
BRANCH   4  24
ATOM     24  C8  <0> d           1.417   1.997  -0.001  0.00  0.00    -0.037 C 
ATOM     25  H14 <0> d           1.928   1.646  -0.897  0.00  0.00     0.033 H 
ATOM     26  H15 <0> d           1.403   3.087   0.005  0.00  0.00     0.033 H 
ATOM     27  H16 <0> d           1.945   1.636   0.882  0.00  0.00     0.033 H 
ENDBRANCH   4  24
BRANCH   4  28
ATOM     28  O1  <0> d          -0.687   1.929   1.186  0.00  0.00    -0.378 OA
ATOM     29  H18 <0> d          -1.604   1.630   1.259  0.00  0.00     0.211 HD
ENDBRANCH   4  28
ENDBRANCH   1   4
TORSDOF 9
