REMARK  1 active torsions:
REMARK  status: ('A' for Active; 'I' for Inactive)
REMARK    1  A    between atoms: C3_4  and  O3_12 
ROOT
ATOM      1  C1  <0> d          -1.187   2.926  -0.740  0.00  0.00     0.050 C 
ATOM      2  C2  <0> d          -0.886   3.020   0.769  0.00  0.00     0.090 C 
ATOM      3  H1  <0> d          -1.674   3.521   1.349  0.00  0.00     0.091 H 
ATOM      4  C3  <0> d           0.453   3.733   0.983  0.00  0.00     0.079 C 
ATOM      5  H2  <0> d           0.461   4.725   0.508  0.00  0.00     0.093 H 
ATOM      6  C4  <0> d           1.577   2.893   0.440  0.00  0.00    -0.072 C 
ATOM      7  C5  <0> d           1.381   1.681  -0.002  0.00  0.00    -0.052 C 
ATOM      8  C6  <0> d          -0.013   1.086   0.008  0.00  0.00     0.149 C 
ATOM      9  H3  <0> d          -0.029  -0.014   0.011  0.00  0.00     0.136 H 
ATOM     10  O1  <0> d          -0.695   1.634  -1.142  0.00  0.00    -0.355 OA
ATOM     11  O2  <0> d          -0.698   1.621   1.164  0.00  0.00    -0.348 OA
ATOM     12  H4  <0> d          -0.663   3.710  -1.306  0.00  0.00     0.078 H 
ATOM     13  H5  <0> d          -2.266   2.986  -0.942  0.00  0.00     0.078 H 
ATOM     14  H6  <0> d           2.587   3.328   0.421  0.00  0.00     0.080 H 
ATOM     15  H7  <0> d           2.227   1.090  -0.382  0.00  0.00     0.084 H 
ENDROOT
BRANCH   4  16
ATOM     16  O3  <0> d           0.656   3.950   2.381  0.00  0.00    -0.389 OA
ATOM     17  H8  <0> d           1.569   4.453   2.732  0.00  0.00     0.210 HD
ENDBRANCH   4  16
TORSDOF 1
