REMARK  7 active torsions:
REMARK  status: ('A' for Active; 'I' for Inactive)
REMARK    1  A    between atoms: C1_1  and  C2_2 
REMARK    2  A    between atoms: C2_2  and  C3_3 
REMARK    3  A    between atoms: C3_3  and  O1_6 
REMARK    4  A    between atoms: C4_4  and  C5_5 
REMARK    5  A    between atoms: O1_6  and  C6_7 
REMARK    6  A    between atoms: C6_7  and  C7_8 
REMARK    7  A    between atoms: C6_7  and  C8_9 
ROOT
ATOM      1  C3  <0> d           0.022  -0.034   0.200  0.00  0.00     0.042 C 
ATOM      2  C4  <0> d           0.043   1.224   0.589  0.00  0.00    -0.079 C 
ATOM      3  H6  <0> d           0.987   1.726   0.745  0.00  0.00     0.080 H 
ENDROOT
BRANCH   1   4
ATOM      4  C2  <0> d          -1.288  -0.772   0.105  0.00  0.00    -0.024 C 
ATOM      5  H4  <0> d          -1.140  -1.815   0.386  0.00  0.00     0.042 H 
ATOM      6  H5  <0> d          -2.013  -0.314   0.779  0.00  0.00     0.042 H 
BRANCH   4   7
ATOM      7  C1  <0> d          -1.811  -0.700  -1.331  0.00  0.00    -0.071 C 
ATOM      8  H1  <0> d          -2.759  -1.234  -1.400  0.00  0.00     0.028 H 
ATOM      9  H2  <0> d          -1.960   0.343  -1.612  0.00  0.00     0.028 H 
ATOM     10  H3  <0> d          -1.087  -1.158  -2.005  0.00  0.00     0.028 H 
ENDBRANCH   4   7
ENDBRANCH   1   4
BRANCH   1  11
ATOM     11  O1  <0> d           1.181  -0.666  -0.115  0.00  0.00    -0.351 OA
BRANCH  11  12
ATOM     12  C6  <0> d           2.371   0.124  -0.116  0.00  0.00     0.038 C 
ATOM     13  H10 <0> d           2.138   1.133  -0.459  0.00  0.00     0.082 H 
BRANCH  12  14
ATOM     14  C7  <0> d           2.943   0.187   1.302  0.00  0.00    -0.052 C 
ATOM     15  H11 <0> d           3.176  -0.821   1.644  0.00  0.00     0.030 H 
ATOM     16  H12 <0> d           3.851   0.790   1.301  0.00  0.00     0.030 H 
ATOM     17  H13 <0> d           2.208   0.637   1.970  0.00  0.00     0.030 H 
ENDBRANCH  12  14
BRANCH  12  18
ATOM     18  C8  <0> d           3.402  -0.507  -1.054  0.00  0.00    -0.052 C 
ATOM     19  H14 <0> d           2.995  -0.551  -2.064  0.00  0.00     0.030 H 
ATOM     20  H15 <0> d           4.310   0.096  -1.055  0.00  0.00     0.030 H 
ATOM     21  H16 <0> d           3.635  -1.515  -0.712  0.00  0.00     0.030 H 
ENDBRANCH  12  18
ENDBRANCH  11  12
ENDBRANCH   1  11
BRANCH   2  22
ATOM     22  C5  <0> d          -1.250   1.966   0.810  0.00  0.00    -0.058 C 
ATOM     23  H7  <0> d          -1.821   1.987  -0.118  0.00  0.00     0.032 H 
ATOM     24  H8  <0> d          -1.831   1.461   1.582  0.00  0.00     0.032 H 
ATOM     25  H9  <0> d          -1.034   2.986   1.127  0.00  0.00     0.032 H 
ENDBRANCH   2  22
TORSDOF 7
