REMARK  4 active torsions:
REMARK  status: ('A' for Active; 'I' for Inactive)
REMARK    1  A    between atoms: C1_1  and  N1_2 
REMARK    2  A    between atoms: N1_2  and  C2_3 
REMARK    3  A    between atoms: C3_4  and  O1_9 
REMARK    4  A    between atoms: O1_9  and  C7_10 
ROOT
ATOM      1  C2  <0> d           1.232  -0.664  -0.013  0.00  0.00     0.156 A 
ATOM      2  C3  <0> d           0.002  -0.004   0.002  0.00  0.00     0.113 A 
ATOM      3  C4  <0> d          -0.017   1.382   0.010  0.00  0.00    -0.046 A 
ATOM      4  C5  <0> d           1.195   2.061   0.002  0.00  0.00    -0.063 A 
ATOM      5  C6  <0> d           2.373   1.342  -0.013  0.00  0.00     0.005 A 
ATOM      6  N2  <0> d           2.363   0.022  -0.020  0.00  0.00    -0.241 NA
ATOM      7  H5  <0> d          -0.952   1.922   0.017  0.00  0.00     0.088 H 
ATOM      8  H6  <0> d           1.216   3.141   0.007  0.00  0.00     0.085 H 
ATOM      9  H7  <0> d           3.317   1.867  -0.019  0.00  0.00     0.114 H 
ENDROOT
BRANCH   1  10
ATOM     10  N1  <0> d           1.268  -2.056  -0.021  0.00  0.00    -0.377 N 
ATOM     11  H4  <0> d           0.331  -2.631  -0.015  0.00  0.00     0.160 HD
BRANCH  10  12
ATOM     12  C1  <0> d           2.556  -2.755  -0.037  0.00  0.00    -0.019 C 
ATOM     13  H1  <0> d           2.384  -3.841  -0.041  0.00  0.00     0.056 H 
ATOM     14  H2  <0> d           3.134  -2.479   0.857  0.00  0.00     0.056 H 
ATOM     15  H3  <0> d           3.117  -2.469  -0.939  0.00  0.00     0.056 H 
ENDBRANCH  10  12
ENDBRANCH   1  10
BRANCH   2  16
ATOM     16  O1  <0> d          -1.160  -0.710   0.010  0.00  0.00    -0.352 OA
BRANCH  16  17
ATOM     17  C7  <0> d          -2.376   0.041   0.026  0.00  0.00     0.011 C 
ATOM     18  H8  <0> d          -3.233  -0.648   0.031  0.00  0.00     0.067 H 
ATOM     19  H9  <0> d          -2.424   0.680  -0.868  0.00  0.00     0.067 H 
ATOM     20  H10 <0> d          -2.406   0.670   0.928  0.00  0.00     0.067 H 
ENDBRANCH  16  17
ENDBRANCH   2  16
TORSDOF 4
