REMARK  4 active torsions:
REMARK  status: ('A' for Active; 'I' for Inactive)
REMARK    1  A    between atoms: C1_1  and  C2_2 
REMARK    2  A    between atoms: C4_4  and  C7_8 
REMARK    3  A    between atoms: C5_5  and  C6_7 
REMARK    4  A    between atoms: C7_8  and  O2_9 
ROOT
ATOM      1  C2  <0> d           0.002  -0.004   0.002  0.00  0.00     0.050 A 
ATOM      2  C3  <0> d          -1.078  -0.805   0.003  0.00  0.00    -0.044 A 
ATOM      3  C4  <0> d          -0.601  -2.136  -0.007  0.00  0.00    -0.003 A 
ATOM      4  C5  <0> d           0.742  -2.069  -0.013  0.00  0.00     0.058 A 
ATOM      5  O1  <0> d           1.102  -0.775  -0.013  0.00  0.00    -0.320 OA
ATOM      6  H4  <0> d          -2.112  -0.492   0.010  0.00  0.00     0.088 H 
ENDROOT
BRANCH   3   7
ATOM      7  C7  <0> d          -1.437  -3.390  -0.009  0.00  0.00     0.043 C 
ATOM      8  H8  <0> d          -1.215  -3.973  -0.903  0.00  0.00     0.081 H 
ATOM      9  H9  <0> d          -1.207  -3.982   0.877  0.00  0.00     0.081 H 
BRANCH   7  10
ATOM     10  O2  <0> d          -2.822  -3.039  -0.001  0.00  0.00    -0.396 OA
ATOM     11  H10 <0> d          -3.421  -3.799  -0.002  0.00  0.00     0.209 HD
ENDBRANCH   7  10
ENDBRANCH   3   7
BRANCH   4  12
ATOM     12  C6  <0> d           1.684  -3.245  -0.023  0.00  0.00    -0.031 C 
ATOM     13  H5  <0> d           1.906  -3.524  -1.053  0.00  0.00     0.036 H 
ATOM     14  H6  <0> d           2.608  -2.975   0.488  0.00  0.00     0.036 H 
ATOM     15  H7  <0> d           1.219  -4.087   0.489  0.00  0.00     0.036 H 
ENDBRANCH   4  12
BRANCH   1  16
ATOM     16  C1  <0> d          -0.018   1.503   0.010  0.00  0.00    -0.031 C 
ATOM     17  H1  <0> d           1.004   1.880   0.003  0.00  0.00     0.036 H 
ATOM     18  H2  <0> d          -0.545   1.864  -0.873  0.00  0.00     0.036 H 
ATOM     19  H3  <0> d          -0.529   1.854   0.907  0.00  0.00     0.036 H 
ENDBRANCH   1  16
TORSDOF 4
