REMARK  6 active torsions:
REMARK  status: ('A' for Active; 'I' for Inactive)
REMARK    1  A    between atoms: C1_1  and  C2_2 
REMARK    2  A    between atoms: C2_2  and  C3_3 
REMARK    3  A    between atoms: C3_3  and  C4_5 
REMARK    4  A    between atoms: C3_3  and  O1_12 
REMARK    5  A    between atoms: N2_8  and  C8_11 
REMARK    6  A    between atoms: C6_9  and  C7_10 
ROOT
ATOM      1  C4  <0> d          -1.157   1.881   0.017  0.00  0.00     0.013 A 
ATOM      2  C5  <0> d          -0.013   1.076   0.008  0.00  0.00     0.032 A 
ATOM      3  N1  <0> d           1.037   1.857   0.002  0.00  0.00    -0.184 NA
ATOM      4  N2  <0> d           0.593   3.186   0.013  0.00  0.00    -0.278 N 
ATOM      5  C6  <0> d          -0.756   3.173   0.025  0.00  0.00     0.036 A 
ATOM      6  H7  <0> d           0.002  -0.004   0.002  0.00  0.00     0.118 H 
ENDROOT
BRANCH   1   7
ATOM      7  C3  <0> d          -2.583   1.394   0.020  0.00  0.00     0.064 C 
ATOM      8  H1  <0> d          -3.205   2.031   0.666  0.00  0.00     0.090 H 
BRANCH   7   9
ATOM      9  C2  <0> d          -3.112   1.356  -1.415  0.00  0.00    -0.040 C 
ATOM     10  H5  <0> d          -2.550   0.607  -1.993  0.00  0.00     0.036 H 
ATOM     11  H6  <0> d          -2.987   2.346  -1.878  0.00  0.00     0.036 H 
BRANCH   9  12
ATOM     12  C1  <0> d          -4.595   0.982  -1.402  0.00  0.00    -0.074 C 
ATOM     13  H2  <0> d          -4.976   0.955  -2.434  0.00  0.00     0.027 H 
ATOM     14  H3  <0> d          -5.157   1.730  -0.824  0.00  0.00     0.027 H 
ATOM     15  H4  <0> d          -4.720  -0.008  -0.939  0.00  0.00     0.027 H 
ENDBRANCH   9  12
ENDBRANCH   7   9
BRANCH   7  16
ATOM     16  O1  <0> d          -2.637   0.081   0.583  0.00  0.00    -0.391 OA
ATOM     17  H14 <0> d          -2.296  -0.089   1.615  0.00  0.00     0.210 HD
ENDBRANCH   7  16
ENDBRANCH   1   7
BRANCH   5  18
ATOM     18  C7  <0> d          -1.656   4.382   0.040  0.00  0.00    -0.035 C 
ATOM     19  H8  <0> d          -1.044   5.295   0.044  0.00  0.00     0.035 H 
ATOM     20  H9  <0> d          -2.287   4.359   0.941  0.00  0.00     0.035 H 
ATOM     21  H10 <0> d          -2.296   4.373  -0.855  0.00  0.00     0.035 H 
ENDBRANCH   5  18
BRANCH   4  22
ATOM     22  C8  <0> d           1.444   4.379   0.011  0.00  0.00     0.002 C 
ATOM     23  H11 <0> d           0.812   5.279   0.022  0.00  0.00     0.059 H 
ATOM     24  H12 <0> d           2.070   4.381  -0.893  0.00  0.00     0.059 H 
ATOM     25  H13 <0> d           2.087   4.372   0.903  0.00  0.00     0.059 H 
ENDBRANCH   4  22
TORSDOF 6
