REMARK  4 active torsions:
REMARK  status: ('A' for Active; 'I' for Inactive)
REMARK    1  A    between atoms: C1_1  and  C2_2 
REMARK    2  A    between atoms: C3_3  and  C4_4 
REMARK    3  A    between atoms: C3_3  and  C5_5 
REMARK    4  A    between atoms: C5_5  and  N1_6 
ROOT
ATOM      1  N1  <0> d           1.699  -1.091   1.360  0.00  0.00     0.096 N 
ATOM      2  C6  <0> d           1.989   0.113   2.151  0.00  0.00     0.133 C 
ATOM      3  C7  <0> d           2.324  -0.295   3.588  0.00  0.00     0.044 C 
ATOM      4  O1  <0> d           3.421  -1.212   3.575  0.00  0.00    -0.388 OA
ATOM      5  C8  <0> d           3.172  -2.397   2.814  0.00  0.00     0.044 C 
ATOM      6  C9  <0> d           2.846  -2.010   1.369  0.00  0.00     0.133 C 
ATOM      7  H10 <0> d           2.846   0.644   1.710  0.00  0.00     0.083 H 
ATOM      8  H11 <0> d           1.109   0.773   2.150  0.00  0.00     0.083 H 
ATOM      9  H12 <0> d           2.596   0.599   4.169  0.00  0.00     0.077 H 
ATOM     10  H13 <0> d           1.447  -0.776   4.046  0.00  0.00     0.077 H 
ATOM     11  H14 <0> d           4.066  -3.038   2.832  0.00  0.00     0.077 H 
ATOM     12  H15 <0> d           2.322  -2.941   3.251  0.00  0.00     0.077 H 
ATOM     13  H16 <0> d           2.598  -2.914   0.793  0.00  0.00     0.083 H 
ATOM     14  H17 <0> d           3.717  -1.514   0.915  0.00  0.00     0.083 H 
ENDROOT
BRANCH   1  15
ATOM     15  C5  <0> d           1.317  -0.740  -0.015  0.00  0.00     0.133 C 
ATOM     16  H8  <0> d           1.217  -1.657  -0.613  0.00  0.00     0.086 H 
ATOM     17  H9  <0> d           2.092  -0.096  -0.457  0.00  0.00     0.086 H 
BRANCH  15  18
ATOM     18  C3  <0> d           0.002  -0.004   0.002  0.00  0.00    -0.060 C 
ATOM     19  C2  <0> d          -0.016   1.306   0.009  0.00  0.00    -0.103 C 
ATOM     20  H4  <0> d           0.929   1.869   0.008  0.00  0.00     0.076 H 
BRANCH  19  21
ATOM     21  C1  <0> d          -1.331   2.042   0.019  0.00  0.00    -0.059 C 
ATOM     22  H1  <0> d          -1.145   3.126   0.025  0.00  0.00     0.032 H 
ATOM     23  H2  <0> d          -1.900   1.763   0.919  0.00  0.00     0.032 H 
ATOM     24  H3  <0> d          -1.908   1.773  -0.877  0.00  0.00     0.032 H 
ENDBRANCH  19  21
BRANCH  18  25
ATOM     25  C4  <0> d          -1.293  -0.775   0.010  0.00  0.00    -0.053 C 
ATOM     26  H5  <0> d          -1.077  -1.854   0.002  0.00  0.00     0.033 H 
ATOM     27  H6  <0> d          -1.881  -0.513  -0.881  0.00  0.00     0.033 H 
ATOM     28  H7  <0> d          -1.864  -0.522   0.915  0.00  0.00     0.033 H 
ENDBRANCH  18  25
ENDBRANCH  15  18
ENDBRANCH   1  15
TORSDOF 4
