REMARK  0 active torsions:
REMARK  status: ('A' for Active; 'I' for Inactive)
ROOT
ATOM      1  C1  <0> d          -0.017   1.397   0.010  0.00  0.00    -0.040 A 
ATOM      2  C2  <0> d           1.198   2.061   0.002  0.00  0.00     0.025 A 
ATOM      3  N1  <0> d           2.326   1.377  -0.013  0.00  0.00    -0.160 NA
ATOM      4  N2  <0> d           2.358   0.095  -0.020  0.00  0.00    -0.120 NA
ATOM      5  C3  <0> d           1.256  -0.639  -0.013  0.00  0.00     0.241 A 
ATOM      6  C4  <0> d           0.002  -0.004   0.002  0.00  0.00     0.103 A 
ATOM      7  C5  <0> d          -1.213  -0.762   0.010  0.00  0.00     0.104 C 
ATOM      8  N3  <0> d          -2.176  -1.364   0.016  0.00  0.00    -0.191 NA
ATOM      9  O1  <0> d           1.337  -1.992  -0.022  0.00  0.00    -0.167 OA
ATOM     10  H1  <0> d          -0.949   1.941   0.026  0.00  0.00     0.088 H 
ATOM     11  H2  <0> d           1.223   3.140   0.007  0.00  0.00     0.117 H 
ENDROOT
TORSDOF 0
