REMARK  3 active torsions:
REMARK  status: ('A' for Active; 'I' for Inactive)
REMARK    1  A    between atoms: C3_3  and  C7_8 
REMARK    2  A    between atoms: C5_5  and  O1_7 
REMARK    3  A    between atoms: C7_8  and  O2_9 
ROOT
ATOM      1  C1  <0> d           3.119   2.397   1.183  0.00  0.00    -0.080 A 
ATOM      2  C2  <0> d           3.735   2.692  -0.019  0.00  0.00    -0.075 A 
ATOM      3  C3  <0> d           3.096   2.409  -1.212  0.00  0.00    -0.032 A 
ATOM      4  C4  <0> d           1.842   1.830  -1.206  0.00  0.00    -0.043 A 
ATOM      5  C5  <0> d           1.223   1.532  -0.001  0.00  0.00     0.066 A 
ATOM      6  C6  <0> d           1.863   1.822   1.195  0.00  0.00    -0.051 A 
ATOM      7  H1  <0> d           3.619   2.619   2.115  0.00  0.00     0.083 H 
ATOM      8  H2  <0> d           4.715   3.144  -0.026  0.00  0.00     0.084 H 
ATOM      9  H3  <0> d           1.344   1.609  -2.139  0.00  0.00     0.088 H 
ATOM     10  H4  <0> d           1.381   1.596   2.135  0.00  0.00     0.087 H 
ENDROOT
BRANCH   3  11
ATOM     11  C7  <0> d           3.770   2.733  -2.521  0.00  0.00     0.041 C 
ATOM     12  H6  <0> d           4.851   2.665  -2.401  0.00  0.00     0.081 H 
ATOM     13  H7  <0> d           3.444   2.025  -3.283  0.00  0.00     0.081 H 
BRANCH  11  14
ATOM     14  O2  <0> d           3.418   4.059  -2.922  0.00  0.00    -0.396 OA
ATOM     15  H8  <0> d           3.817   4.335  -3.759  0.00  0.00     0.209 HD
ENDBRANCH  11  14
ENDBRANCH   3  11
BRANCH   5  16
ATOM     16  O1  <0> d          -0.011   0.963   0.007  0.00  0.00    -0.361 OA
ATOM     17  H5  <0> d           0.002  -0.004   0.002  0.00  0.00     0.217 HD
ENDBRANCH   5  16
TORSDOF 3
