REMARK  3 active torsions:
REMARK  status: ('A' for Active; 'I' for Inactive)
REMARK    1  A    between atoms: C1_1  and  O1_2 
REMARK    2  A    between atoms: O1_2  and  C2_3 
REMARK    3  A    between atoms: C2_3  and  C3_5 
ROOT
ATOM      1  C3  <0> d          -1.244  -2.135   0.003  0.00  0.00     0.110 C 
ATOM      2  H1  <0> d          -0.746  -2.531  -0.883  0.00  0.00     0.070 H 
ATOM      3  C4  <0> d          -2.710  -2.619   0.059  0.00  0.00     0.038 C 
ATOM      4  O3  <0> d          -2.669  -3.788   0.908  0.00  0.00    -0.383 OA
ATOM      5  C5  <0> d          -1.740  -3.448   1.960  0.00  0.00     0.075 C 
ATOM      6  C6  <0> d          -0.610  -2.699   1.265  0.00  0.00     0.166 C 
ATOM      7  O4  <0> d           0.533  -2.577   1.634  0.00  0.00    -0.295 OA
ATOM      8  H5  <0> d          -3.348  -1.852   0.497  0.00  0.00     0.076 H 
ATOM      9  H6  <0> d          -3.062  -2.885  -0.938  0.00  0.00     0.076 H 
ATOM     10  H7  <0> d          -2.222  -2.808   2.698  0.00  0.00     0.086 H 
ATOM     11  H8  <0> d          -1.357  -4.352   2.433  0.00  0.00     0.086 H 
ENDROOT
BRANCH   1  12
ATOM     12  C2  <0> d          -1.185  -0.630   0.010  0.00  0.00     0.272 C 
ATOM     13  O2  <0> d          -2.208   0.015   0.023  0.00  0.00    -0.264 OA
BRANCH  12  14
ATOM     14  O1  <0> d           0.002  -0.004   0.002  0.00  0.00    -0.326 OA
BRANCH  14  15
ATOM     15  C1  <0> d          -0.017   1.425   0.010  0.00  0.00     0.013 C 
ATOM     16  H2  <0> d           1.005   1.802   0.002  0.00  0.00     0.067 H 
ATOM     17  H3  <0> d          -0.544   1.786  -0.873  0.00  0.00     0.067 H 
ATOM     18  H4  <0> d          -0.527   1.776   0.907  0.00  0.00     0.067 H 
ENDBRANCH  14  15
ENDBRANCH  12  14
ENDBRANCH   1  12
TORSDOF 3
