REMARK  4 active torsions:
REMARK  status: ('A' for Active; 'I' for Inactive)
REMARK    1  A    between atoms: C1_1  and  C2_2 
REMARK    2  A    between atoms: C2_2  and  C3_3 
REMARK    3  A    between atoms: C4_6  and  N3_10 
REMARK    4  A    between atoms: C5_7  and  C6_9 
ROOT
ATOM      1  C3  <0> d          -1.412  -0.526   0.013  0.00  0.00     0.043 A 
ATOM      2  N1  <0> d          -2.497   0.174   0.021  0.00  0.00    -0.182 NA
ATOM      3  N2  <0> d          -3.641  -0.617   0.029  0.00  0.00    -0.266 N 
ATOM      4  C4  <0> d          -3.360  -1.890   0.026  0.00  0.00     0.101 A 
ATOM      5  C5  <0> d          -1.847  -1.978   0.009  0.00  0.00     0.039 A 
ATOM      6  H1  <0> d          -1.484  -2.490   0.900  0.00  0.00     0.060 H 
ATOM      7  H12 <0> d          -4.544  -0.262   0.036  0.00  0.00     0.190 HD
ENDROOT
BRANCH   1   8
ATOM      8  C2  <0> d           0.002  -0.004   0.002  0.00  0.00    -0.029 C 
ATOM      9  H5  <0> d           0.512  -0.356  -0.895  0.00  0.00     0.041 H 
ATOM     10  H6  <0> d           0.529  -0.365   0.885  0.00  0.00     0.041 H 
BRANCH   8  11
ATOM     11  C1  <0> d          -0.019   1.526   0.010  0.00  0.00    -0.071 C 
ATOM     12  H2  <0> d           1.004   1.903   0.003  0.00  0.00     0.028 H 
ATOM     13  H3  <0> d          -0.546   1.887  -0.873  0.00  0.00     0.028 H 
ATOM     14  H4  <0> d          -0.529   1.877   0.907  0.00  0.00     0.028 H 
ENDBRANCH   8  11
ENDBRANCH   1   8
BRANCH   5  15
ATOM     15  C6  <0> d          -1.359  -2.683  -1.258  0.00  0.00    -0.061 C 
ATOM     16  H7  <0> d          -0.271  -2.641  -1.301  0.00  0.00     0.029 H 
ATOM     17  H8  <0> d          -1.682  -3.724  -1.241  0.00  0.00     0.029 H 
ATOM     18  H9  <0> d          -1.777  -2.188  -2.134  0.00  0.00     0.029 H 
ENDBRANCH   5  15
BRANCH   4  19
ATOM     19  N3  <0> d          -4.248  -2.931   0.032  0.00  0.00    -0.387 N 
ATOM     20  H10 <0> d          -5.202  -2.756   0.040  0.00  0.00     0.157 HD
ATOM     21  H11 <0> d          -3.923  -3.845   0.030  0.00  0.00     0.157 HD
ENDBRANCH   4  19
TORSDOF 4
