REMARK  3 active torsions:
REMARK  status: ('A' for Active; 'I' for Inactive)
REMARK    1  A    between atoms: C2_2  and  C4_7 
REMARK    2  A    between atoms: C4_7  and  C5_8 
REMARK    3  A    between atoms: C5_8  and  C6_9 
ROOT
ATOM      1  C4  <0> d           1.810  -1.793  -0.025  0.00  0.00    -0.014 C 
ATOM      2  H4  <0> d           2.352  -1.991   0.900  0.00  0.00     0.043 H 
ATOM      3  H5  <0> d           0.971  -2.483  -0.110  0.00  0.00     0.043 H 
ENDROOT
BRANCH   1   4
ATOM      4  C2  <0> d           1.296  -0.376  -0.012  0.00  0.00     0.051 A 
ATOM      5  C1  <0> d           0.002  -0.004   0.002  0.00  0.00     0.002 A 
ATOM      6  N2  <0> d          -0.017   1.365   0.009  0.00  0.00    -0.359 N 
ATOM      7  H2  <0> d          -0.856  -0.660   0.007  0.00  0.00     0.114 H 
ATOM      8  C3  <0> d           1.268   1.782  -0.001  0.00  0.00     0.064 A 
ATOM      9  H1  <0> d          -0.829   1.947   0.020  0.00  0.00     0.166 HD
ATOM     10  N1  <0> d           2.047   0.735  -0.013  0.00  0.00    -0.247 NA
ATOM     11  H3  <0> d           1.596   2.811   0.002  0.00  0.00     0.143 H 
ENDBRANCH   1   4
BRANCH   1  12
ATOM     12  C5  <0> d           2.751  -1.983  -1.217  0.00  0.00     0.021 C 
ATOM     13  H6  <0> d           2.210  -1.785  -2.142  0.00  0.00     0.049 H 
ATOM     14  H7  <0> d           3.590  -1.293  -1.131  0.00  0.00     0.049 H 
BRANCH  12  15
ATOM     15  C6  <0> d           3.265  -3.400  -1.229  0.00  0.00     0.172 C 
ATOM     16  O1  <0> d           2.915  -4.177  -0.373  0.00  0.00    -0.648 OA
ATOM     17  O2  <0> d           4.112  -3.798  -2.192  0.00  0.00    -0.648 OA
ENDBRANCH  12  15
ENDBRANCH   1  12
TORSDOF 3
