REMARK  4 active torsions:
REMARK  status: ('A' for Active; 'I' for Inactive)
REMARK    1  A    between atoms: C1_1  and  C2_2 
REMARK    2  A    between atoms: C2_2  and  C3_4 
REMARK    3  A    between atoms: C2_2  and  O2_12 
REMARK    4  A    between atoms: C8_9  and  O1_10 
ROOT
ATOM      1  C3  <0> d           0.707  -0.490  -1.238  0.00  0.00     0.006 A 
ATOM      2  C4  <0> d           2.052  -0.806  -1.189  0.00  0.00    -0.035 A 
ATOM      3  C5  <0> d           2.700  -1.253  -2.328  0.00  0.00     0.117 A 
ATOM      4  C6  <0> d           2.002  -1.384  -3.517  0.00  0.00    -0.043 A 
ATOM      5  C7  <0> d           0.658  -1.068  -3.568  0.00  0.00    -0.048 A 
ATOM      6  C8  <0> d           0.006  -0.626  -2.427  0.00  0.00     0.074 A 
ATOM      7  F1  <0> d           4.014  -1.562  -2.279  0.00  0.00    -0.206 F 
ATOM      8  H5  <0> d           2.597  -0.704  -0.263  0.00  0.00     0.089 H 
ATOM      9  H6  <0> d           2.509  -1.732  -4.405  0.00  0.00     0.088 H 
ATOM     10  H7  <0> d           0.115  -1.170  -4.496  0.00  0.00     0.087 H 
ENDROOT
BRANCH   1  11
ATOM     11  C2  <0> d           0.002  -0.004   0.002  0.00  0.00     0.060 C 
ATOM     12  H1  <0> d          -1.020  -0.381   0.010  0.00  0.00     0.090 H 
BRANCH  11  13
ATOM     13  C1  <0> d          -0.019   1.526   0.010  0.00  0.00    -0.049 C 
ATOM     14  H2  <0> d           1.004   1.903   0.003  0.00  0.00     0.031 H 
ATOM     15  H3  <0> d          -0.546   1.887  -0.873  0.00  0.00     0.031 H 
ATOM     16  H4  <0> d          -0.529   1.877   0.907  0.00  0.00     0.031 H 
ENDBRANCH  11  13
BRANCH  11  17
ATOM     17  O2  <0> d           0.693  -0.477   1.160  0.00  0.00    -0.391 OA
ATOM     18  H9  <0> d           0.294  -0.202   1.996  0.00  0.00     0.210 HD
ENDBRANCH  11  17
ENDBRANCH   1  11
BRANCH   6  19
ATOM     19  O1  <0> d          -1.317  -0.320  -2.475  0.00  0.00    -0.360 OA
ATOM     20  H8  <0> d          -1.500   0.602  -2.701  0.00  0.00     0.217 HD
ENDBRANCH   6  19
TORSDOF 4
