REMARK  4 active torsions:
REMARK  status: ('A' for Active; 'I' for Inactive)
REMARK    1  A    between atoms: C1_1  and  C2_2 
REMARK    2  A    between atoms: C1_1  and  O3_11 
REMARK    3  A    between atoms: C3_3  and  O2_10 
REMARK    4  A    between atoms: C5_6  and  N3_8 
ROOT
ATOM      1  C2  <0> d           0.002  -0.004   0.002  0.00  0.00     0.115 A 
ATOM      2  C3  <0> d          -0.484  -0.699   1.073  0.00  0.00     0.162 A 
ATOM      3  C4  <0> d          -0.453  -2.108   1.040  0.00  0.00     0.295 A 
ATOM      4  N1  <0> d           0.056  -2.720  -0.051  0.00  0.00    -0.152 N 
ATOM      5  C5  <0> d           0.525  -1.973  -1.088  0.00  0.00     0.701 A 
ATOM      6  N2  <0> d           0.489  -0.658  -1.053  0.00  0.00    -0.064 NA
ATOM      7  O1  <0> d          -0.878  -2.763   1.978  0.00  0.00    -0.265 OA
ATOM      8  H7  <0> d           0.087  -3.688  -0.096  0.00  0.00     0.187 HD
ENDROOT
BRANCH   1   9
ATOM      9  C1  <0> d          -0.018   1.503   0.010  0.00  0.00     0.060 C 
ATOM     10  H1  <0> d          -0.545   1.864  -0.873  0.00  0.00     0.083 H 
ATOM     11  H2  <0> d          -0.529   1.854   0.907  0.00  0.00     0.083 H 
BRANCH   9  12
ATOM     12  O3  <0> d           1.322   1.997   0.000  0.00  0.00    -0.395 OA
ATOM     13  H6  <0> d           1.385   2.962   0.005  0.00  0.00     0.209 HD
ENDBRANCH   9  12
ENDBRANCH   1   9
BRANCH   2  14
ATOM     14  O2  <0> d          -0.988  -0.042   2.155  0.00  0.00    -0.354 OA
ATOM     15  H5  <0> d          -1.305  -0.626   2.857  0.00  0.00     0.218 HD
ENDBRANCH   2  14
BRANCH   5  16
ATOM     16  N3  <0> d           1.040  -2.603  -2.192  0.00  0.00    -0.233 N 
ATOM     17  H3  <0> d           1.067  -3.572  -2.229  0.00  0.00     0.174 HD
ATOM     18  H4  <0> d           1.377  -2.080  -2.936  0.00  0.00     0.174 HD
ENDBRANCH   5  16
TORSDOF 4
