REMARK  3 active torsions:
REMARK  status: ('A' for Active; 'I' for Inactive)
REMARK    1  A    between atoms: C1_1  and  C2_2 
REMARK    2  A    between atoms: C2_2  and  C3_3 
REMARK    3  A    between atoms: C2_2  and  C4_4 
ROOT
ATOM      1  C4  <0> d          -2.958   1.486   0.138  0.00  0.00     0.007 C 
ATOM      2  H1  <0> d          -3.091   2.474   0.215  0.00  0.00     0.052 H 
ATOM      3  C5  <0> d          -2.136   0.982   1.329  0.00  0.00    -0.055 C 
ATOM      4  C6  <0> d          -0.729   1.579   1.266  0.00  0.00    -0.064 C 
ATOM      5  C7  <0> d          -0.013   1.086   0.008  0.00  0.00    -0.059 C 
ATOM      6  C8  <0> d          -0.754   1.594  -1.233  0.00  0.00    -0.009 C 
ATOM      7  C9  <0> d          -2.203   1.170  -1.134  0.00  0.00     0.131 C 
ATOM      8  O1  <0> d          -2.744   0.595  -2.048  0.00  0.00    -0.298 OA
ATOM      9  H9  <0> d          -2.619   1.286   2.258  0.00  0.00     0.034 H 
ATOM     10  H10 <0> d          -2.071  -0.106   1.292  0.00  0.00     0.034 H 
ATOM     11  H11 <0> d          -0.165   1.274   2.147  0.00  0.00     0.033 H 
ATOM     12  H12 <0> d          -0.798   2.667   1.240  0.00  0.00     0.033 H 
ATOM     13  H13 <0> d           0.002  -0.004   0.002  0.00  0.00     0.033 H 
ATOM     14  H14 <0> d           1.010   1.463   0.000  0.00  0.00     0.033 H 
ATOM     15  H15 <0> d          -0.692   2.591  -1.274  0.00  0.00     0.044 H 
ATOM     16  H16 <0> d          -0.305   1.165  -2.129  0.00  0.00     0.044 H 
ENDROOT
BRANCH   1  17
ATOM     17  C2  <0> d          -4.319   0.787   0.115  0.00  0.00    -0.051 C 
ATOM     18  H5  <0> d          -4.173  -0.290   0.039  0.00  0.00     0.040 H 
BRANCH  17  19
ATOM     19  C1  <0> d          -5.079   1.109   1.404  0.00  0.00    -0.072 C 
ATOM     20  H2  <0> d          -5.224   2.186   1.480  0.00  0.00     0.028 H 
ATOM     21  H3  <0> d          -6.048   0.611   1.387  0.00  0.00     0.028 H 
ATOM     22  H4  <0> d          -4.505   0.758   2.261  0.00  0.00     0.028 H 
ENDBRANCH  17  19
BRANCH  17  23
ATOM     23  C3  <0> d          -5.125   1.280  -1.089  0.00  0.00    -0.072 C 
ATOM     24  H6  <0> d          -4.583   1.051  -2.006  0.00  0.00     0.028 H 
ATOM     25  H7  <0> d          -6.094   0.782  -1.105  0.00  0.00     0.028 H 
ATOM     26  H8  <0> d          -5.270   2.357  -1.012  0.00  0.00     0.028 H 
ENDBRANCH  17  23
ENDBRANCH   1  17
TORSDOF 3
