REMARK  2 active torsions:
REMARK  status: ('A' for Active; 'I' for Inactive)
REMARK    1  A    between atoms: C3_3  and  C5_7 
REMARK    2  A    between atoms: C5_7  and  C6_8 
ROOT
ATOM      1  C1  <0> d          -0.013   1.076   0.008  0.00  0.00    -0.062 A 
ATOM      2  C2  <0> d          -1.213   1.775   0.017  0.00  0.00    -0.056 A 
ATOM      3  C3  <0> d          -1.158   3.160   0.029  0.00  0.00     0.067 A 
ATOM      4  N1  <0> d           0.012   3.771   0.021  0.00  0.00    -0.155 NA
ATOM      5  N2  <0> d           1.120   3.125   0.008  0.00  0.00    -0.163 NA
ATOM      6  C4  <0> d           1.165   1.806   0.001  0.00  0.00     0.024 A 
ATOM      7  H1  <0> d           0.002  -0.004   0.002  0.00  0.00     0.085 H 
ATOM      8  H2  <0> d          -2.160   1.256   0.019  0.00  0.00     0.086 H 
ATOM      9  H3  <0> d           2.118   1.297  -0.011  0.00  0.00     0.117 H 
ENDROOT
BRANCH   3  10
ATOM     10  C5  <0> d          -2.431   3.966   0.045  0.00  0.00     0.057 C 
ATOM     11  H4  <0> d          -2.515   4.537  -0.892  0.00  0.00     0.058 H 
ATOM     12  H5  <0> d          -3.293   3.289   0.140  0.00  0.00     0.058 H 
BRANCH  10  13
ATOM     13  C6  <0> d          -2.409   4.918   1.213  0.00  0.00     0.178 C 
ATOM     14  O1  <0> d          -1.457   4.939   1.956  0.00  0.00    -0.648 OA
ATOM     15  O2  <0> d          -3.447   5.742   1.427  0.00  0.00    -0.648 OA
ENDBRANCH  10  13
ENDBRANCH   3  10
TORSDOF 2
