REMARK  2 active torsions:
REMARK  status: ('A' for Active; 'I' for Inactive)
REMARK    1  A    between atoms: C1_1  and  C2_2 
REMARK    2  A    between atoms: C3_5  and  N3_7 
ROOT
ATOM      1  C2  <0> d           2.024   0.611  -0.014  0.00  0.00     0.167 A 
ATOM      2  N1  <0> d           1.222  -0.413  -0.012  0.00  0.00    -0.126 NA
ATOM      3  N2  <0> d           0.002  -0.004   0.002  0.00  0.00    -0.104 NA
ATOM      4  C3  <0> d          -0.016   1.306   0.009  0.00  0.00     0.265 A 
ATOM      5  O1  <0> d           1.264   1.723  -0.001  0.00  0.00    -0.261 OA
ENDROOT
BRANCH   1   6
ATOM      6  C1  <0> d           3.530   0.561  -0.028  0.00  0.00    -0.013 C 
ATOM      7  H1  <0> d           3.884   0.555  -1.059  0.00  0.00     0.038 H 
ATOM      8  H2  <0> d           3.927   1.436   0.487  0.00  0.00     0.038 H 
ATOM      9  H3  <0> d           3.869  -0.343   0.477  0.00  0.00     0.038 H 
ENDBRANCH   1   6
BRANCH   4  10
ATOM     10  N3  <0> d          -1.140   2.111   0.019  0.00  0.00    -0.362 N 
ATOM     11  H4  <0> d          -2.023   1.710   0.022  0.00  0.00     0.159 HD
ATOM     12  H5  <0> d          -1.045   3.076   0.024  0.00  0.00     0.159 HD
ENDBRANCH   4  10
TORSDOF 2
