REMARK  1 active torsions:
REMARK  status: ('A' for Active; 'I' for Inactive)
REMARK    1  A    between atoms: C3_5  and  C4_6 
ROOT
ATOM      1  C1  <0> d          -0.017   1.402   0.010  0.00  0.00    -0.025 A 
ATOM      2  C2  <0> d           1.257   1.839  -0.000  0.00  0.00     0.046 A 
ATOM      3  O1  <0> d           2.063   0.766  -0.013  0.00  0.00    -0.225 OA
ATOM      4  N1  <0> d           1.246  -0.391  -0.012  0.00  0.00    -0.124 NA
ATOM      5  C3  <0> d           0.002  -0.004   0.002  0.00  0.00     0.169 A 
ATOM      6  H1  <0> d          -0.900   2.024   0.025  0.00  0.00     0.090 H 
ATOM      7  H2  <0> d           1.575   2.871   0.002  0.00  0.00     0.126 H 
ENDROOT
BRANCH   5   8
ATOM      8  C4  <0> d          -1.206  -0.906   0.009  0.00  0.00     0.436 C 
ATOM      9  F1  <0> d          -1.592  -1.177  -1.308  0.00  0.00    -0.164 F 
ATOM     10  F2  <0> d          -0.889  -2.103   0.659  0.00  0.00    -0.164 F 
ATOM     11  F3  <0> d          -2.256  -0.273   0.682  0.00  0.00    -0.164 F 
ENDBRANCH   5   8
TORSDOF 1
