REMARK  2 active torsions:
REMARK  status: ('A' for Active; 'I' for Inactive)
REMARK    1  A    between atoms: C1_1  and  C2_2 
REMARK    2  A    between atoms: C4_4  and  C7_8 
ROOT
ATOM      1  C2  <0> d          -1.229   2.121   0.019  0.00  0.00     0.051 A 
ATOM      2  C3  <0> d          -0.017   1.428   0.010  0.00  0.00     0.075 A 
ATOM      3  C4  <0> d           1.179   2.156   0.002  0.00  0.00    -0.030 A 
ATOM      4  C5  <0> d           1.105   3.538   0.010  0.00  0.00    -0.058 A 
ATOM      5  C6  <0> d          -0.136   4.150   0.025  0.00  0.00     0.003 A 
ATOM      6  N1  <0> d          -1.247   3.438   0.032  0.00  0.00    -0.264 NA
ATOM      7  C10 <0> d           0.002  -0.004   0.002  0.00  0.00     0.102 C 
ATOM      8  N2  <0> d           0.018  -1.140  -0.004  0.00  0.00    -0.191 NA
ATOM      9  H4  <0> d           2.006   4.133   0.004  0.00  0.00     0.086 H 
ATOM     10  H5  <0> d          -0.196   5.228   0.030  0.00  0.00     0.114 H 
ENDROOT
BRANCH   1  11
ATOM     11  C1  <0> d          -2.528   1.357   0.021  0.00  0.00    -0.034 C 
ATOM     12  H1  <0> d          -2.836   1.167   1.049  0.00  0.00     0.035 H 
ATOM     13  H2  <0> d          -3.295   1.942  -0.486  0.00  0.00     0.035 H 
ATOM     14  H3  <0> d          -2.392   0.408  -0.498  0.00  0.00     0.035 H 
ENDBRANCH   1  11
BRANCH   3  15
ATOM     15  C7  <0> d           2.512   1.454  -0.013  0.00  0.00    -0.027 A 
ATOM     16  C9  <0> d           3.442   1.730  -1.196  0.00  0.00    -0.057 A 
ATOM     17  C8  <0> d           3.764   2.310   0.183  0.00  0.00    -0.057 A 
ATOM     18  H9  <0> d           4.061   0.906  -1.552  0.00  0.00     0.034 H 
ATOM     19  H10 <0> d           3.090   2.420  -1.963  0.00  0.00     0.034 H 
ATOM     20  H7  <0> d           3.624   3.382   0.323  0.00  0.00     0.034 H 
ATOM     21  H8  <0> d           4.595   1.868   0.733  0.00  0.00     0.034 H 
ATOM     22  H6  <0> d           2.518   0.448   0.408  0.00  0.00     0.047 H 
ENDBRANCH   3  15
TORSDOF 2
