REMARK  1 active torsions:
REMARK  status: ('A' for Active; 'I' for Inactive)
REMARK    1  A    between atoms: C4_5  and  C6_7 
ROOT
ATOM      1  C6  <0> d           1.356  -0.351   0.579  0.00  0.00     0.057 C 
ATOM      2  N2  <0> d           2.139   0.669   0.566  0.00  0.00    -0.292 NA
ATOM      3  C7  <0> d           1.495   1.859  -0.002  0.00  0.00     0.015 C 
ATOM      4  C8  <0> d          -0.019   1.544   0.011  0.00  0.00    -0.043 C 
ATOM      5  C9  <0> d           0.002  -0.004   0.002  0.00  0.00    -0.021 C 
ATOM      6  H5  <0> d           1.839   2.023  -1.024  0.00  0.00     0.067 H 
ATOM      7  H6  <0> d           1.705   2.733   0.614  0.00  0.00     0.067 H 
ATOM      8  H7  <0> d          -0.509   1.935  -0.881  0.00  0.00     0.036 H 
ATOM      9  H8  <0> d          -0.492   1.925   0.915  0.00  0.00     0.036 H 
ATOM     10  H9  <0> d          -0.716  -0.405   0.572  0.00  0.00     0.042 H 
ATOM     11  H10 <0> d          -0.088  -0.382  -1.016  0.00  0.00     0.042 H 
ENDROOT
BRANCH   1  12
ATOM     12  C4  <0> d           1.731  -1.687   1.091  0.00  0.00     0.080 A 
ATOM     13  N1  <0> d           0.846  -2.676   1.059  0.00  0.00    -0.259 NA
ATOM     14  C3  <0> d           1.139  -3.879   1.504  0.00  0.00     0.003 A 
ATOM     15  C2  <0> d           2.391  -4.159   2.026  0.00  0.00    -0.066 A 
ATOM     16  H3  <0> d           0.394  -4.659   1.463  0.00  0.00     0.114 H 
ATOM     17  C1  <0> d           3.346  -3.154   2.078  0.00  0.00    -0.079 A 
ATOM     18  H2  <0> d           2.622  -5.149   2.388  0.00  0.00     0.085 H 
ATOM     19  C5  <0> d           3.012  -1.899   1.598  0.00  0.00    -0.053 A 
ATOM     20  H1  <0> d           4.330  -3.348   2.480  0.00  0.00     0.083 H 
ATOM     21  H4  <0> d           3.733  -1.095   1.619  0.00  0.00     0.087 H 
ENDBRANCH   1  12
TORSDOF 1
