REMARK  8 active torsions:
REMARK  status: ('A' for Active; 'I' for Inactive)
REMARK    1  A    between atoms: C1_1  and  C2_2 
REMARK    2  A    between atoms: C2_2  and  C3_3 
REMARK    3  A    between atoms: C3_3  and  C4_4 
REMARK    4  A    between atoms: C3_3  and  C5_5 
REMARK    5  A    between atoms: C3_3  and  O3_9 
REMARK    6  A    between atoms: C5_5  and  O2_7 
REMARK    7  A    between atoms: O2_7  and  C6_8 
REMARK    8  A    between atoms: O3_9  and  C7_10 
ROOT
ATOM      1  C3  <0> d           0.002  -0.004   0.002  0.00  0.00     0.143 C 
ENDROOT
BRANCH   1   2
ATOM      2  C2  <0> d          -1.433  -0.534   0.013  0.00  0.00    -0.031 C 
ATOM      3  H4  <0> d          -1.965  -0.169  -0.878  0.00  0.00     0.037 H 
ATOM      4  H5  <0> d          -1.948  -0.179   0.918  0.00  0.00     0.037 H 
BRANCH   2   5
ATOM      5  C1  <0> d          -1.413  -2.063   0.004  0.00  0.00    -0.073 C 
ATOM      6  H1  <0> d          -2.445  -2.444   0.012  0.00  0.00     0.027 H 
ATOM      7  H2  <0> d          -0.881  -2.428   0.896  0.00  0.00     0.027 H 
ATOM      8  H3  <0> d          -0.898  -2.418  -0.900  0.00  0.00     0.027 H 
ENDBRANCH   2   5
ENDBRANCH   1   2
BRANCH   1   9
ATOM      9  C4  <0> d          -0.019   1.526   0.010  0.00  0.00    -0.039 C 
ATOM     10  H6  <0> d           1.013   1.907   0.003  0.00  0.00     0.032 H 
ATOM     11  H7  <0> d          -0.534   1.881   0.915  0.00  0.00     0.032 H 
ATOM     12  H8  <0> d          -0.551   1.890  -0.881  0.00  0.00     0.032 H 
ENDBRANCH   1   9
BRANCH   1  13
ATOM     13  C5  <0> d           0.707  -0.490  -1.238  0.00  0.00     0.293 C 
ATOM     14  O1  <0> d           1.700  -1.172  -1.140  0.00  0.00    -0.262 OA
BRANCH  13  15
ATOM     15  O2  <0> d           0.233  -0.166  -2.451  0.00  0.00    -0.324 OA
BRANCH  15  16
ATOM     16  C6  <0> d           0.963  -0.668  -3.601  0.00  0.00     0.013 C 
ATOM     17  H9  <0> d           0.470  -0.331  -4.524  0.00  0.00     0.067 H 
ATOM     18  H10 <0> d           0.978  -1.768  -3.573  0.00  0.00     0.067 H 
ATOM     19  H11 <0> d           1.995  -0.287  -3.575  0.00  0.00     0.067 H 
ENDBRANCH  15  16
ENDBRANCH  13  15
ENDBRANCH   1  13
BRANCH   1  20
ATOM     20  O3  <0> d           0.693  -0.477   1.160  0.00  0.00    -0.375 OA
BRANCH  20  21
ATOM     21  C7  <0> d           0.103  -0.070   2.396  0.00  0.00     0.006 C 
ATOM     22  H12 <0> d           0.691  -0.474   3.233  0.00  0.00     0.066 H 
ATOM     23  H13 <0> d          -0.927  -0.453   2.454  0.00  0.00     0.066 H 
ATOM     24  H14 <0> d           0.090   1.028   2.452  0.00  0.00     0.066 H 
ENDBRANCH  20  21
ENDBRANCH   1  20
TORSDOF 8
