REMARK  0 active torsions:
REMARK  status: ('A' for Active; 'I' for Inactive)
ROOT
ATOM      1  C1  <0> d          -0.013   1.076   0.008  0.00  0.00    -0.008 A 
ATOM      2  C2  <0> d          -1.190   1.765   0.017  0.00  0.00    -0.026 A 
ATOM      3  C3  <0> d          -1.151   3.169   0.029  0.00  0.00     0.061 A 
ATOM      4  N1  <0> d          -0.000   3.790   0.022  0.00  0.00    -0.176 NA
ATOM      5  N2  <0> d           1.121   3.167   0.009  0.00  0.00    -0.243 N 
ATOM      6  H1  <0> d           1.945   3.679   0.004  0.00  0.00     0.192 HD
ATOM      7  C4  <0> d           1.186   1.822   0.001  0.00  0.00     0.261 A 
ATOM      8  O1  <0> d           2.267   1.255  -0.014  0.00  0.00    -0.267 OA
ATOM      9  C5  <0> d          -2.566   3.707   0.044  0.00  0.00    -0.022 C 
ATOM     10  C6  <0> d          -3.448   2.521   0.487  0.00  0.00    -0.056 C 
ATOM     11  C7  <0> d          -2.625   1.296   0.034  0.00  0.00    -0.038 C 
ATOM     12  H2  <0> d           0.002  -0.004   0.002  0.00  0.00     0.093 H 
ATOM     13  H3  <0> d          -2.650   4.528   0.755  0.00  0.00     0.042 H 
ATOM     14  H4  <0> d          -2.853   4.040  -0.954  0.00  0.00     0.042 H 
ATOM     15  H5  <0> d          -3.578   2.520   1.570  0.00  0.00     0.034 H 
ATOM     16  H6  <0> d          -4.413   2.547  -0.019  0.00  0.00     0.034 H 
ATOM     17  H7  <0> d          -2.749   0.475   0.740  0.00  0.00     0.040 H 
ATOM     18  H8  <0> d          -2.929   0.985  -0.965  0.00  0.00     0.040 H 
ENDROOT
TORSDOF 0
