REMARK  0 active torsions:
REMARK  status: ('A' for Active; 'I' for Inactive)
ROOT
ATOM      1  C1  <0> d          -0.013   1.076   0.008  0.00  0.00    -0.066 A 
ATOM      2  C2  <0> d          -1.159   1.893   0.017  0.00  0.00    -0.060 A 
ATOM      3  C3  <0> d          -0.739   3.178   0.026  0.00  0.00     0.011 A 
ATOM      4  N1  <0> d           0.623   3.184   0.011  0.00  0.00    -0.360 N 
ATOM      5  C4  <0> d           1.062   1.888   0.002  0.00  0.00    -0.020 A 
ATOM      6  C5  <0> d           1.137   4.564   0.008  0.00  0.00    -0.000 C 
ATOM      7  C6  <0> d          -0.042   5.449   0.464  0.00  0.00    -0.045 C 
ATOM      8  C7  <0> d          -1.262   4.599   0.043  0.00  0.00    -0.025 C 
ATOM      9  H1  <0> d           0.002  -0.004   0.002  0.00  0.00     0.085 H 
ATOM     10  H2  <0> d          -2.185   1.556   0.019  0.00  0.00     0.086 H 
ATOM     11  H3  <0> d           2.094   1.570  -0.008  0.00  0.00     0.111 H 
ATOM     12  H4  <0> d           1.970   4.657   0.705  0.00  0.00     0.064 H 
ATOM     13  H5  <0> d           1.454   4.845  -0.996  0.00  0.00     0.064 H 
ATOM     14  H6  <0> d          -0.024   5.595   1.544  0.00  0.00     0.035 H 
ATOM     15  H7  <0> d          -0.035   6.406  -0.057  0.00  0.00     0.035 H 
ATOM     16  H8  <0> d          -2.067   4.701   0.770  0.00  0.00     0.042 H 
ATOM     17  H9  <0> d          -1.605   4.891  -0.950  0.00  0.00     0.042 H 
ENDROOT
TORSDOF 0
