REMARK  7 active torsions:
REMARK  status: ('A' for Active; 'I' for Inactive)
REMARK    1  A    between atoms: C1_1  and  C2_2 
REMARK    2  A    between atoms: C2_2  and  N1_3 
REMARK    3  A    between atoms: N1_3  and  C3_4 
REMARK    4  A    between atoms: N1_3  and  C5_6 
REMARK    5  A    between atoms: C3_4  and  C4_5 
REMARK    6  A    between atoms: C5_6  and  C6_7 
REMARK    7  A    between atoms: C7_8  and  C8_9 
ROOT
ATOM      1  N1  <0> d           0.778  -0.592  -1.231  0.00  0.00     0.098 N 
ENDROOT
BRANCH   1   2
ATOM      2  C2  <0> d          -0.226  -0.090  -0.283  0.00  0.00     0.111 C 
ATOM      3  H4  <0> d           0.110  -0.278   0.736  0.00  0.00     0.079 H 
ATOM      4  H5  <0> d          -1.174  -0.600  -0.453  0.00  0.00     0.079 H 
BRANCH   2   5
ATOM      5  C1  <0> d          -0.413   1.415  -0.489  0.00  0.00    -0.051 C 
ATOM      6  H1  <0> d           0.535   1.925  -0.319  0.00  0.00     0.029 H 
ATOM      7  H2  <0> d          -0.749   1.603  -1.508  0.00  0.00     0.029 H 
ATOM      8  H3  <0> d          -1.158   1.788   0.214  0.00  0.00     0.029 H 
ENDBRANCH   2   5
ENDBRANCH   1   2
BRANCH   1   9
ATOM      9  C3  <0> d           2.104  -0.032  -0.939  0.00  0.00     0.111 C 
ATOM     10  H6  <0> d           2.833  -0.442  -1.638  0.00  0.00     0.079 H 
ATOM     11  H7  <0> d           2.071   1.052  -1.043  0.00  0.00     0.079 H 
BRANCH   9  12
ATOM     12  C4  <0> d           2.508  -0.396   0.491  0.00  0.00    -0.051 C 
ATOM     13  H8  <0> d           3.500   0.003   0.701  0.00  0.00     0.029 H 
ATOM     14  H9  <0> d           1.789   0.031   1.191  0.00  0.00     0.029 H 
ATOM     15  H10 <0> d           2.521  -1.480   0.601  0.00  0.00     0.029 H 
ENDBRANCH   9  12
ENDBRANCH   1   9
BRANCH   1  16
ATOM     16  C5  <0> d           0.814  -2.061  -1.229  0.00  0.00     0.167 C 
ATOM     17  H11 <0> d           1.326  -2.411  -0.332  0.00  0.00     0.099 H 
ATOM     18  H12 <0> d          -0.204  -2.450  -1.242  0.00  0.00     0.099 H 
BRANCH  16  19
ATOM     19  C6  <0> d           1.536  -2.535  -2.421  0.00  0.00    -0.072 C 
ATOM     20  C7  <0> d           2.111  -2.913  -3.372  0.00  0.00    -0.078 C 
BRANCH  20  21
ATOM     21  C8  <0> d           2.813  -3.374  -4.532  0.00  0.00    -0.042 C 
ATOM     22  C9  <0> d           2.969  -4.678  -4.739  0.00  0.00    -0.114 C 
ATOM     23  H14 <0> d           2.567  -5.389  -4.033  0.00  0.00     0.067 H 
ATOM     24  H15 <0> d           3.498  -5.026  -5.614  0.00  0.00     0.067 H 
ATOM     25  H13 <0> d           3.215  -2.663  -5.239  0.00  0.00     0.096 H 
ENDBRANCH  20  21
ENDBRANCH  16  19
ENDBRANCH   1  16
TORSDOF 7
