REMARK  1 active torsions:
REMARK  status: ('A' for Active; 'I' for Inactive)
REMARK    1  A    between atoms: C1_1  and  C2_2 
ROOT
ATOM      1  C2  <0> d          -2.233   1.240  -1.112  0.00  0.00     0.006 C 
ATOM      2  H1  <0> d          -2.349   0.166  -0.963  0.00  0.00     0.071 H 
ATOM      3  C3  <0> d          -0.744   1.588  -1.237  0.00  0.00    -0.043 C 
ATOM      4  C4  <0> d          -0.013   1.086   0.008  0.00  0.00    -0.037 C 
ATOM      5  C5  <0> d          -0.709   1.567   1.253  0.00  0.00    -0.032 A 
ATOM      6  C6  <0> d           0.003   1.596   2.446  0.00  0.00    -0.075 A 
ATOM      7  C7  <0> d          -0.604   2.030   3.608  0.00  0.00    -0.082 A 
ATOM      8  C8  <0> d          -1.926   2.438   3.591  0.00  0.00    -0.081 A 
ATOM      9  C9  <0> d          -2.639   2.413   2.409  0.00  0.00    -0.057 A 
ATOM     10  C10 <0> d          -2.028   1.979   1.237  0.00  0.00     0.034 A 
ATOM     11  N1  <0> d          -2.767   1.965   0.049  0.00  0.00    -0.385 N 
ATOM     12  H5  <0> d          -0.627   2.669  -1.318  0.00  0.00     0.036 H 
ATOM     13  H6  <0> d          -0.328   1.108  -2.123  0.00  0.00     0.036 H 
ATOM     14  H7  <0> d           0.002  -0.004   0.002  0.00  0.00     0.040 H 
ATOM     15  H8  <0> d           1.011   1.460   0.000  0.00  0.00     0.040 H 
ATOM     16  H9  <0> d           1.035   1.279   2.465  0.00  0.00     0.084 H 
ATOM     17  H10 <0> d          -0.046   2.051   4.532  0.00  0.00     0.083 H 
ATOM     18  H11 <0> d          -2.400   2.775   4.501  0.00  0.00     0.083 H 
ATOM     19  H12 <0> d          -3.671   2.731   2.394  0.00  0.00     0.086 H 
ATOM     20  H13 <0> d          -3.618   2.427  -0.008  0.00  0.00     0.160 HD
ENDROOT
BRANCH   1  21
ATOM     21  C1  <0> d          -2.974   1.671  -2.378  0.00  0.00    -0.057 C 
ATOM     22  H2  <0> d          -2.554   1.152  -3.240  0.00  0.00     0.030 H 
ATOM     23  H3  <0> d          -4.031   1.421  -2.284  0.00  0.00     0.030 H 
ATOM     24  H4  <0> d          -2.866   2.747  -2.514  0.00  0.00     0.030 H 
ENDBRANCH   1  21
TORSDOF 1
