REMARK  1 active torsions:
REMARK  status: ('A' for Active; 'I' for Inactive)
REMARK    1  A    between atoms: C1_1  and  C2_2 
ROOT
ATOM      1  C2  <0> d           0.002  -0.004   0.002  0.00  0.00     0.033 A 
ATOM      2  C3  <0> d          -1.073  -0.752   0.003  0.00  0.00    -0.039 A 
ATOM      3  C4  <0> d          -2.529  -0.427  -0.201  0.00  0.00    -0.041 C 
ATOM      4  C5  <0> d          -2.983  -1.195  -1.454  0.00  0.00    -0.055 C 
ATOM      5  C6  <0> d          -2.653  -2.681  -1.331  0.00  0.00    -0.008 C 
ATOM      6  C7  <0> d          -1.170  -2.890  -1.094  0.00  0.00     0.140 C 
ATOM      7  O1  <0> d          -0.499  -3.576  -1.827  0.00  0.00    -0.297 OA
ATOM      8  C8  <0> d          -0.576  -2.192   0.110  0.00  0.00     0.059 A 
ATOM      9  H1  <0> d          -0.882  -2.664   1.043  0.00  0.00     0.067 H 
ATOM     10  C9  <0> d           0.917  -2.025   0.016  0.00  0.00    -0.003 A 
ATOM     11  N1  <0> d           1.138  -0.750  -0.013  0.00  0.00    -0.269 NA
ATOM     12  H5  <0> d          -3.107  -0.750   0.665  0.00  0.00     0.039 H 
ATOM     13  H6  <0> d          -2.653   0.645  -0.355  0.00  0.00     0.039 H 
ATOM     14  H7  <0> d          -4.060  -1.076  -1.576  0.00  0.00     0.034 H 
ATOM     15  H8  <0> d          -2.476  -0.786  -2.328  0.00  0.00     0.034 H 
ATOM     16  H9  <0> d          -3.212  -3.104  -0.497  0.00  0.00     0.044 H 
ATOM     17  H10 <0> d          -2.944  -3.190  -2.250  0.00  0.00     0.044 H 
ATOM     18  H11 <0> d           1.656  -2.812  -0.024  0.00  0.00     0.109 H 
ENDROOT
BRANCH   1  19
ATOM     19  C1  <0> d          -0.018   1.503   0.010  0.00  0.00    -0.035 C 
ATOM     20  H2  <0> d           1.004   1.880   0.003  0.00  0.00     0.035 H 
ATOM     21  H3  <0> d          -0.545   1.864  -0.873  0.00  0.00     0.035 H 
ATOM     22  H4  <0> d          -0.529   1.854   0.907  0.00  0.00     0.035 H 
ENDBRANCH   1  19
TORSDOF 1
