REMARK  2 active torsions:
REMARK  status: ('A' for Active; 'I' for Inactive)
REMARK    1  A    between atoms: C1_1  and  C2_2 
REMARK    2  A    between atoms: C2_2  and  O1_12 
ROOT
ATOM      1  C2  <0> d          -0.730   1.613   1.258  0.00  0.00     0.062 C 
ATOM      2  C3  <0> d          -0.784   3.171   1.192  0.00  0.00    -0.030 C 
ATOM      3  C4  <0> d          -0.102   3.639  -0.101  0.00  0.00    -0.035 C 
ATOM      4  H1  <0> d          -0.162   4.723  -0.199  0.00  0.00     0.046 H 
ATOM      5  C5  <0> d           1.361   3.177  -0.068  0.00  0.00    -0.058 C 
ATOM      6  C6  <0> d           1.414   1.649  -0.003  0.00  0.00    -0.055 C 
ATOM      7  C7  <0> d          -0.013   1.086   0.008  0.00  0.00    -0.009 C 
ATOM      8  H2  <0> d           0.002  -0.004   0.002  0.00  0.00     0.050 H 
ATOM      9  C8  <0> d          -0.735   1.622  -1.219  0.00  0.00    -0.099 C 
ATOM     10  C9  <0> d          -0.781   2.951  -1.275  0.00  0.00    -0.102 C 
ATOM     11  H6  <0> d          -0.268   3.599   2.051  0.00  0.00     0.038 H 
ATOM     12  H7  <0> d          -1.824   3.498   1.192  0.00  0.00     0.038 H 
ATOM     13  H8  <0> d           1.854   3.595   0.810  0.00  0.00     0.034 H 
ATOM     14  H9  <0> d           1.870   3.520  -0.968  0.00  0.00     0.034 H 
ATOM     15  H10 <0> d           1.933   1.342   0.906  0.00  0.00     0.034 H 
ATOM     16  H11 <0> d           1.949   1.267  -0.872  0.00  0.00     0.034 H 
ATOM     17  H12 <0> d          -1.160   0.984  -1.979  0.00  0.00     0.077 H 
ATOM     18  H13 <0> d          -1.256   3.492  -2.081  0.00  0.00     0.076 H 
ENDROOT
BRANCH   1  19
ATOM     19  C1  <0> d          -2.148   1.041   1.312  0.00  0.00    -0.047 C 
ATOM     20  H3  <0> d          -2.099  -0.047   1.353  0.00  0.00     0.031 H 
ATOM     21  H4  <0> d          -2.658   1.416   2.199  0.00  0.00     0.031 H 
ATOM     22  H5  <0> d          -2.697   1.347   0.421  0.00  0.00     0.031 H 
ENDBRANCH   1  19
BRANCH   1  23
ATOM     23  O1  <0> d          -0.011   1.212   2.425  0.00  0.00    -0.390 OA
ATOM     24  H14 <0> d          -0.408   1.511   3.255  0.00  0.00     0.210 HD
ENDBRANCH   1  23
TORSDOF 2
