REMARK  2 active torsions:
REMARK  status: ('A' for Active; 'I' for Inactive)
REMARK    1  A    between atoms: C1_1  and  N1_2 
REMARK    2  A    between atoms: C4_6  and  C5_7 
ROOT
ATOM      1  C5  <0> d           0.031  -0.355   2.522  0.00  0.00     0.069 C 
ATOM      2  C6  <0> d          -1.354  -0.225   3.002  0.00  0.00     0.066 C 
ATOM      3  N3  <0> d          -2.423  -0.125   3.373  0.00  0.00    -0.197 NA
ATOM      4  H5  <0> d           0.561  -1.086   3.132  0.00  0.00     0.066 H 
ATOM      5  H6  <0> d           0.533   0.610   2.593  0.00  0.00     0.066 H 
ENDROOT
BRANCH   1   6
ATOM      6  C4  <0> d           0.023  -0.812   1.085  0.00  0.00     0.119 A 
ATOM      7  N1  <0> d           0.002  -0.004   0.002  0.00  0.00    -0.328 N 
ATOM      8  C2  <0> d           0.009  -0.810  -1.104  0.00  0.00     0.124 A 
ATOM      9  C3  <0> d           0.028  -2.082  -0.659  0.00  0.00     0.041 A 
ATOM     10 Cl1  <0> d          -0.006  -0.294  -2.761  0.00  0.00    -0.063 Cl
ATOM     11  N2  <0> d           0.033  -2.053   0.682  0.00  0.00    -0.243 NA
ATOM     12  H4  <0> d           0.037  -2.970  -1.274  0.00  0.00     0.119 H 
BRANCH   7  13
ATOM     13  C1  <0> d          -0.018   1.461   0.010  0.00  0.00    -0.012 C 
ATOM     14  H1  <0> d           1.005   1.838   0.002  0.00  0.00     0.057 H 
ATOM     15  H2  <0> d          -0.545   1.822  -0.873  0.00  0.00     0.057 H 
ATOM     16  H3  <0> d          -0.528   1.812   0.907  0.00  0.00     0.057 H 
ENDBRANCH   7  13
ENDBRANCH   1   6
TORSDOF 2
