REMARK  0 active torsions:
REMARK  status: ('A' for Active; 'I' for Inactive)
ROOT
ATOM      1  C1  <0> d          -0.017   1.377   0.010  0.00  0.00    -0.004 A 
ATOM      2  C2  <0> d           1.103   2.091   0.003  0.00  0.00     0.001 A 
ATOM      3  N1  <0> d           2.343   1.478  -0.013  0.00  0.00    -0.310 N 
ATOM      4  C3  <0> d           3.615   1.952  -0.023  0.00  0.00     0.003 A 
ATOM      5  C4  <0> d           4.442   0.877  -0.038  0.00  0.00     0.020 A 
ATOM      6  N2  <0> d           3.697  -0.227  -0.036  0.00  0.00    -0.236 NA
ATOM      7  C5  <0> d           2.425   0.110  -0.021  0.00  0.00     0.202 A 
ATOM      8  C6  <0> d           1.178  -0.669  -0.013  0.00  0.00     0.291 A 
ATOM      9  O1  <0> d           1.204  -1.886  -0.019  0.00  0.00    -0.264 OA
ATOM     10  N3  <0> d           0.002  -0.004   0.002  0.00  0.00    -0.329 N 
ATOM     11  H1  <0> d          -0.832  -0.499   0.007  0.00  0.00     0.168 HD
ATOM     12  H2  <0> d          -0.967   1.890   0.026  0.00  0.00     0.113 H 
ATOM     13  H3  <0> d           1.044   3.170   0.009  0.00  0.00     0.114 H 
ATOM     14  H4  <0> d           3.913   2.991  -0.021  0.00  0.00     0.114 H 
ATOM     15  H5  <0> d           5.521   0.910  -0.049  0.00  0.00     0.117 H 
ENDROOT
TORSDOF 0
