REMARK  1 active torsions:
REMARK  status: ('A' for Active; 'I' for Inactive)
REMARK    1  A    between atoms: C1_1  and  C2_2 
ROOT
ATOM      1  C2  <0> d          -1.771  -1.388  -0.660  0.00  0.00     0.039 C 
ATOM      2  H1  <0> d          -1.432  -2.424  -0.666  0.00  0.00     0.082 H 
ATOM      3  C3  <0> d          -2.076  -0.930   0.788  0.00  0.00    -0.036 C 
ATOM      4  C4  <0> d          -0.653  -0.551   1.284  0.00  0.00    -0.011 C 
ATOM      5  C5  <0> d           0.002  -0.004   0.002  0.00  0.00     0.164 C 
ATOM      6  O1  <0> d          -0.722  -0.517  -1.117  0.00  0.00    -0.350 OA
ATOM      7  C6  <0> d           1.472  -0.460  -0.061  0.00  0.00    -0.011 C 
ATOM      8  C7  <0> d           2.181   0.800  -0.632  0.00  0.00    -0.040 C 
ATOM      9  C8  <0> d           1.329   1.929  -0.000  0.00  0.00     0.023 C 
ATOM     10  O2  <0> d          -0.017   1.424   0.010  0.00  0.00    -0.355 OA
ATOM     11  H5  <0> d          -2.493  -1.746   1.379  0.00  0.00     0.036 H 
ATOM     12  H6  <0> d          -2.738  -0.065   0.796  0.00  0.00     0.036 H 
ATOM     13  H7  <0> d          -0.121  -1.431   1.647  0.00  0.00     0.041 H 
ATOM     14  H8  <0> d          -0.702   0.219   2.054  0.00  0.00     0.041 H 
ATOM     15  H9  <0> d           1.847  -0.699   0.934  0.00  0.00     0.041 H 
ATOM     16  H10 <0> d           1.587  -1.309  -0.735  0.00  0.00     0.041 H 
ATOM     17  H11 <0> d           3.216   0.854  -0.296  0.00  0.00     0.036 H 
ATOM     18  H12 <0> d           2.121   0.825  -1.720  0.00  0.00     0.036 H 
ATOM     19  H13 <0> d           1.389   2.833  -0.607  0.00  0.00     0.074 H 
ATOM     20  H14 <0> d           1.664   2.133   1.017  0.00  0.00     0.074 H 
ENDROOT
BRANCH   1  21
ATOM     21  C1  <0> d          -3.014  -1.232  -1.539  0.00  0.00    -0.052 C 
ATOM     22  H2  <0> d          -3.320  -0.186  -1.554  0.00  0.00     0.030 H 
ATOM     23  H3  <0> d          -2.784  -1.558  -2.554  0.00  0.00     0.030 H 
ATOM     24  H4  <0> d          -3.822  -1.842  -1.136  0.00  0.00     0.030 H 
ENDBRANCH   1  21
TORSDOF 1
