REMARK  3 active torsions:
REMARK  status: ('A' for Active; 'I' for Inactive)
REMARK    1  A    between atoms: C1_1  and  C2_2 
REMARK    2  A    between atoms: C4_4  and  C7_9 
REMARK    3  A    between atoms: C5_5  and  N2_8 
ROOT
ATOM      1  C2  <0> d           0.029  -0.013   0.137  0.00  0.00     0.031 A 
ATOM      2  C3  <0> d           0.007  -0.561  -1.128  0.00  0.00    -0.041 A 
ATOM      3  C4  <0> d          -0.001  -1.955  -1.267  0.00  0.00     0.070 A 
ATOM      4  C5  <0> d           0.014  -2.736  -0.096  0.00  0.00     0.060 A 
ATOM      5  C6  <0> d           0.035  -2.091   1.138  0.00  0.00     0.029 A 
ATOM      6  N1  <0> d           0.047  -0.778   1.212  0.00  0.00    -0.264 NA
ATOM      7  H4  <0> d          -0.004   0.076  -2.001  0.00  0.00     0.088 H 
ATOM      8  H5  <0> d           0.046  -2.677   2.046  0.00  0.00     0.118 H 
ENDROOT
BRANCH   1   9
ATOM      9  C1  <0> d           0.037   1.486   0.295  0.00  0.00    -0.035 C 
ATOM     10  H1  <0> d           1.067   1.843   0.313  0.00  0.00     0.035 H 
ATOM     11  H2  <0> d          -0.492   1.942  -0.541  0.00  0.00     0.035 H 
ATOM     12  H3  <0> d          -0.457   1.755   1.228  0.00  0.00     0.035 H 
ENDBRANCH   1   9
BRANCH   3  13
ATOM     13  C7  <0> d          -0.024  -2.586  -2.599  0.00  0.00     0.211 C 
ATOM     14  O1  <0> d          -0.148  -1.894  -3.601  0.00  0.00    -0.644 OA
ATOM     15  O2  <0> d           0.080  -3.800  -2.703  0.00  0.00    -0.644 OA
ENDBRANCH   3  13
BRANCH   4  16
ATOM     16  N2  <0> d           0.006  -4.121  -0.170  0.00  0.00    -0.397 N 
ATOM     17  H6  <0> d           0.073  -4.561  -1.032  0.00  0.00     0.156 HD
ATOM     18  H7  <0> d          -0.066  -4.649   0.640  0.00  0.00     0.156 HD
ENDBRANCH   4  16
TORSDOF 3
