REMARK  0 active torsions:
REMARK  status: ('A' for Active; 'I' for Inactive)
ROOT
ATOM      1  C1  <0> d           3.117   3.209  -0.010  0.00  0.00    -0.078 A 
ATOM      2  C2  <0> d           3.946   2.077  -0.024  0.00  0.00    -0.066 A 
ATOM      3  C3  <0> d           3.407   0.838  -0.025  0.00  0.00     0.008 A 
ATOM      4  N1  <0> d           2.058   0.673  -0.014  0.00  0.00    -0.205 N 
ATOM      5  C4  <0> d           1.223   1.756  -0.000  0.00  0.00     0.175 A 
ATOM      6  C5  <0> d           1.764   3.054   0.002  0.00  0.00    -0.035 A 
ATOM      7  N2  <0> d          -0.015   1.281   0.009  0.00  0.00    -0.109 NA
ATOM      8  N3  <0> d           0.002  -0.004   0.002  0.00  0.00    -0.022 NA
ATOM      9  N4  <0> d           1.214  -0.446  -0.012  0.00  0.00    -0.040 NA
ATOM     10  H1  <0> d           3.550   4.199  -0.009  0.00  0.00     0.083 H 
ATOM     11  H2  <0> d           5.020   2.196  -0.033  0.00  0.00     0.085 H 
ATOM     12  H3  <0> d           4.053  -0.028  -0.036  0.00  0.00     0.115 H 
ATOM     13  H4  <0> d           1.115   3.917   0.012  0.00  0.00     0.089 H 
ENDROOT
TORSDOF 0
