REMARK  3 active torsions:
REMARK  status: ('A' for Active; 'I' for Inactive)
REMARK    1  A    between atoms: C1_1  and  C2_2 
REMARK    2  A    between atoms: C2_2  and  C5_5 
REMARK    3  A    between atoms: C5_5  and  C6_6 
ROOT
ATOM      1  C2  <0> d          -0.001   0.001  -0.001  0.00  0.00    -0.035 A 
ATOM      2  C3  <0> d          -0.722  -0.724   1.137  0.00  0.00    -0.057 A 
ATOM      3  C4  <0> d           0.807  -0.689   1.101  0.00  0.00    -0.057 A 
ATOM      4  H4  <0> d          -1.222  -0.112   1.888  0.00  0.00     0.034 H 
ATOM      5  H5  <0> d          -1.210  -1.670   0.902  0.00  0.00     0.034 H 
ATOM      6  H6  <0> d           1.326  -1.612   0.841  0.00  0.00     0.034 H 
ATOM      7  H7  <0> d           1.313  -0.053   1.827  0.00  0.00     0.034 H 
ENDROOT
BRANCH   1   8
ATOM      8  C1  <0> d          -0.036   1.531   0.002  0.00  0.00    -0.069 C 
ATOM      9  H1  <0> d           0.983   1.918  -0.009  0.00  0.00     0.028 H 
ATOM     10  H2  <0> d          -0.568   1.884  -0.881  0.00  0.00     0.028 H 
ATOM     11  H3  <0> d          -0.548   1.881   0.899  0.00  0.00     0.028 H 
ENDBRANCH   1   8
BRANCH   1  12
ATOM     12  C5  <0> d          -0.018  -0.657  -1.382  0.00  0.00     0.022 C 
ATOM     13  H8  <0> d          -0.088  -1.738  -1.268  0.00  0.00     0.050 H 
ATOM     14  H9  <0> d          -0.877  -0.294  -1.946  0.00  0.00     0.050 H 
BRANCH  12  15
ATOM     15  C6  <0> d           1.250  -0.310  -2.119  0.00  0.00     0.173 C 
ATOM     16  O1  <0> d           2.131   0.316  -1.556  0.00  0.00    -0.648 OA
ATOM     17  O2  <0> d           1.394  -0.657  -3.279  0.00  0.00    -0.648 OA
ENDBRANCH  12  15
ENDBRANCH   1  12
TORSDOF 3
