REMARK  4 active torsions:
REMARK  status: ('A' for Active; 'I' for Inactive)
REMARK    1  A    between atoms: C1_1  and  C2_2 
REMARK    2  A    between atoms: C6_6  and  C7_8 
REMARK    3  A    between atoms: C7_8  and  O2_10 
REMARK    4  A    between atoms: O2_10  and  C8_11 
ROOT
ATOM      1  C2  <0> d           1.094   2.028   0.003  0.00  0.00     0.031 A 
ATOM      2  C3  <0> d           2.333   1.406  -0.013  0.00  0.00    -0.059 A 
ATOM      3  C4  <0> d           2.397   0.022  -0.021  0.00  0.00    -0.079 A 
ATOM      4  C5  <0> d           1.211  -0.696  -0.013  0.00  0.00    -0.049 A 
ATOM      5  C6  <0> d           0.002  -0.004   0.002  0.00  0.00     0.132 A 
ATOM      6  N1  <0> d          -0.016   1.324   0.009  0.00  0.00    -0.248 NA
ATOM      7  H4  <0> d           3.238   1.994  -0.018  0.00  0.00     0.086 H 
ATOM      8  H5  <0> d           3.350  -0.486  -0.033  0.00  0.00     0.083 H 
ATOM      9  H6  <0> d           1.224  -1.776  -0.019  0.00  0.00     0.087 H 
ENDROOT
BRANCH   5  10
ATOM     10  C7  <0> d          -1.274  -0.756   0.011  0.00  0.00     0.311 C 
ATOM     11  O1  <0> d          -1.263  -1.970   0.004  0.00  0.00    -0.258 OA
BRANCH  10  12
ATOM     12  O2  <0> d          -2.446  -0.093   0.026  0.00  0.00    -0.321 OA
BRANCH  12  13
ATOM     13  C8  <0> d          -3.656  -0.894   0.034  0.00  0.00     0.013 C 
ATOM     14  H7  <0> d          -4.527  -0.238   0.046  0.00  0.00     0.067 H 
ATOM     15  H8  <0> d          -3.685  -1.518  -0.860  0.00  0.00     0.067 H 
ATOM     16  H9  <0> d          -3.667  -1.528   0.920  0.00  0.00     0.067 H 
ENDBRANCH  12  13
ENDBRANCH  10  12
ENDBRANCH   5  10
BRANCH   1  17
ATOM     17  C1  <0> d           1.018   3.534   0.011  0.00  0.00    -0.035 C 
ATOM     18  H1  <0> d           1.010   3.891   1.040  0.00  0.00     0.035 H 
ATOM     19  H2  <0> d           1.884   3.944  -0.509  0.00  0.00     0.035 H 
ATOM     20  H3  <0> d           0.107   3.854  -0.493  0.00  0.00     0.035 H 
ENDBRANCH   1  17
TORSDOF 4
