REMARK  2 active torsions:
REMARK  status: ('A' for Active; 'I' for Inactive)
REMARK    1  A    between atoms: C2_2  and  C4_7 
REMARK    2  A    between atoms: C4_7  and  O1_8 
ROOT
ATOM      1  C1  <0> d          -0.016   1.353   0.009  0.00  0.00     0.019 A 
ATOM      2  C2  <0> d           0.002  -0.004   0.002  0.00  0.00     0.026 A 
ATOM      3  S1  <0> d           1.763  -0.309  -0.016  0.00  0.00    -0.059 SA
ATOM      4  C3  <0> d           2.278   1.349  -0.012  0.00  0.00     0.167 A 
ATOM      5  N1  <0> d           1.134   1.995   0.002  0.00  0.00    -0.240 NA
ATOM      6 Cl1  <0> d           3.892   1.990  -0.025  0.00  0.00    -0.054 Cl
ATOM      7  H1  <0> d          -0.951   1.893   0.017  0.00  0.00     0.116 H 
ENDROOT
BRANCH   2   8
ATOM      8  C4  <0> d          -1.144  -0.982   0.008  0.00  0.00     0.048 C 
ATOM      9  H2  <0> d          -0.838  -1.898   0.514  0.00  0.00     0.082 H 
ATOM     10  H3  <0> d          -1.993  -0.544   0.533  0.00  0.00     0.082 H 
BRANCH   8  11
ATOM     11  O1  <0> d          -1.520  -1.284  -1.337  0.00  0.00    -0.396 OA
ATOM     12  H4  <0> d          -2.254  -1.909  -1.410  0.00  0.00     0.209 HD
ENDBRANCH   8  11
ENDBRANCH   2   8
TORSDOF 2
