REMARK  3 active torsions:
REMARK  status: ('A' for Active; 'I' for Inactive)
REMARK    1  A    between atoms: C1_1  and  O1_2 
REMARK    2  A    between atoms: O1_2  and  C2_3 
REMARK    3  A    between atoms: C7_8  and  C8_9 
ROOT
ATOM      1  C8  <0> d          -0.045  -2.803  -0.012  0.00  0.00    -0.075 C 
ATOM      2  C9  <0> d           0.947  -3.430  -0.025  0.00  0.00    -0.149 C 
ATOM      3  H7  <0> d           1.835  -3.991  -0.036  0.00  0.00     0.166 H 
ENDROOT
BRANCH   1   4
ATOM      4  C7  <0> d          -1.256  -2.038   0.003  0.00  0.00     0.050 A 
ATOM      5  C2  <0> d          -1.200  -0.637   0.010  0.00  0.00     0.088 A 
ATOM      6  C3  <0> d          -2.369   0.099   0.019  0.00  0.00    -0.029 A 
ATOM      7  C4  <0> d          -3.604  -0.555   0.027  0.00  0.00     0.047 A 
ATOM      8  H4  <0> d          -2.329   1.178   0.021  0.00  0.00     0.090 H 
ATOM      9  C5  <0> d          -3.656  -1.953   0.026  0.00  0.00    -0.061 A 
ATOM     10  C10 <0> d          -4.817   0.206   0.037  0.00  0.00     0.099 C 
ATOM     11  C6  <0> d          -2.492  -2.687   0.016  0.00  0.00    -0.061 A 
ATOM     12  H5  <0> d          -4.611  -2.457   0.032  0.00  0.00     0.085 H 
ATOM     13  H6  <0> d          -2.535  -3.766   0.015  0.00  0.00     0.086 H 
ATOM     14  N1  <0> d          -5.779   0.810   0.045  0.00  0.00    -0.191 NA
BRANCH   5  15
ATOM     15  O1  <0> d           0.002  -0.004   0.002  0.00  0.00    -0.354 OA
BRANCH  15  16
ATOM     16  C1  <0> d          -0.017   1.425   0.010  0.00  0.00     0.010 C 
ATOM     17  H1  <0> d           1.005   1.802   0.002  0.00  0.00     0.066 H 
ATOM     18  H2  <0> d          -0.544   1.786  -0.873  0.00  0.00     0.066 H 
ATOM     19  H3  <0> d          -0.527   1.776   0.907  0.00  0.00     0.066 H 
ENDBRANCH  15  16
ENDBRANCH   5  15
ENDBRANCH   1   4
TORSDOF 3
