REMARK  4 active torsions:
REMARK  status: ('A' for Active; 'I' for Inactive)
REMARK    1  A    between atoms: C1_1  and  C2_2 
REMARK    2  A    between atoms: C2_2  and  C3_3 
REMARK    3  A    between atoms: C3_3  and  C4_4 
REMARK    4  A    between atoms: C5_7  and  N3_9 
ROOT
ATOM      1  C3  <0> d           1.766   3.161   0.001  0.00  0.00    -0.002 C 
ATOM      2  H6  <0> d           1.049   3.794   0.525  0.00  0.00     0.045 H 
ATOM      3  H7  <0> d           2.730   3.211   0.506  0.00  0.00     0.045 H 
ENDROOT
BRANCH   1   4
ATOM      4  C2  <0> d           1.919   3.650  -1.440  0.00  0.00    -0.061 C 
ATOM      5  H4  <0> d           2.636   3.017  -1.964  0.00  0.00     0.033 H 
ATOM      6  H5  <0> d           0.955   3.600  -1.946  0.00  0.00     0.033 H 
BRANCH   4   7
ATOM      7  C1  <0> d           2.421   5.095  -1.439  0.00  0.00    -0.076 C 
ATOM      8  H1  <0> d           2.530   5.443  -2.466  0.00  0.00     0.027 H 
ATOM      9  H2  <0> d           1.704   5.728  -0.915  0.00  0.00     0.027 H 
ATOM     10  H3  <0> d           3.385   5.145  -0.933  0.00  0.00     0.027 H 
ENDBRANCH   4   7
ENDBRANCH   1   4
BRANCH   1  11
ATOM     11  C4  <0> d           1.272   1.738  -0.001  0.00  0.00     0.171 A 
ATOM     12  O1  <0> d          -0.016   1.342   0.009  0.00  0.00    -0.260 OA
ATOM     13  C5  <0> d           0.002  -0.004   0.002  0.00  0.00     0.265 A 
ATOM     14  N2  <0> d           1.259  -0.376  -0.012  0.00  0.00    -0.104 NA
ATOM     15  N1  <0> d           2.011   0.668  -0.014  0.00  0.00    -0.125 NA
BRANCH  13  16
ATOM     16  N3  <0> d          -1.100  -0.839   0.009  0.00  0.00    -0.362 N 
ATOM     17  H8  <0> d          -1.994  -0.462   0.019  0.00  0.00     0.159 HD
ATOM     18  H9  <0> d          -0.979  -1.802   0.002  0.00  0.00     0.159 HD
ENDBRANCH  13  16
ENDBRANCH   1  11
TORSDOF 4
