REMARK  1 active torsions:
REMARK  status: ('A' for Active; 'I' for Inactive)
REMARK    1  A    between atoms: C1_1  and  C2_2 
ROOT
ATOM      1  C2  <0> d          -1.696   4.909   0.091  0.00  0.00    -0.026 A 
ATOM      2  C3  <0> d          -2.130   5.513  -1.075  0.00  0.00    -0.074 A 
ATOM      3  C4  <0> d          -2.103   4.821  -2.271  0.00  0.00    -0.080 A 
ATOM      4  C5  <0> d          -1.643   3.517  -2.306  0.00  0.00    -0.055 A 
ATOM      5  C6  <0> d          -1.208   2.906  -1.141  0.00  0.00     0.062 A 
ATOM      6  C7  <0> d          -1.232   3.603   0.065  0.00  0.00     0.101 A 
ATOM      7  O1  <0> d          -0.803   3.018   1.215  0.00  0.00    -0.347 OA
ATOM      8  C8  <0> d          -0.750   1.590   1.257  0.00  0.00     0.041 C 
ATOM      9  C9  <0> d          -0.013   1.086   0.008  0.00  0.00     0.013 C 
ATOM     10  N1  <0> d          -0.742   1.582  -1.171  0.00  0.00    -0.386 N 
ATOM     11  H4  <0> d          -2.491   6.530  -1.051  0.00  0.00     0.084 H 
ATOM     12  H5  <0> d          -2.442   5.298  -3.178  0.00  0.00     0.083 H 
ATOM     13  H6  <0> d          -1.622   2.975  -3.240  0.00  0.00     0.087 H 
ATOM     14  H7  <0> d          -1.762   1.187   1.271  0.00  0.00     0.077 H 
ATOM     15  H8  <0> d          -0.214   1.270   2.151  0.00  0.00     0.077 H 
ATOM     16  H9  <0> d           0.002  -0.004   0.002  0.00  0.00     0.067 H 
ATOM     17  H10 <0> d           1.008   1.470   0.000  0.00  0.00     0.067 H 
ATOM     18  H11 <0> d          -0.896   1.014  -1.942  0.00  0.00     0.159 HD
ENDROOT
BRANCH   1  19
ATOM     19  C1  <0> d          -1.728   5.670   1.391  0.00  0.00    -0.049 C 
ATOM     20  H1  <0> d          -0.784   6.196   1.528  0.00  0.00     0.033 H 
ATOM     21  H2  <0> d          -2.546   6.391   1.369  0.00  0.00     0.033 H 
ATOM     22  H3  <0> d          -1.880   4.974   2.216  0.00  0.00     0.033 H 
ENDBRANCH   1  19
TORSDOF 1
