REMARK  2 active torsions:
REMARK  status: ('A' for Active; 'I' for Inactive)
REMARK    1  A    between atoms: C1_1  and  C2_2 
REMARK    2  A    between atoms: C4_4  and  C5_8 
ROOT
ATOM      1  C2  <0> d           0.002  -0.004   0.002  0.00  0.00     0.026 A 
ATOM      2  C3  <0> d           0.008  -0.796  -1.095  0.00  0.00    -0.029 A 
ATOM      3  C4  <0> d           0.028  -2.127  -0.666  0.00  0.00     0.120 A 
ATOM      4  N1  <0> d           0.035  -2.134   0.643  0.00  0.00    -0.174 NA
ATOM      5  N2  <0> d           0.024  -0.805   1.088  0.00  0.00    -0.282 N 
ATOM      6  H1  <0> d           0.029  -0.513   2.013  0.00  0.00     0.189 HD
ATOM      7  H5  <0> d          -0.002  -0.460  -2.122  0.00  0.00     0.090 H 
ENDROOT
BRANCH   1   8
ATOM      8  C1  <0> d          -0.018   1.503   0.010  0.00  0.00    -0.036 C 
ATOM      9  H2  <0> d           1.004   1.880   0.003  0.00  0.00     0.035 H 
ATOM     10  H3  <0> d          -0.545   1.864  -0.873  0.00  0.00     0.035 H 
ATOM     11  H4  <0> d          -0.529   1.854   0.907  0.00  0.00     0.035 H 
ENDBRANCH   1   8
BRANCH   3  12
ATOM     12  C5  <0> d           0.040  -3.343  -1.556  0.00  0.00     0.251 C 
ATOM     13  F1  <0> d          -0.601  -4.403  -0.906  0.00  0.00    -0.207 F 
ATOM     14  F2  <0> d          -0.629  -3.053  -2.749  0.00  0.00    -0.207 F 
ATOM     15  H6  <0> d           1.071  -3.622  -1.776  0.00  0.00     0.155 H 
ENDBRANCH   3  12
TORSDOF 2
