REMARK  2 active torsions:
REMARK  status: ('A' for Active; 'I' for Inactive)
REMARK    1  A    between atoms: C1_1  and  N1_2 
REMARK    2  A    between atoms: C4_5  and  C6_7 
ROOT
ATOM      1  N1  <0> d           0.002  -0.004   0.002  0.00  0.00    -0.370 N 
ATOM      2  C2  <0> d           0.008  -0.776  -1.123  0.00  0.00    -0.020 A 
ATOM      3  C3  <0> d           0.027  -2.072  -0.767  0.00  0.00    -0.050 A 
ATOM      4  C4  <0> d           0.033  -2.098   0.701  0.00  0.00     0.057 A 
ATOM      5  C5  <0> d           0.023  -0.777   1.102  0.00  0.00    -0.005 A 
ATOM      6  H4  <0> d          -0.002  -0.406  -2.137  0.00  0.00     0.111 H 
ATOM      7  H5  <0> d           0.036  -2.925  -1.430  0.00  0.00     0.087 H 
ATOM      8  H6  <0> d           0.028  -0.426   2.123  0.00  0.00     0.113 H 
ENDROOT
BRANCH   1   9
ATOM      9  C1  <0> d          -0.018   1.461   0.010  0.00  0.00    -0.015 C 
ATOM     10  H1  <0> d           1.005   1.838   0.002  0.00  0.00     0.057 H 
ATOM     11  H2  <0> d          -0.545   1.822  -0.873  0.00  0.00     0.057 H 
ATOM     12  H3  <0> d          -0.528   1.812   0.907  0.00  0.00     0.057 H 
ENDBRANCH   1   9
BRANCH   4  13
ATOM     13  C6  <0> d           0.053  -3.285   1.565  0.00  0.00     0.210 C 
ATOM     14  O1  <0> d           0.067  -4.403   1.068  0.00  0.00    -0.644 OA
ATOM     15  O2  <0> d           0.056  -3.156   2.782  0.00  0.00    -0.644 OA
ENDBRANCH   4  13
TORSDOF 2
