REMARK  2 active torsions:
REMARK  status: ('A' for Active; 'I' for Inactive)
REMARK    1  A    between atoms: C1_1  and  C2_2 
REMARK    2  A    between atoms: C2_2  and  C3_4 
ROOT
ATOM      1  C3  <0> d          -0.018   1.472   0.010  0.00  0.00     0.037 A 
ATOM      2  C4  <0> d           1.301   1.874  -0.000  0.00  0.00    -0.008 A 
ATOM      3  N1  <0> d           2.103   0.793  -0.014  0.00  0.00    -0.364 N 
ATOM      4  H1  <0> d           3.073   0.826  -0.023  0.00  0.00     0.165 HD
ATOM      5  C5  <0> d           1.358  -0.369  -0.013  0.00  0.00     0.043 A 
ATOM      6  C6  <0> d           0.002  -0.004   0.002  0.00  0.00     0.006 A 
ATOM      7  C7  <0> d          -0.986  -0.984   0.007  0.00  0.00    -0.070 A 
ATOM      8  C8  <0> d          -0.626  -2.315  -0.004  0.00  0.00    -0.082 A 
ATOM      9  C9  <0> d           0.712  -2.678  -0.019  0.00  0.00    -0.081 A 
ATOM     10  C10 <0> d           1.700  -1.717  -0.023  0.00  0.00    -0.056 A 
ATOM     11  H5  <0> d           1.639   2.900   0.001  0.00  0.00     0.112 H 
ATOM     12  H6  <0> d          -2.029  -0.704   0.018  0.00  0.00     0.084 H 
ATOM     13  H7  <0> d          -1.391  -3.078  -0.001  0.00  0.00     0.083 H 
ATOM     14  H8  <0> d           0.983  -3.723  -0.027  0.00  0.00     0.083 H 
ATOM     15  H9  <0> d           2.739  -2.010  -0.035  0.00  0.00     0.086 H 
ENDROOT
BRANCH   1  16
ATOM     16  C2  <0> d          -1.163   2.308   0.020  0.00  0.00     0.158 C 
ATOM     17  O1  <0> d          -2.273   1.816   0.023  0.00  0.00    -0.293 OA
BRANCH  16  18
ATOM     18  C1  <0> d          -1.002   3.806   0.028  0.00  0.00    -0.017 C 
ATOM     19  H2  <0> d          -0.029   4.037   0.024  0.00  0.00     0.038 H 
ATOM     20  H3  <0> d          -1.478   4.227  -0.858  0.00  0.00     0.038 H 
ATOM     21  H4  <0> d          -1.469   4.217   0.922  0.00  0.00     0.038 H 
ENDBRANCH  16  18
ENDBRANCH   1  16
TORSDOF 2
