REMARK  1 active torsions:
REMARK  status: ('A' for Active; 'I' for Inactive)
REMARK    1  A    between atoms: C1_1  and  C2_2 
ROOT
ATOM      1  C2  <0> d          -0.271   3.580   0.023  0.00  0.00     0.051 A 
ATOM      2  C3  <0> d          -0.947   2.418   0.029  0.00  0.00     0.030 A 
ATOM      3  N1  <0> d          -0.017   1.387   0.010  0.00  0.00    -0.218 N 
ATOM      4  C4  <0> d           1.202   2.013   0.001  0.00  0.00     0.195 A 
ATOM      5  N2  <0> d           1.042   3.305   0.009  0.00  0.00    -0.226 NA
ATOM      6  S1  <0> d           2.333   0.642  -0.017  0.00  0.00    -0.041 SA
ATOM      7  C5  <0> d           1.119  -0.667  -0.012  0.00  0.00     0.063 A 
ATOM      8  N3  <0> d           0.002  -0.004   0.002  0.00  0.00    -0.171 NA
ATOM      9  H4  <0> d          -2.021   2.307   0.044  0.00  0.00     0.118 H 
ATOM     10  H5  <0> d           1.273  -1.736  -0.020  0.00  0.00     0.129 H 
ENDROOT
BRANCH   1  11
ATOM     11  C1  <0> d          -0.882   4.957   0.035  0.00  0.00    -0.034 C 
ATOM     12  H1  <0> d          -1.039   5.294  -0.989  0.00  0.00     0.035 H 
ATOM     13  H2  <0> d          -1.839   4.926   0.558  0.00  0.00     0.035 H 
ATOM     14  H3  <0> d          -0.212   5.648   0.546  0.00  0.00     0.035 H 
ENDBRANCH   1  11
TORSDOF 1
