REMARK  5 active torsions:
REMARK  status: ('A' for Active; 'I' for Inactive)
REMARK    1  A    between atoms: C1_1  and  C2_2 
REMARK    2  A    between atoms: C2_2  and  C3_3 
REMARK    3  A    between atoms: C2_2  and  C4_4 
REMARK    4  A    between atoms: C2_2  and  C5_5 
REMARK    5  A    between atoms: C5_5  and  S1_6 
ROOT
ATOM      1  C2  <0> d          -0.019   1.526   0.010  0.00  0.00    -0.036 C 
ENDROOT
BRANCH   1   2
ATOM      2  C1  <0> d           1.417   2.055  -0.000  0.00  0.00    -0.069 C 
ATOM      3  H1  <0> d           1.927   1.704  -0.897  0.00  0.00     0.028 H 
ATOM      4  H2  <0> d           1.402   3.145   0.006  0.00  0.00     0.028 H 
ATOM      5  H3  <0> d           1.944   1.694   0.883  0.00  0.00     0.028 H 
ENDBRANCH   1   2
BRANCH   1   6
ATOM      6  C3  <0> d          -0.759   2.033  -1.229  0.00  0.00    -0.069 C 
ATOM      7  H4  <0> d          -1.781   1.655  -1.221  0.00  0.00     0.028 H 
ATOM      8  H5  <0> d          -0.773   3.123  -1.223  0.00  0.00     0.028 H 
ATOM      9  H6  <0> d          -0.248   1.681  -2.126  0.00  0.00     0.028 H 
ENDBRANCH   1   6
BRANCH   1  10
ATOM     10  C4  <0> d          -0.735   2.019   1.269  0.00  0.00    -0.069 C 
ATOM     11  H7  <0> d          -0.208   1.658   2.152  0.00  0.00     0.028 H 
ATOM     12  H8  <0> d          -0.750   3.109   1.275  0.00  0.00     0.028 H 
ATOM     13  H9  <0> d          -1.757   1.642   1.277  0.00  0.00     0.028 H 
ENDBRANCH   1  10
BRANCH   1  14
ATOM     14  C5  <0> d           0.002  -0.004   0.002  0.00  0.00     0.051 C 
ATOM     15  H10 <0> d          -1.020  -0.381   0.010  0.00  0.00     0.061 H 
ATOM     16  H11 <0> d           0.512  -0.356  -0.895  0.00  0.00     0.061 H 
BRANCH  14  17
ATOM     17  S1  <0> d           0.879  -0.605   1.472  0.00  0.00     0.102 S 
ATOM     18  O1  <0> d           2.259  -0.273   1.388  0.00  0.00    -0.595 OA
ATOM     19  O2  <0> d           0.132  -0.308   2.643  0.00  0.00    -0.595 OA
ATOM     20  O3  <0> d           0.838  -2.122   1.359  0.00  0.00    -0.595 OA
ENDBRANCH  14  17
ENDBRANCH   1  14
TORSDOF 5
