REMARK  1 active torsions:
REMARK  status: ('A' for Active; 'I' for Inactive)
REMARK    1  A    between atoms: C1_1  and  C2_2 
ROOT
ATOM      1  C2  <0> d           0.002  -0.004   0.002  0.00  0.00     0.076 A 
ATOM      2  C3  <0> d           0.009  -0.861  -1.164  0.00  0.00     0.090 A 
ATOM      3  C4  <0> d           0.027  -2.163  -0.717  0.00  0.00     0.098 A 
ATOM      4  O1  <0> d           0.035  -2.137   0.606  0.00  0.00    -0.216 OA
ATOM      5  N1  <0> d           0.023  -0.789   1.046  0.00  0.00    -0.132 NA
ATOM      6  C5  <0> d           0.033  -3.319  -1.683  0.00  0.00    -0.003 C 
ATOM      7  C6  <0> d          -0.684  -2.895  -2.965  0.00  0.00     0.001 C 
ATOM      8  N2  <0> d          -0.260  -1.586  -3.444  0.00  0.00    -0.356 N 
ATOM      9  C7  <0> d           0.000  -0.554  -2.605  0.00  0.00     0.256 C 
ATOM     10  O2  <0> d           0.215   0.568  -3.021  0.00  0.00    -0.268 OA
ATOM     11  H4  <0> d           1.062  -3.596  -1.914  0.00  0.00     0.045 H 
ATOM     12  H5  <0> d          -0.485  -4.169  -1.239  0.00  0.00     0.045 H 
ATOM     13  H6  <0> d          -0.484  -3.634  -3.740  0.00  0.00     0.064 H 
ATOM     14  H7  <0> d          -1.757  -2.869  -2.775  0.00  0.00     0.064 H 
ATOM     15  H8  <0> d          -0.160  -1.448  -4.399  0.00  0.00     0.162 HD
ENDROOT
BRANCH   1  16
ATOM     16  C1  <0> d          -0.018   1.503   0.010  0.00  0.00    -0.032 C 
ATOM     17  H1  <0> d           1.004   1.880   0.003  0.00  0.00     0.035 H 
ATOM     18  H2  <0> d          -0.545   1.864  -0.873  0.00  0.00     0.035 H 
ATOM     19  H3  <0> d          -0.529   1.854   0.907  0.00  0.00     0.035 H 
ENDBRANCH   1  16
TORSDOF 1
