REMARK  3 active torsions:
REMARK  status: ('A' for Active; 'I' for Inactive)
REMARK    1  A    between atoms: C1_1  and  C2_2 
REMARK    2  A    between atoms: C7_7  and  O1_8 
REMARK    3  A    between atoms: O1_8  and  C8_9 
ROOT
ATOM      1  C2  <0> d           0.248  -0.025   0.012  0.00  0.00    -0.029 A 
ATOM      2  C3  <0> d           0.519  -0.702  -1.161  0.00  0.00    -0.075 A 
ATOM      3  C4  <0> d           0.824  -2.050  -1.129  0.00  0.00    -0.082 A 
ATOM      4  C5  <0> d           0.858  -2.724   0.078  0.00  0.00    -0.080 A 
ATOM      5  C6  <0> d           0.588  -2.052   1.254  0.00  0.00    -0.050 A 
ATOM      6  C7  <0> d           0.287  -0.698   1.224  0.00  0.00     0.075 A 
ATOM      7  H4  <0> d           0.494  -0.177  -2.105  0.00  0.00     0.084 H 
ATOM      8  H5  <0> d           1.036  -2.577  -2.047  0.00  0.00     0.083 H 
ATOM      9  H6  <0> d           1.096  -3.777   0.101  0.00  0.00     0.083 H 
ATOM     10  H7  <0> d           0.614  -2.579   2.196  0.00  0.00     0.087 H 
ENDROOT
BRANCH   6  11
ATOM     11  O1  <0> d           0.025  -0.033   2.381  0.00  0.00    -0.345 OA
BRANCH  11  12
ATOM     12  C8  <0> d          -0.069  -0.817   3.572  0.00  0.00     0.045 A 
ATOM     13  C10 <0> d          -0.852  -0.225   4.746  0.00  0.00    -0.038 A 
ATOM     14  C9  <0> d           0.674  -0.311   4.811  0.00  0.00    -0.038 A 
ATOM     15  H11 <0> d          -1.295   0.761   4.609  0.00  0.00     0.036 H 
ATOM     16  H12 <0> d          -1.422  -0.914   5.369  0.00  0.00     0.036 H 
ATOM     17  H9  <0> d           1.108  -1.057   5.476  0.00  0.00     0.036 H 
ATOM     18  H10 <0> d           1.235   0.618   4.716  0.00  0.00     0.036 H 
ATOM     19  H8  <0> d          -0.124  -1.895   3.423  0.00  0.00     0.084 H 
ENDBRANCH  11  12
ENDBRANCH   6  11
BRANCH   1  20
ATOM     20  C1  <0> d          -0.085   1.444  -0.024  0.00  0.00    -0.049 C 
ATOM     21  H1  <0> d           0.832   2.027   0.061  0.00  0.00     0.033 H 
ATOM     22  H2  <0> d          -0.579   1.682  -0.966  0.00  0.00     0.033 H 
ATOM     23  H3  <0> d          -0.749   1.688   0.806  0.00  0.00     0.033 H 
ENDBRANCH   1  20
TORSDOF 3
