REMARK  1 active torsions:
REMARK  status: ('A' for Active; 'I' for Inactive)
REMARK    1  A    between atoms: C3_3  and  C5_5 
ROOT
ATOM      1  C5  <0> d           2.162   2.531  -0.906  0.00  0.00     0.018 C 
ATOM      2  C6  <0> d           3.626   2.474  -0.761  0.00  0.00     0.059 C 
ATOM      3  N1  <0> d           4.755   2.429  -0.649  0.00  0.00    -0.197 NA
ATOM      4  H8  <0> d           1.892   2.335  -1.944  0.00  0.00     0.055 H 
ATOM      5  H9  <0> d           1.807   3.521  -0.619  0.00  0.00     0.055 H 
ENDROOT
BRANCH   1   6
ATOM      6  C3  <0> d           1.518   1.476  -0.004  0.00  0.00    -0.043 C 
ATOM      7  C2  <0> d          -0.019   1.534   0.011  0.00  0.00    -0.061 C 
ATOM      8  C1  <0> d           0.002  -0.004   0.002  0.00  0.00    -0.064 C 
ATOM      9  H3  <0> d          -0.448   1.969  -0.892  0.00  0.00     0.033 H 
ATOM     10  H4  <0> d          -0.431   1.960   0.925  0.00  0.00     0.033 H 
ATOM     11  C4  <0> d           1.381   0.097  -0.670  0.00  0.00    -0.061 C 
ATOM     12  H1  <0> d           0.033  -0.446   0.998  0.00  0.00     0.033 H 
ATOM     13  H2  <0> d          -0.763  -0.448  -0.635  0.00  0.00     0.033 H 
ATOM     14  H6  <0> d           2.100  -0.637  -0.305  0.00  0.00     0.033 H 
ATOM     15  H7  <0> d           1.335   0.138  -1.758  0.00  0.00     0.033 H 
ATOM     16  H5  <0> d           1.963   1.439   0.990  0.00  0.00     0.041 H 
ENDBRANCH   1   6
TORSDOF 1
