REMARK  3 active torsions:
REMARK  status: ('A' for Active; 'I' for Inactive)
REMARK    1  A    between atoms: C1_1  and  O1_2 
REMARK    2  A    between atoms: O1_2  and  C2_3 
REMARK    3  A    between atoms: C2_3  and  C3_5 
ROOT
ATOM      1  C3  <0> d          -1.244  -2.135   0.003  0.00  0.00     0.034 C 
ATOM      2  H1  <0> d          -0.850  -2.526  -0.936  0.00  0.00     0.056 H 
ATOM      3  C4  <0> d          -0.453  -2.712   1.199  0.00  0.00    -0.049 C 
ATOM      4  C5  <0> d          -1.514  -3.494   2.033  0.00  0.00    -0.053 C 
ATOM      5  H2  <0> d          -1.122  -4.243   2.720  0.00  0.00     0.040 H 
ATOM      6  C6  <0> d          -2.417  -2.385   2.654  0.00  0.00    -0.061 C 
ATOM      7  C7  <0> d          -3.208  -1.809   1.457  0.00  0.00    -0.060 C 
ATOM      8  C8  <0> d          -2.708  -2.624   0.225  0.00  0.00    -0.042 C 
ATOM      9  H3  <0> d          -3.351  -2.620  -0.655  0.00  0.00     0.041 H 
ATOM     10  C9  <0> d          -2.449  -4.022   0.889  0.00  0.00    -0.058 C 
ATOM     11  H7  <0> d           0.328  -3.386   0.849  0.00  0.00     0.034 H 
ATOM     12  H8  <0> d          -0.021  -1.905   1.792  0.00  0.00     0.034 H 
ATOM     13  H9  <0> d          -3.099  -2.816   3.387  0.00  0.00     0.033 H 
ATOM     14  H10 <0> d          -1.805  -1.609   3.114  0.00  0.00     0.033 H 
ATOM     15  H11 <0> d          -2.984  -0.750   1.328  0.00  0.00     0.033 H 
ATOM     16  H12 <0> d          -4.279  -1.955   1.601  0.00  0.00     0.033 H 
ATOM     17  H13 <0> d          -1.928  -4.704   0.216  0.00  0.00     0.034 H 
ATOM     18  H14 <0> d          -3.365  -4.465   1.281  0.00  0.00     0.034 H 
ENDROOT
BRANCH   1  19
ATOM     19  C2  <0> d          -1.185  -0.630   0.010  0.00  0.00     0.263 C 
ATOM     20  O2  <0> d          -0.939  -0.040   1.035  0.00  0.00    -0.265 OA
BRANCH  19  21
ATOM     21  O1  <0> d          -1.407   0.056  -1.122  0.00  0.00    -0.326 OA
BRANCH  21  22
ATOM     22  C1  <0> d          -1.335   1.504  -1.041  0.00  0.00     0.013 C 
ATOM     23  H4  <0> d          -1.534   1.934  -2.023  0.00  0.00     0.067 H 
ATOM     24  H5  <0> d          -2.077   1.866  -0.329  0.00  0.00     0.067 H 
ATOM     25  H6  <0> d          -0.340   1.800  -0.709  0.00  0.00     0.067 H 
ENDBRANCH  21  22
ENDBRANCH  19  21
ENDBRANCH   1  19
TORSDOF 3
