REMARK  2 active torsions:
REMARK  status: ('A' for Active; 'I' for Inactive)
REMARK    1  A    between atoms: C1_1  and  C2_2 
REMARK    2  A    between atoms: C6_7  and  C8_11 
ROOT
ATOM      1  C2  <0> d          -0.729   1.579   1.267  0.00  0.00     0.001 C 
ATOM      2  H1  <0> d          -1.669   1.240   1.270  0.00  0.00     0.051 H 
ATOM      3  C3  <0> d          -0.731   3.111   1.291  0.00  0.00    -0.056 C 
ATOM      4  C4  <0> d          -1.321   3.598   2.615  0.00  0.00    -0.064 C 
ATOM      5  C5  <0> d          -0.430   3.150   3.776  0.00  0.00    -0.056 C 
ATOM      6  C6  <0> d          -0.417   1.619   3.845  0.00  0.00     0.001 C 
ATOM      7  H2  <0> d           0.230   1.323   4.548  0.00  0.00     0.051 H 
ATOM      8  C7  <0> d           0.000   1.080   2.495  0.00  0.00     0.134 C 
ATOM      9  O1  <0> d           0.892   0.271   2.399  0.00  0.00    -0.297 OA
ATOM     10  H6  <0> d           0.291   3.478   1.191  0.00  0.00     0.034 H 
ATOM     11  H7  <0> d          -1.334   3.487   0.464  0.00  0.00     0.034 H 
ATOM     12  H8  <0> d          -2.319   3.180   2.743  0.00  0.00     0.033 H 
ATOM     13  H9  <0> d          -1.382   4.686   2.605  0.00  0.00     0.033 H 
ATOM     14  H10 <0> d          -0.821   3.553   4.710  0.00  0.00     0.034 H 
ATOM     15  H11 <0> d           0.584   3.515   3.618  0.00  0.00     0.034 H 
ENDROOT
BRANCH   1  16
ATOM     16  C1  <0> d          -0.013   1.086   0.008  0.00  0.00    -0.066 C 
ATOM     17  H3  <0> d           0.002  -0.004   0.002  0.00  0.00     0.028 H 
ATOM     18  H4  <0> d           1.010   1.463   0.000  0.00  0.00     0.028 H 
ATOM     19  H5  <0> d          -0.540   1.447  -0.875  0.00  0.00     0.028 H 
ENDBRANCH   1  16
BRANCH   6  20
ATOM     20  C8  <0> d          -1.817   1.109   4.192  0.00  0.00    -0.066 C 
ATOM     21  H12 <0> d          -1.809   0.019   4.224  0.00  0.00     0.028 H 
ATOM     22  H13 <0> d          -2.115   1.498   5.165  0.00  0.00     0.028 H 
ATOM     23  H14 <0> d          -2.525   1.444   3.434  0.00  0.00     0.028 H 
ENDBRANCH   6  20
TORSDOF 2
