REMARK  5 active torsions:
REMARK  status: ('A' for Active; 'I' for Inactive)
REMARK    1  A    between atoms: C1_1  and  C2_2 
REMARK    2  A    between atoms: C1_1  and  O5_14 
REMARK    3  A    between atoms: C3_4  and  O4_13 
REMARK    4  A    between atoms: C4_6  and  O3_12 
REMARK    5  A    between atoms: C5_8  and  O2_11 
ROOT
ATOM      1  C2  <0> d           1.145   3.085   0.008  0.00  0.00     0.089 C 
ATOM      2  H1  <0> d           0.543   3.403   0.859  0.00  0.00     0.090 H 
ATOM      3  C3  <0> d           2.542   3.755   0.053  0.00  0.00     0.092 C 
ATOM      4  H2  <0> d           3.262   3.202  -0.550  0.00  0.00     0.091 H 
ATOM      5  C4  <0> d           2.226   5.138  -0.580  0.00  0.00     0.110 C 
ATOM      6  H3  <0> d           3.108   5.551  -1.069  0.00  0.00     0.094 H 
ATOM      7  C5  <0> d           1.138   4.783  -1.616  0.00  0.00     0.156 C 
ATOM      8  H4  <0> d           1.588   4.682  -2.604  0.00  0.00     0.133 H 
ATOM      9  O1  <0> d           0.551   3.538  -1.219  0.00  0.00    -0.349 OA
ENDROOT
BRANCH   1  10
ATOM     10  C1  <0> d           1.286   1.562  -0.002  0.00  0.00     0.043 C 
ATOM     11  H5  <0> d           1.840   1.243   0.881  0.00  0.00     0.078 H 
ATOM     12  H6  <0> d           1.823   1.252  -0.899  0.00  0.00     0.078 H 
BRANCH  10  13
ATOM     13  O5  <0> d          -0.011   0.963   0.007  0.00  0.00    -0.398 OA
ATOM     14  H10 <0> d           0.002  -0.004   0.002  0.00  0.00     0.209 HD
ENDBRANCH  10  13
ENDBRANCH   1  10
BRANCH   3  15
ATOM     15  O4  <0> d           3.001   3.897   1.398  0.00  0.00    -0.390 OA
ATOM     16  H9  <0> d           3.872   4.311   1.475  0.00  0.00     0.210 HD
ENDBRANCH   3  15
BRANCH   7  17
ATOM     17  O2  <0> d           0.139   5.805  -1.639  0.00  0.00    -0.369 OA
ATOM     18  H7  <0> d          -0.578   5.640  -2.266  0.00  0.00     0.212 HD
ENDBRANCH   7  17
BRANCH   5  19
ATOM     19  O3  <0> d           1.718   6.046   0.400  0.00  0.00    -0.388 OA
ATOM     20  H8  <0> d           1.427   6.893   0.037  0.00  0.00     0.210 HD
ENDBRANCH   5  19
TORSDOF 5
