REMARK  3 active torsions:
REMARK  status: ('A' for Active; 'I' for Inactive)
REMARK    1  A    between atoms: C1_1  and  N1_2 
REMARK    2  A    between atoms: C3_5  and  O2_9 
REMARK    3  A    between atoms: O2_9  and  C6_10 
ROOT
ATOM      1  N1  <0> d          -1.198   3.127   0.030  0.00  0.00    -0.313 N 
ATOM      2  C2  <0> d          -0.018   3.779   0.023  0.00  0.00     0.071 A 
ATOM      3  N2  <0> d           1.119   3.139   0.008  0.00  0.00    -0.220 NA
ATOM      4  C3  <0> d           1.165   1.799   0.001  0.00  0.00     0.170 A 
ATOM      5  C4  <0> d          -0.013   1.076   0.008  0.00  0.00     0.034 A 
ATOM      6  C5  <0> d          -1.228   1.778   0.017  0.00  0.00     0.252 A 
ATOM      7  O1  <0> d          -2.292   1.179   0.019  0.00  0.00    -0.268 OA
ATOM      8  H4  <0> d          -0.014   4.859   0.029  0.00  0.00     0.144 H 
ATOM      9  H5  <0> d           0.002  -0.004   0.002  0.00  0.00     0.099 H 
ENDROOT
BRANCH   4  10
ATOM     10  O2  <0> d           2.357   1.159  -0.015  0.00  0.00    -0.339 OA
BRANCH  10  11
ATOM     11  C6  <0> d           3.531   1.973  -0.021  0.00  0.00     0.012 C 
ATOM     12  H6  <0> d           3.528   2.608  -0.908  0.00  0.00     0.067 H 
ATOM     13  H7  <0> d           3.545   2.597   0.872  0.00  0.00     0.067 H 
ATOM     14  H8  <0> d           4.415   1.336  -0.034  0.00  0.00     0.067 H 
ENDBRANCH  10  11
ENDBRANCH   4  10
BRANCH   1  15
ATOM     15  C1  <0> d          -2.451   3.885   0.047  0.00  0.00    -0.010 C 
ATOM     16  H1  <0> d          -2.229   4.952   0.051  0.00  0.00     0.057 H 
ATOM     17  H2  <0> d          -3.036   3.639  -0.839  0.00  0.00     0.057 H 
ATOM     18  H3  <0> d          -3.019   3.629   0.941  0.00  0.00     0.057 H 
ENDBRANCH   1  15
TORSDOF 3
