REMARK  3 active torsions:
REMARK  status: ('A' for Active; 'I' for Inactive)
REMARK    1  A    between atoms: C1_1  and  C2_2 
REMARK    2  A    between atoms: C7_9  and  C9_11 
REMARK    3  A    between atoms: C7_9  and  C10_12 
ROOT
ATOM      1  C2  <0> d           0.023   0.004   0.001  0.00  0.00    -0.051 C 
ATOM      2  H1  <0> d           0.533  -0.349  -0.895  0.00  0.00     0.040 H 
ATOM      3  C3  <0> d          -1.436  -0.518   0.001  0.00  0.00    -0.007 C 
ATOM      4  C4  <0> d          -1.443  -1.987  -0.247  0.00  0.00     0.127 C 
ATOM      5  O1  <0> d          -1.520  -2.381  -1.386  0.00  0.00    -0.298 OA
ATOM      6  C5  <0> d          -1.355  -3.008   0.873  0.00  0.00    -0.009 C 
ATOM      7  C6  <0> d          -0.325  -2.593   1.940  0.00  0.00    -0.052 C 
ATOM      8  C7  <0> d           0.888  -2.000   1.264  0.00  0.00    -0.047 C 
ATOM      9  C8  <0> d           0.731  -0.488   1.193  0.00  0.00    -0.055 C 
ATOM     10  H5  <0> d          -1.895  -0.312   0.968  0.00  0.00     0.044 H 
ATOM     11  H6  <0> d          -2.002  -0.015  -0.783  0.00  0.00     0.044 H 
ATOM     12  H7  <0> d          -2.334  -3.106   1.342  0.00  0.00     0.044 H 
ATOM     13  H8  <0> d          -1.065  -3.972   0.454  0.00  0.00     0.044 H 
ATOM     14  H9  <0> d          -0.769  -1.852   2.605  0.00  0.00     0.034 H 
ATOM     15  H10 <0> d          -0.028  -3.468   2.518  0.00  0.00     0.034 H 
ATOM     16  H11 <0> d           1.724  -0.039   1.214  0.00  0.00     0.034 H 
ATOM     17  H12 <0> d           0.189  -0.155   2.078  0.00  0.00     0.034 H 
ENDROOT
BRANCH   8  18
ATOM     18  C9  <0> d           1.015  -2.569  -0.150  0.00  0.00    -0.069 C 
ATOM     19  H13 <0> d           0.389  -1.992  -0.831  0.00  0.00     0.028 H 
ATOM     20  H14 <0> d           2.054  -2.510  -0.474  0.00  0.00     0.028 H 
ATOM     21  H15 <0> d           0.692  -3.610  -0.153  0.00  0.00     0.028 H 
ENDBRANCH   8  18
BRANCH   8  22
ATOM     22  C10 <0> d           2.142  -2.347   2.070  0.00  0.00    -0.069 C 
ATOM     23  H16 <0> d           2.251  -3.430   2.125  0.00  0.00     0.028 H 
ATOM     24  H17 <0> d           3.018  -1.918   1.582  0.00  0.00     0.028 H 
ATOM     25  H18 <0> d           2.051  -1.939   3.077  0.00  0.00     0.028 H 
ENDBRANCH   8  22
BRANCH   1  26
ATOM     26  C1  <0> d           0.015   1.534   0.010  0.00  0.00    -0.072 C 
ATOM     27  H2  <0> d           1.041   1.903   0.006  0.00  0.00     0.028 H 
ATOM     28  H3  <0> d          -0.506   1.900  -0.875  0.00  0.00     0.028 H 
ATOM     29  H4  <0> d          -0.495   1.889   0.905  0.00  0.00     0.028 H 
ENDBRANCH   1  26
TORSDOF 3
