REMARK  2 active torsions:
REMARK  status: ('A' for Active; 'I' for Inactive)
REMARK    1  A    between atoms: C1_1  and  C2_2 
REMARK    2  A    between atoms: C2_2  and  C10_11 
ROOT
ATOM      1  C2  <0> d           0.002  -0.004   0.002  0.00  0.00    -0.002 A 
ATOM      2  C3  <0> d          -1.425  -0.561   0.135  0.00  0.00     0.003 A 
ATOM      3  N1  <0> d          -1.419  -1.339   1.377  0.00  0.00    -0.388 N 
ATOM      4  C4  <0> d          -0.155  -1.291   1.967  0.00  0.00     0.035 A 
ATOM      5  C5  <0> d           0.729  -0.529   1.220  0.00  0.00    -0.022 A 
ATOM      6  C6  <0> d           2.035  -0.359   1.638  0.00  0.00    -0.074 A 
ATOM      7  C7  <0> d           2.471  -0.952   2.809  0.00  0.00    -0.082 A 
ATOM      8  C8  <0> d           1.597  -1.714   3.561  0.00  0.00    -0.081 A 
ATOM      9  C9  <0> d           0.293  -1.886   3.148  0.00  0.00    -0.057 A 
ATOM     10  H4  <0> d          -2.144   0.255   0.204  0.00  0.00     0.065 H 
ATOM     11  H5  <0> d          -1.661  -1.203  -0.713  0.00  0.00     0.065 H 
ATOM     12  H6  <0> d          -2.182  -1.818   1.736  0.00  0.00     0.159 HD
ATOM     13  H7  <0> d           2.716   0.236   1.049  0.00  0.00     0.084 H 
ATOM     14  H8  <0> d           3.493  -0.819   3.135  0.00  0.00     0.083 H 
ATOM     15  H9  <0> d           1.938  -2.177   4.476  0.00  0.00     0.083 H 
ATOM     16  H10 <0> d          -0.385  -2.482   3.741  0.00  0.00     0.086 H 
ENDROOT
BRANCH   1  17
ATOM     17  C1  <0> d          -0.019   1.526   0.010  0.00  0.00    -0.064 C 
ATOM     18  H1  <0> d           1.004   1.903   0.003  0.00  0.00     0.028 H 
ATOM     19  H2  <0> d          -0.546   1.887  -0.873  0.00  0.00     0.028 H 
ATOM     20  H3  <0> d          -0.529   1.877   0.907  0.00  0.00     0.028 H 
ENDBRANCH   1  17
BRANCH   1  21
ATOM     21  C10 <0> d           0.662  -0.521  -1.278  0.00  0.00    -0.064 C 
ATOM     22  H11 <0> d           1.690  -0.162  -1.327  0.00  0.00     0.028 H 
ATOM     23  H12 <0> d           0.658  -1.611  -1.274  0.00  0.00     0.028 H 
ATOM     24  H13 <0> d           0.109  -0.158  -2.144  0.00  0.00     0.028 H 
ENDBRANCH   1  21
TORSDOF 2
