REMARK  3 active torsions:
REMARK  status: ('A' for Active; 'I' for Inactive)
REMARK    1  A    between atoms: C1_1  and  C2_2 
REMARK    2  A    between atoms: C6_6  and  C7_8 
REMARK    3  A    between atoms: C7_8  and  O1_9 
ROOT
ATOM      1  C2  <0> d           1.096   2.023   0.003  0.00  0.00     0.031 A 
ATOM      2  C3  <0> d           2.331   1.401  -0.013  0.00  0.00    -0.059 A 
ATOM      3  C4  <0> d           2.389   0.017  -0.021  0.00  0.00    -0.079 A 
ATOM      4  C5  <0> d           1.199  -0.695  -0.013  0.00  0.00    -0.057 A 
ATOM      5  C6  <0> d           0.002  -0.004   0.002  0.00  0.00     0.058 A 
ATOM      6  N1  <0> d          -0.016   1.315   0.009  0.00  0.00    -0.256 NA
ATOM      7  H4  <0> d           3.238   1.987  -0.018  0.00  0.00     0.086 H 
ATOM      8  H5  <0> d           3.340  -0.496  -0.033  0.00  0.00     0.083 H 
ATOM      9  H6  <0> d           1.207  -1.775  -0.019  0.00  0.00     0.086 H 
ENDROOT
BRANCH   5  10
ATOM     10  C7  <0> d          -1.298  -0.767   0.011  0.00  0.00     0.056 C 
ATOM     11  H7  <0> d          -1.862  -0.512   0.908  0.00  0.00     0.083 H 
ATOM     12  H8  <0> d          -1.880  -0.502  -0.872  0.00  0.00     0.083 H 
BRANCH  10  13
ATOM     13  O1  <0> d          -1.027  -2.170   0.001  0.00  0.00    -0.395 OA
ATOM     14  H9  <0> d          -1.820  -2.723   0.005  0.00  0.00     0.209 HD
ENDBRANCH  10  13
ENDBRANCH   5  10
BRANCH   1  15
ATOM     15  C1  <0> d           1.020   3.528   0.011  0.00  0.00    -0.035 C 
ATOM     16  H1  <0> d           1.012   3.886   1.040  0.00  0.00     0.035 H 
ATOM     17  H2  <0> d           1.886   3.939  -0.509  0.00  0.00     0.035 H 
ATOM     18  H3  <0> d           0.108   3.849  -0.493  0.00  0.00     0.035 H 
ENDBRANCH   1  15
TORSDOF 3
