REMARK  3 active torsions:
REMARK  status: ('A' for Active; 'I' for Inactive)
REMARK    1  A    between atoms: C1_1  and  O1_2 
REMARK    2  A    between atoms: O1_2  and  C2_3 
REMARK    3  A    between atoms: C2_3  and  C3_4 
ROOT
ATOM      1  C3  <0> d           0.614  -2.074  -1.042  0.00  0.00     0.064 A 
ATOM      2  C4  <0> d          -0.089  -2.797  -1.958  0.00  0.00     0.009 A 
ATOM      3  C5  <0> d          -0.104  -4.203  -1.839  0.00  0.00     0.248 A 
ATOM      4  O2  <0> d          -0.721  -4.888  -2.638  0.00  0.00    -0.268 OA
ATOM      5  N1  <0> d           0.579  -4.773  -0.824  0.00  0.00    -0.318 N 
ATOM      6  C6  <0> d           1.255  -4.000   0.049  0.00  0.00     0.067 A 
ATOM      7  N2  <0> d           1.273  -2.699  -0.064  0.00  0.00    -0.246 NA
ATOM      8  H1  <0> d           0.583  -5.737  -0.722  0.00  0.00     0.169 HD
ATOM      9  H7  <0> d          -0.624  -2.306  -2.756  0.00  0.00     0.095 H 
ATOM     10  H8  <0> d           1.798  -4.467   0.857  0.00  0.00     0.143 H 
ENDROOT
BRANCH   1  11
ATOM     11  C2  <0> d           0.652  -0.570  -1.138  0.00  0.00     0.059 C 
ATOM     12  H5  <0> d           0.139  -0.251  -2.045  0.00  0.00     0.084 H 
ATOM     13  H6  <0> d           1.688  -0.234  -1.169  0.00  0.00     0.084 H 
BRANCH  11  14
ATOM     14  O1  <0> d           0.002  -0.004   0.002  0.00  0.00    -0.390 OA
BRANCH  14  15
ATOM     15  C1  <0> d          -0.017   1.425   0.010  0.00  0.00     0.004 C 
ATOM     16  H2  <0> d           1.005   1.802   0.002  0.00  0.00     0.066 H 
ATOM     17  H3  <0> d          -0.544   1.786  -0.873  0.00  0.00     0.066 H 
ATOM     18  H4  <0> d          -0.527   1.776   0.907  0.00  0.00     0.066 H 
ENDBRANCH  14  15
ENDBRANCH  11  14
ENDBRANCH   1  11
TORSDOF 3
