REMARK  2 active torsions:
REMARK  status: ('A' for Active; 'I' for Inactive)
REMARK    1  A    between atoms: C1_1  and  C2_2 
REMARK    2  A    between atoms: C4_8  and  N5_10 
ROOT
ATOM      1  C2  <0> d           2.035   0.606  -0.014  0.00  0.00     0.148 A 
ATOM      2  N1  <0> d           1.223  -0.414  -0.012  0.00  0.00    -0.133 NA
ATOM      3  N2  <0> d           0.002  -0.004   0.002  0.00  0.00    -0.120 NA
ATOM      4  C3  <0> d          -0.015   1.295   0.009  0.00  0.00     0.220 A 
ATOM      5  N3  <0> d           1.276   1.757  -0.001  0.00  0.00    -0.189 N 
ATOM      6  N4  <0> d           1.442   3.136   0.006  0.00  0.00    -0.138 NA
ATOM      7  C4  <0> d           0.413   3.942   0.021  0.00  0.00     0.187 A 
ATOM      8  S1  <0> d          -0.959   2.798   0.032  0.00  0.00    -0.009 SA
ENDROOT
BRANCH   1   9
ATOM      9  C1  <0> d           3.541   0.539  -0.028  0.00  0.00    -0.018 C 
ATOM     10  H1  <0> d           3.861  -0.513  -0.037  0.00  0.00     0.038 H 
ATOM     11  H2  <0> d           3.938   1.036   0.869  0.00  0.00     0.038 H 
ATOM     12  H3  <0> d           3.922   1.046  -0.927  0.00  0.00     0.038 H 
ENDBRANCH   1   9
BRANCH   7  13
ATOM     13  N5  <0> d           0.392   5.326   0.029  0.00  0.00    -0.377 N 
ATOM     14  H4  <0> d          -0.569   5.862   0.042  0.00  0.00     0.158 HD
ATOM     15  H5  <0> d           1.336   5.891   0.024  0.00  0.00     0.158 HD
ENDBRANCH   7  13
TORSDOF 2
