REMARK  2 active torsions:
REMARK  status: ('A' for Active; 'I' for Inactive)
REMARK    1  A    between atoms: C1_1  and  N1_2 
REMARK    2  A    between atoms: C4_5  and  C7_10 
ROOT
ATOM      1  N1  <0> d           1.822   5.727  -0.763  0.00  0.00    -0.356 N 
ATOM      2  C2  <0> d           2.738   5.071   0.161  0.00  0.00    -0.002 C 
ATOM      3  C3  <0> d           2.697   3.554  -0.031  0.00  0.00    -0.037 C 
ATOM      4  C4  <0> d           1.235   3.094   0.007  0.00  0.00     0.040 C 
ATOM      5  H1  <0> d           0.741   3.449   0.924  0.00  0.00     0.057 H 
ATOM      6  C5  <0> d           0.523   3.644  -1.232  0.00  0.00     0.022 C 
ATOM      7  C6  <0> d           0.812   5.110  -1.379  0.00  0.00     0.220 C 
ATOM      8  O1  <0> d           0.088   5.769  -2.095  0.00  0.00    -0.273 OA
ATOM      9  H5  <0> d           3.762   5.427  -0.024  0.00  0.00     0.064 H 
ATOM     10  H6  <0> d           2.449   5.309   1.195  0.00  0.00     0.064 H 
ATOM     11  H7  <0> d           3.146   3.295  -1.001  0.00  0.00     0.036 H 
ATOM     12  H8  <0> d           3.263   3.067   0.777  0.00  0.00     0.036 H 
ATOM     13  H9  <0> d           0.880   3.112  -2.126  0.00  0.00     0.048 H 
ATOM     14  H10 <0> d          -0.562   3.497  -1.127  0.00  0.00     0.048 H 
ENDROOT
BRANCH   1  15
ATOM     15  C1  <0> d           2.022   7.153  -1.032  0.00  0.00    -0.016 C 
ATOM     16  H2  <0> d           2.885   7.517  -0.457  0.00  0.00     0.056 H 
ATOM     17  H3  <0> d           1.122   7.712  -0.736  0.00  0.00     0.056 H 
ATOM     18  H4  <0> d           2.208   7.301  -2.107  0.00  0.00     0.056 H 
ENDBRANCH   1  15
BRANCH   4  19
ATOM     19  C7  <0> d           1.177   1.588  -0.001  0.00  0.00     0.177 C 
ATOM     20  O2  <0> d           2.199   0.944  -0.014  0.00  0.00    -0.648 OA
ATOM     21  O3  <0> d          -0.011   0.963   0.007  0.00  0.00    -0.648 OA
ENDBRANCH   4  19
TORSDOF 2
