REMARK  0 active torsions:
REMARK  status: ('A' for Active; 'I' for Inactive)
ROOT
ATOM      1  C1  <0> d           0.778   4.382   0.532  0.00  0.00    -0.025 C 
ATOM      2  C2  <0> d          -0.515   5.173   0.371  0.00  0.00    -0.104 C 
ATOM      3  C3  <0> d          -1.359   4.557  -0.407  0.00  0.00    -0.100 C 
ATOM      4  C4  <0> d          -0.800   3.251  -0.906  0.00  0.00    -0.004 C 
ATOM      5  H1  <0> d          -1.012   3.060  -1.958  0.00  0.00     0.050 H 
ATOM      6  C5  <0> d           0.723   3.314  -0.584  0.00  0.00     0.058 C 
ATOM      7  H2  <0> d           1.339   3.562  -1.449  0.00  0.00     0.085 H 
ATOM      8  O1  <0> d           1.055   2.021   0.003  0.00  0.00    -0.315 OA
ATOM      9  C6  <0> d          -0.014   1.204   0.009  0.00  0.00     0.259 C 
ATOM     10  O2  <0> d           0.002  -0.004   0.002  0.00  0.00    -0.265 OA
ATOM     11  C7  <0> d          -1.250   2.096   0.019  0.00  0.00     0.024 C 
ATOM     12  H3  <0> d           0.809   3.904   1.511  0.00  0.00     0.042 H 
ATOM     13  H4  <0> d           1.649   5.025   0.397  0.00  0.00     0.042 H 
ATOM     14  H5  <0> d          -0.701   6.129   0.838  0.00  0.00     0.076 H 
ATOM     15  H6  <0> d          -2.338   4.935  -0.661  0.00  0.00     0.077 H 
ATOM     16  H7  <0> d          -2.113   1.576  -0.397  0.00  0.00     0.049 H 
ATOM     17  H8  <0> d          -1.462   2.462   1.024  0.00  0.00     0.049 H 
ENDROOT
TORSDOF 0
