REMARK  0 active torsions:
REMARK  status: ('A' for Active; 'I' for Inactive)
ROOT
ATOM      1  C1  <0> d          -1.142   1.350   3.600  0.00  0.00    -0.082 A 
ATOM      2  C2  <0> d          -1.977   2.453   3.562  0.00  0.00    -0.082 A 
ATOM      3  C3  <0> d          -2.186   3.121   2.372  0.00  0.00    -0.067 A 
ATOM      4  C4  <0> d          -1.551   2.678   1.212  0.00  0.00     0.045 A 
ATOM      5  C5  <0> d          -0.711   1.568   1.252  0.00  0.00    -0.040 A 
ATOM      6  C6  <0> d          -0.509   0.909   2.452  0.00  0.00    -0.076 A 
ATOM      7  C7  <0> d          -0.013   1.086   0.008  0.00  0.00    -0.020 C 
ATOM      8  C8  <0> d          -0.745   1.589  -1.236  0.00  0.00     0.033 C 
ATOM      9  O1  <0> d          -0.971   3.023  -1.115  0.00  0.00    -0.317 OA
ATOM     10  C9  <0> d          -1.767   3.381  -0.074  0.00  0.00     0.293 C 
ATOM     11  O2  <0> d          -2.619   4.238  -0.193  0.00  0.00    -0.259 OA
ATOM     12  H1  <0> d          -0.983   0.829   4.533  0.00  0.00     0.083 H 
ATOM     13  H2  <0> d          -2.466   2.791   4.463  0.00  0.00     0.083 H 
ATOM     14  H3  <0> d          -2.837   3.981   2.340  0.00  0.00     0.085 H 
ATOM     15  H4  <0> d           0.141   0.048   2.491  0.00  0.00     0.084 H 
ATOM     16  H5  <0> d           0.002  -0.004   0.002  0.00  0.00     0.043 H 
ATOM     17  H6  <0> d           1.011   1.460   0.000  0.00  0.00     0.043 H 
ATOM     18  H7  <0> d          -0.140   1.390  -2.120  0.00  0.00     0.075 H 
ATOM     19  H8  <0> d          -1.703   1.076  -1.327  0.00  0.00     0.075 H 
ENDROOT
TORSDOF 0
