REMARK  5 active torsions:
REMARK  status: ('A' for Active; 'I' for Inactive)
REMARK    1  A    between atoms: C1_1  and  N1_2 
REMARK    2  A    between atoms: N1_2  and  C2_3 
REMARK    3  A    between atoms: N1_2  and  C5_7 
REMARK    4  A    between atoms: C2_3  and  C3_4 
REMARK    5  A    between atoms: C5_7  and  C6_8 
ROOT
ATOM      1  C3  <0> d          -0.018   1.468   0.010  0.00  0.00     0.040 C 
ATOM      2  C4  <0> d           0.002  -0.004   0.002  0.00  0.00     0.060 C 
ATOM      3  N2  <0> d           0.018  -1.140  -0.004  0.00  0.00    -0.197 NA
ATOM      4  H6  <0> d          -0.550   1.832  -0.881  0.00  0.00     0.057 H 
ATOM      5  H7  <0> d           1.014   1.849   0.002  0.00  0.00     0.057 H 
ENDROOT
BRANCH   1   6
ATOM      6  C2  <0> d          -0.734   1.961   1.269  0.00  0.00     0.124 C 
ATOM      7  H4  <0> d          -0.202   1.597   2.160  0.00  0.00     0.081 H 
ATOM      8  H5  <0> d          -1.766   1.580   1.277  0.00  0.00     0.081 H 
BRANCH   6   9
ATOM      9  N1  <0> d          -0.754   3.430   1.277  0.00  0.00     0.086 N 
BRANCH   9  10
ATOM     10  C1  <0> d           0.604   3.974   1.411  0.00  0.00     0.095 C 
ATOM     11  H1  <0> d           0.560   5.073   1.415  0.00  0.00     0.071 H 
ATOM     12  H2  <0> d           1.220   3.635   0.566  0.00  0.00     0.071 H 
ATOM     13  H3  <0> d           1.048   3.622   2.354  0.00  0.00     0.071 H 
ENDBRANCH   9  10
BRANCH   9  14
ATOM     14  C5  <0> d          -1.633   3.939   2.339  0.00  0.00     0.124 C 
ATOM     15  H8  <0> d          -2.608   3.435   2.280  0.00  0.00     0.081 H 
ATOM     16  H9  <0> d          -1.176   3.740   3.320  0.00  0.00     0.081 H 
BRANCH  14  17
ATOM     17  C6  <0> d          -1.825   5.446   2.162  0.00  0.00     0.040 C 
ATOM     18  C7  <0> d          -2.706   5.956   3.226  0.00  0.00     0.060 C 
ATOM     19  N3  <0> d          -3.385   6.349   4.047  0.00  0.00    -0.197 NA
ATOM     20  H10 <0> d          -0.849   5.950   2.221  0.00  0.00     0.057 H 
ATOM     21  H11 <0> d          -2.282   5.645   1.182  0.00  0.00     0.057 H 
ENDBRANCH  14  17
ENDBRANCH   9  14
ENDBRANCH   6   9
ENDBRANCH   1   6
TORSDOF 5
