REMARK  5 active torsions:
REMARK  status: ('A' for Active; 'I' for Inactive)
REMARK    1  A    between atoms: C1_1  and  C2_2 
REMARK    2  A    between atoms: C2_2  and  C3_4 
REMARK    3  A    between atoms: C2_2  and  O2_9 
REMARK    4  A    between atoms: O2_9  and  C7_10 
REMARK    5  A    between atoms: C7_10  and  C8_12 
ROOT
ATOM      1  C2  <0> d          -2.393   1.052   0.019  0.00  0.00     0.090 C 
ATOM      2  H1  <0> d          -2.197   0.107   0.527  0.00  0.00     0.094 H 
ENDROOT
BRANCH   1   3
ATOM      3  C1  <0> d          -2.823   0.776  -1.423  0.00  0.00    -0.046 C 
ATOM      4  H2  <0> d          -3.729   0.170  -1.422  0.00  0.00     0.031 H 
ATOM      5  H3  <0> d          -3.019   1.721  -1.931  0.00  0.00     0.031 H 
ATOM      6  H4  <0> d          -2.029   0.241  -1.943  0.00  0.00     0.031 H 
ENDBRANCH   1   3
BRANCH   1   7
ATOM      7  C3  <0> d          -3.491   1.792   0.739  0.00  0.00     0.081 A 
ATOM      8  O1  <0> d          -3.740   3.108   0.650  0.00  0.00    -0.324 OA
ATOM      9  C6  <0> d          -4.792   3.418   1.425  0.00  0.00     0.019 A 
ATOM     10  C5  <0> d          -5.226   2.294   2.022  0.00  0.00    -0.059 A 
ATOM     11  H7  <0> d          -5.217   4.404   1.550  0.00  0.00     0.123 H 
ATOM     12  C4  <0> d          -4.391   1.244   1.575  0.00  0.00    -0.050 A 
ATOM     13  H6  <0> d          -6.057   2.208   2.707  0.00  0.00     0.086 H 
ATOM     14  H5  <0> d          -4.461   0.203   1.853  0.00  0.00     0.087 H 
ENDBRANCH   1   7
BRANCH   1  15
ATOM     15  O2  <0> d          -1.186   1.859   0.018  0.00  0.00    -0.310 OA
BRANCH  15  16
ATOM     16  C7  <0> d          -0.014   1.204   0.009  0.00  0.00     0.255 C 
ATOM     17  O3  <0> d           0.002  -0.004   0.002  0.00  0.00    -0.266 OA
BRANCH  16  18
ATOM     18  C8  <0> d           1.280   1.975   0.000  0.00  0.00     0.004 C 
ATOM     19  H8  <0> d           2.118   1.278  -0.011  0.00  0.00     0.041 H 
ATOM     20  H9  <0> d           1.321   2.607  -0.887  0.00  0.00     0.041 H 
ATOM     21  H10 <0> d           1.338   2.598   0.893  0.00  0.00     0.041 H 
ENDBRANCH  16  18
ENDBRANCH  15  16
ENDBRANCH   1  15
TORSDOF 5
