REMARK  0 active torsions:
REMARK  status: ('A' for Active; 'I' for Inactive)
ROOT
ATOM      1  C1  <0> d          -0.017   1.402   0.010  0.00  0.00    -0.060 A 
ATOM      2  C2  <0> d           1.139   2.114   0.003  0.00  0.00    -0.051 A 
ATOM      3  C3  <0> d           2.378   1.447  -0.013  0.00  0.00     0.085 A 
ATOM      4  C4  <0> d           2.411   0.029  -0.021  0.00  0.00     0.086 A 
ATOM      5  C5  <0> d           1.205  -0.690  -0.014  0.00  0.00    -0.033 A 
ATOM      6  C6  <0> d           0.002  -0.004   0.002  0.00  0.00     0.047 A 
ATOM      7  C7  <0> d          -1.231  -0.732   0.010  0.00  0.00     0.099 C 
ATOM      8  N1  <0> d          -2.210  -1.309   0.017  0.00  0.00    -0.191 NA
ATOM      9  N2  <0> d           3.590  -0.605  -0.034  0.00  0.00    -0.257 NA
ATOM     10  C8  <0> d           4.703   0.091  -0.040  0.00  0.00     0.020 A 
ATOM     11  C9  <0> d           4.670   1.488  -0.031  0.00  0.00     0.020 A 
ATOM     12  N3  <0> d           3.526   2.132  -0.019  0.00  0.00    -0.257 NA
ATOM     13  H1  <0> d          -0.963   1.923   0.026  0.00  0.00     0.086 H 
ATOM     14  H2  <0> d           1.108   3.193   0.008  0.00  0.00     0.087 H 
ATOM     15  H3  <0> d           1.216  -1.770  -0.020  0.00  0.00     0.089 H 
ATOM     16  H4  <0> d           5.653  -0.422  -0.050  0.00  0.00     0.117 H 
ATOM     17  H5  <0> d           5.596   2.043  -0.035  0.00  0.00     0.117 H 
ENDROOT
TORSDOF 0
