REMARK  1 active torsions:
REMARK  status: ('A' for Active; 'I' for Inactive)
REMARK    1  A    between atoms: C8_9  and  O3_12 
ROOT
ATOM      1  C1  <0> d          -0.017   1.378   0.010  0.00  0.00    -0.080 A 
ATOM      2  C2  <0> d           1.170   2.088   0.002  0.00  0.00    -0.080 A 
ATOM      3  C3  <0> d           2.378   1.418  -0.012  0.00  0.00    -0.048 A 
ATOM      4  C4  <0> d           2.404   0.031  -0.018  0.00  0.00     0.105 A 
ATOM      5  C5  <0> d           1.212  -0.682  -0.013  0.00  0.00     0.102 A 
ATOM      6  C6  <0> d           0.002  -0.004   0.002  0.00  0.00    -0.048 A 
ATOM      7  O1  <0> d           1.214  -2.043  -0.029  0.00  0.00    -0.344 OA
ATOM      8  C7  <0> d           2.440  -2.689   0.333  0.00  0.00     0.072 C 
ATOM      9  C8  <0> d           3.588  -1.993  -0.413  0.00  0.00     0.155 C 
ATOM     10  H1  <0> d           3.428  -2.072  -1.488  0.00  0.00     0.132 H 
ATOM     11  O2  <0> d           3.602  -0.615  -0.026  0.00  0.00    -0.316 OA
ATOM     12  H2  <0> d          -0.960   1.904   0.017  0.00  0.00     0.083 H 
ATOM     13  H3  <0> d           1.152   3.167   0.007  0.00  0.00     0.083 H 
ATOM     14  H4  <0> d           3.304   1.975  -0.017  0.00  0.00     0.087 H 
ATOM     15  H5  <0> d          -0.926  -0.556   0.009  0.00  0.00     0.087 H 
ATOM     16  H6  <0> d           2.401  -3.740   0.047  0.00  0.00     0.082 H 
ATOM     17  H7  <0> d           2.597  -2.605   1.408  0.00  0.00     0.082 H 
ENDROOT
BRANCH   9  18
ATOM     18  O3  <0> d           4.831  -2.605  -0.063  0.00  0.00    -0.369 OA
ATOM     19  H8  <0> d           5.601  -2.201  -0.485  0.00  0.00     0.212 HD
ENDBRANCH   9  18
TORSDOF 1
