REMARK  3 active torsions:
REMARK  status: ('A' for Active; 'I' for Inactive)
REMARK    1  A    between atoms: C1_1  and  O1_2 
REMARK    2  A    between atoms: O1_2  and  C2_3 
REMARK    3  A    between atoms: C3_4  and  N3_9 
ROOT
ATOM      1  C2  <0> d          -2.430   0.931   0.019  0.00  0.00     0.210 A 
ATOM      2  C3  <0> d          -1.226   1.645   0.017  0.00  0.00     0.174 A 
ATOM      3  N1  <0> d          -1.247   2.969   0.030  0.00  0.00    -0.238 NA
ATOM      4  C4  <0> d          -2.404   3.613   0.033  0.00  0.00     0.021 A 
ATOM      5  C5  <0> d          -3.590   2.909   0.035  0.00  0.00     0.022 A 
ATOM      6  N2  <0> d          -3.580   1.584   0.028  0.00  0.00    -0.232 NA
ATOM      7  H4  <0> d          -2.419   4.693   0.038  0.00  0.00     0.117 H 
ATOM      8  H5  <0> d          -4.530   3.440   0.042  0.00  0.00     0.117 H 
ENDROOT
BRANCH   1   9
ATOM      9  O1  <0> d          -2.418  -0.426   0.011  0.00  0.00    -0.337 OA
BRANCH   9  10
ATOM     10  C1  <0> d          -3.685  -1.086   0.013  0.00  0.00     0.012 C 
ATOM     11  H1  <0> d          -3.531  -2.175   0.006  0.00  0.00     0.067 H 
ATOM     12  H2  <0> d          -4.254  -0.791  -0.880  0.00  0.00     0.067 H 
ATOM     13  H3  <0> d          -4.245  -0.801   0.916  0.00  0.00     0.067 H 
ENDBRANCH   9  10
ENDBRANCH   1   9
BRANCH   2  14
ATOM     14  N3  <0> d          -0.011   0.966   0.007  0.00  0.00    -0.380 N 
ATOM     15  H6  <0> d           0.934   1.529   0.006  0.00  0.00     0.157 HD
ATOM     16  H7  <0> d           0.004  -0.134   0.001  0.00  0.00     0.157 HD
ENDBRANCH   2  14
TORSDOF 3
