REMARK  5 active torsions:
REMARK  status: ('A' for Active; 'I' for Inactive)
REMARK    1  A    between atoms: C1_1  and  C2_2 
REMARK    2  A    between atoms: C2_2  and  C3_3 
REMARK    3  A    between atoms: C2_2  and  C4_4 
REMARK    4  A    between atoms: C6_7  and  C8_12 
REMARK    5  A    between atoms: C8_12  and  O2_13 
ROOT
ATOM      1  C4  <0> d           1.423   1.615  -0.003  0.00  0.00     0.028 C 
ATOM      2  H1  <0> d           1.426   2.705   0.015  0.00  0.00     0.055 H 
ATOM      3  C5  <0> d           2.183   1.092  -1.244  0.00  0.00    -0.033 C 
ATOM      4  C6  <0> d           3.601   0.869  -0.673  0.00  0.00     0.033 C 
ATOM      5  H2  <0> d           4.219   1.750  -0.841  0.00  0.00     0.075 H 
ATOM      6  N1  <0> d           3.413   0.645   0.766  0.00  0.00    -0.354 N 
ATOM      7  C7  <0> d           2.200   1.063   1.172  0.00  0.00     0.222 C 
ATOM      8  O1  <0> d           1.788   1.006   2.311  0.00  0.00    -0.273 OA
ATOM      9  H10 <0> d           1.753   0.156  -1.598  0.00  0.00     0.037 H 
ATOM     10  H11 <0> d           2.195   1.839  -2.037  0.00  0.00     0.037 H 
ATOM     11  H12 <0> d           4.079   0.249   1.349  0.00  0.00     0.162 HD
ENDROOT
BRANCH   1  12
ATOM     12  C2  <0> d          -0.013   1.086   0.008  0.00  0.00    -0.049 C 
ATOM     13  H6  <0> d           0.002  -0.004   0.002  0.00  0.00     0.040 H 
BRANCH  12  14
ATOM     14  C1  <0> d          -0.753   1.593  -1.232  0.00  0.00    -0.072 C 
ATOM     15  H3  <0> d          -1.775   1.215  -1.224  0.00  0.00     0.028 H 
ATOM     16  H4  <0> d          -0.767   2.683  -1.226  0.00  0.00     0.028 H 
ATOM     17  H5  <0> d          -0.242   1.241  -2.128  0.00  0.00     0.028 H 
ENDBRANCH  12  14
BRANCH  12  18
ATOM     18  C3  <0> d          -0.729   1.579   1.267  0.00  0.00    -0.072 C 
ATOM     19  H7  <0> d          -0.744   2.669   1.273  0.00  0.00     0.028 H 
ATOM     20  H8  <0> d          -1.751   1.202   1.275  0.00  0.00     0.028 H 
ATOM     21  H9  <0> d          -0.202   1.218   2.150  0.00  0.00     0.028 H 
ENDBRANCH  12  18
ENDBRANCH   1  12
BRANCH   4  22
ATOM     22  C8  <0> d           4.244  -0.360  -1.320  0.00  0.00     0.035 C 
ATOM     23  H13 <0> d           3.684  -1.252  -1.041  0.00  0.00     0.077 H 
ATOM     24  H14 <0> d           4.233  -0.247  -2.404  0.00  0.00     0.077 H 
BRANCH  22  25
ATOM     25  O2  <0> d           5.594  -0.484  -0.868  0.00  0.00    -0.399 OA
ATOM     26  H15 <0> d           6.065  -1.243  -1.238  0.00  0.00     0.209 HD
ENDBRANCH  22  25
ENDBRANCH   4  22
TORSDOF 5
