REMARK  0 active torsions:
REMARK  status: ('A' for Active; 'I' for Inactive)
ROOT
ATOM      1  C1  <0> d          -1.199   2.314   0.020  0.00  0.00    -0.062 A 
ATOM      2  C2  <0> d          -1.020   3.649   0.027  0.00  0.00    -0.044 A 
ATOM      3  S1  <0> d           0.754   3.823   0.010  0.00  0.00    -0.105 SA
ATOM      4  C3  <0> d           1.196   2.163   0.002  0.00  0.00    -0.004 A 
ATOM      5  C4  <0> d          -0.018   1.481   0.010  0.00  0.00     0.023 A 
ATOM      6  C5  <0> d           0.002  -0.004   0.002  0.00  0.00     0.160 C 
ATOM      7  O1  <0> d          -0.987  -0.666   0.239  0.00  0.00    -0.292 OA
ATOM      8  C6  <0> d           1.341  -0.639  -0.322  0.00  0.00    -0.005 C 
ATOM      9  C7  <0> d           2.440   0.083   0.463  0.00  0.00    -0.054 C 
ATOM     10  C8  <0> d           2.554   1.538  -0.009  0.00  0.00    -0.034 C 
ATOM     11  H1  <0> d          -2.189   1.881   0.024  0.00  0.00     0.085 H 
ATOM     12  H2  <0> d          -1.771   4.426   0.036  0.00  0.00     0.095 H 
ATOM     13  H3  <0> d           1.322  -1.606  -0.066  0.00  0.00     0.044 H 
ATOM     14  H4  <0> d           1.538  -0.550  -1.391  0.00  0.00     0.044 H 
ATOM     15  H5  <0> d           2.197   0.065   1.525  0.00  0.00     0.034 H 
ATOM     16  H6  <0> d           3.392  -0.424   0.303  0.00  0.00     0.034 H 
ATOM     17  H7  <0> d           3.214   2.088   0.661  0.00  0.00     0.041 H 
ATOM     18  H8  <0> d           2.959   1.562  -1.021  0.00  0.00     0.041 H 
ENDROOT
TORSDOF 0
