REMARK  1 active torsions:
REMARK  status: ('A' for Active; 'I' for Inactive)
REMARK    1  A    between atoms: C5_6  and  C6_7 
ROOT
ATOM      1  C1  <0> d           4.258   1.756  -0.034  0.00  0.00    -0.052 A 
ATOM      2  C2  <0> d           5.635   1.671  -0.042  0.00  0.00     0.003 A 
ATOM      3  N1  <0> d           6.242   0.500  -0.054  0.00  0.00    -0.273 NA
ATOM      4  C3  <0> d           5.571  -0.636  -0.054  0.00  0.00     0.003 A 
ATOM      5  C4  <0> d           4.191  -0.644  -0.041  0.00  0.00    -0.052 A 
ATOM      6  C5  <0> d           3.506   0.576  -0.028  0.00  0.00     0.022 A 
ATOM      7  H1  <0> d           3.768   2.719  -0.029  0.00  0.00     0.087 H 
ATOM      8  H2  <0> d           6.225   2.576  -0.043  0.00  0.00     0.114 H 
ATOM      9  H3  <0> d           6.109  -1.572  -0.064  0.00  0.00     0.114 H 
ATOM     10  H4  <0> d           3.649  -1.578  -0.041  0.00  0.00     0.087 H 
ENDROOT
BRANCH   6  11
ATOM     11  C6  <0> d           2.028   0.617  -0.014  0.00  0.00     0.202 A 
ATOM     12  O1  <0> d           1.259   1.724  -0.001  0.00  0.00    -0.281 OA
ATOM     13  C7  <0> d          -0.016   1.300   0.009  0.00  0.00     0.127 A 
ATOM     14  N3  <0> d           0.002  -0.004   0.002  0.00  0.00    -0.136 NA
ATOM     15  H5  <0> d          -0.896   1.926   0.017  0.00  0.00     0.158 H 
ATOM     16  N2  <0> d           1.221  -0.417  -0.012  0.00  0.00    -0.122 NA
ENDBRANCH   6  11
TORSDOF 1
