REMARK  3 active torsions:
REMARK  status: ('A' for Active; 'I' for Inactive)
REMARK    1  A    between atoms: C1_1  and  C2_2 
REMARK    2  A    between atoms: C5_7  and  C6_9 
REMARK    3  A    between atoms: C6_9  and  O2_10 
ROOT
ATOM      1  C2  <0> d           0.002  -0.004   0.002  0.00  0.00    -0.030 C 
ATOM      2  H1  <0> d           0.498  -0.373  -0.895  0.00  0.00     0.043 H 
ATOM      3  C3  <0> d          -1.434  -0.565   0.096  0.00  0.00     0.023 C 
ATOM      4  O1  <0> d          -1.318  -1.737   0.932  0.00  0.00    -0.390 OA
ATOM      5  C4  <0> d          -0.397  -1.366   1.982  0.00  0.00     0.025 C 
ATOM      6  C5  <0> d           0.703  -0.543   1.269  0.00  0.00    -0.008 C 
ATOM      7  H2  <0> d           1.544  -1.181   0.998  0.00  0.00     0.047 H 
ATOM      8  H6  <0> d          -2.098   0.166   0.557  0.00  0.00     0.074 H 
ATOM      9  H7  <0> d          -1.800  -0.840  -0.893  0.00  0.00     0.074 H 
ATOM     10  H8  <0> d          -0.902  -0.758   2.732  0.00  0.00     0.075 H 
ATOM     11  H9  <0> d           0.033  -2.256   2.441  0.00  0.00     0.075 H 
ENDROOT
BRANCH   6  12
ATOM     12  C6  <0> d           1.169   0.613   2.157  0.00  0.00     0.022 C 
ATOM     13  H10 <0> d           1.800   1.286   1.576  0.00  0.00     0.074 H 
ATOM     14  H11 <0> d           0.301   1.158   2.528  0.00  0.00     0.074 H 
BRANCH  12  15
ATOM     15  O2  <0> d           1.914   0.095   3.261  0.00  0.00    -0.400 OA
ATOM     16  H12 <0> d           2.241   0.774   3.867  0.00  0.00     0.209 HD
ENDBRANCH  12  15
ENDBRANCH   6  12
BRANCH   1  17
ATOM     17  C1  <0> d          -0.019   1.526   0.010  0.00  0.00    -0.070 C 
ATOM     18  H3  <0> d           1.004   1.903   0.003  0.00  0.00     0.028 H 
ATOM     19  H4  <0> d          -0.546   1.887  -0.873  0.00  0.00     0.028 H 
ATOM     20  H5  <0> d          -0.529   1.877   0.907  0.00  0.00     0.028 H 
ENDBRANCH   1  17
TORSDOF 3
