REMARK  5 active torsions:
REMARK  status: ('A' for Active; 'I' for Inactive)
REMARK    1  A    between atoms: C1_1  and  O1_2 
REMARK    2  A    between atoms: O1_2  and  C2_3 
REMARK    3  A    between atoms: C2_3  and  C3_4 
REMARK    4  A    between atoms: C2_3  and  O2_10 
REMARK    5  A    between atoms: O2_10  and  C9_11 
ROOT
ATOM      1  C2  <0> d           0.394   5.359  -0.067  0.00  0.00     0.156 C 
ATOM      2  H4  <0> d           1.071   5.899  -0.729  0.00  0.00     0.137 H 
ENDROOT
BRANCH   1   3
ATOM      3  O1  <0> d          -0.956   5.589  -0.475  0.00  0.00    -0.362 OA
BRANCH   3   4
ATOM      4  C1  <0> d          -1.189   6.896  -1.003  0.00  0.00     0.007 C 
ATOM      5  H1  <0> d          -0.842   7.643  -0.288  0.00  0.00     0.066 H 
ATOM      6  H2  <0> d          -0.646   7.012  -1.941  0.00  0.00     0.066 H 
ATOM      7  H3  <0> d          -2.256   7.032  -1.181  0.00  0.00     0.066 H 
ENDBRANCH   3   4
ENDBRANCH   1   3
BRANCH   1   8
ATOM      8  C3  <0> d           0.695   3.884  -0.136  0.00  0.00    -0.004 A 
ATOM      9  C8  <0> d          -0.282   2.998  -0.550  0.00  0.00    -0.072 A 
ATOM     10  C7  <0> d          -0.005   1.645  -0.618  0.00  0.00    -0.082 A 
ATOM     11  H9  <0> d          -1.261   3.362  -0.824  0.00  0.00     0.084 H 
ATOM     12  C6  <0> d           1.247   1.177  -0.262  0.00  0.00    -0.083 A 
ATOM     13  H8  <0> d          -0.767   0.953  -0.945  0.00  0.00     0.083 H 
ATOM     14  C5  <0> d           2.224   2.064   0.151  0.00  0.00    -0.082 A 
ATOM     15  H7  <0> d           1.462   0.120  -0.311  0.00  0.00     0.083 H 
ATOM     16  C4  <0> d           1.948   3.417   0.214  0.00  0.00    -0.072 A 
ATOM     17  H6  <0> d           3.203   1.699   0.425  0.00  0.00     0.083 H 
ATOM     18  H5  <0> d           2.711   4.109   0.537  0.00  0.00     0.084 H 
ENDBRANCH   1   8
BRANCH   1  19
ATOM     19  O2  <0> d           0.572   5.819   1.274  0.00  0.00    -0.362 OA
BRANCH  19  20
ATOM     20  C9  <0> d           0.620   7.242   1.398  0.00  0.00     0.007 C 
ATOM     21  H10 <0> d           1.247   7.654   0.608  0.00  0.00     0.066 H 
ATOM     22  H11 <0> d          -0.387   7.649   1.313  0.00  0.00     0.066 H 
ATOM     23  H12 <0> d           1.038   7.507   2.369  0.00  0.00     0.066 H 
ENDBRANCH  19  20
ENDBRANCH   1  19
TORSDOF 5
