REMARK  3 active torsions:
REMARK  status: ('A' for Active; 'I' for Inactive)
REMARK    1  A    between atoms: C1_1  and  O1_2 
REMARK    2  A    between atoms: O1_2  and  C2_3 
REMARK       I    between atoms: C2_3  and  N1_5 
REMARK    3  A    between atoms: N1_5  and  C3_6 
ROOT
ATOM      1  C3  <0> d          -0.132   3.795   0.021  0.00  0.00     0.131 A 
ATOM      2  C4  <0> d           1.113   3.176   0.004  0.00  0.00    -0.038 A 
ATOM      3  C5  <0> d           1.176   1.794  -0.005  0.00  0.00    -0.078 A 
ATOM      4  C6  <0> d          -0.012   1.076   0.002  0.00  0.00    -0.066 A 
ATOM      5  C7  <0> d          -1.213   1.757   0.013  0.00  0.00     0.004 A 
ATOM      6  N2  <0> d          -1.243   3.076   0.027  0.00  0.00    -0.243 NA
ATOM      7  H5  <0> d           2.018   3.765  -0.001  0.00  0.00     0.089 H 
ATOM      8  H6  <0> d           2.129   1.285  -0.018  0.00  0.00     0.083 H 
ATOM      9  H7  <0> d           0.003  -0.004  -0.005  0.00  0.00     0.085 H 
ATOM     10  H8  <0> d          -2.140   1.203   0.015  0.00  0.00     0.114 H 
ENDROOT
BRANCH   1  11
ATOM     11  N1  <0> d          -0.210   5.187   0.030  0.00  0.00    -0.287 N 
ATOM     12  C2  <0> d          -1.410   5.795  -0.057  0.00  0.00     0.365 C 
ATOM     13  O2  <0> d          -2.429   5.133  -0.051  0.00  0.00    -0.238 OA
ATOM     14  H4  <0> d           0.599   5.718   0.100  0.00  0.00     0.172 HD
BRANCH  12  15
ATOM     15  O1  <0> d          -1.480   7.136  -0.151  0.00  0.00    -0.309 OA
BRANCH  15  16
ATOM     16  C1  <0> d          -2.805   7.723  -0.242  0.00  0.00     0.015 C 
ATOM     17  H1  <0> d          -3.312   7.340  -1.128  0.00  0.00     0.067 H 
ATOM     18  H2  <0> d          -3.380   7.461   0.647  0.00  0.00     0.067 H 
ATOM     19  H3  <0> d          -2.718   8.807  -0.312  0.00  0.00     0.067 H 
ENDBRANCH  15  16
ENDBRANCH  12  15
ENDBRANCH   1  11
TORSDOF 3
