REMARK  3 active torsions:
REMARK  status: ('A' for Active; 'I' for Inactive)
REMARK    1  A    between atoms: C3_3  and  C8_9 
REMARK    2  A    between atoms: C9_10  and  C10_11 
REMARK    3  A    between atoms: C10_11  and  O1_12 
ROOT
ATOM      1  C1  <0> d          -0.013   1.076   0.008  0.00  0.00    -0.080 A 
ATOM      2  C2  <0> d          -1.220   1.747   0.017  0.00  0.00    -0.065 A 
ATOM      3  C3  <0> d          -1.246   3.143   0.030  0.00  0.00     0.019 A 
ATOM      4  C4  <0> d          -0.052   3.859   0.022  0.00  0.00    -0.045 A 
ATOM      5  C5  <0> d           1.163   3.176   0.007  0.00  0.00     0.046 A 
ATOM      6  C6  <0> d           1.175   1.779   0.000  0.00  0.00    -0.063 A 
ATOM      7  C7  <0> d           2.396   3.905  -0.001  0.00  0.00     0.099 C 
ATOM      8  N1  <0> d           3.374   4.482  -0.007  0.00  0.00    -0.191 NA
ATOM      9  H1  <0> d           0.002  -0.004   0.002  0.00  0.00     0.083 H 
ATOM     10  H2  <0> d          -2.145   1.190   0.019  0.00  0.00     0.085 H 
ATOM     11  H3  <0> d          -0.067   4.939   0.028  0.00  0.00     0.088 H 
ATOM     12  H4  <0> d           2.116   1.248  -0.011  0.00  0.00     0.085 H 
ENDROOT
BRANCH   3  13
ATOM     13  C8  <0> d          -2.499   3.836   0.045  0.00  0.00    -0.065 C 
ATOM     14  C9  <0> d          -3.526   4.405   0.057  0.00  0.00    -0.075 C 
BRANCH  14  15
ATOM     15  C10 <0> d          -4.814   5.118   0.072  0.00  0.00     0.071 C 
ATOM     16  H5  <0> d          -5.629   4.395   0.076  0.00  0.00     0.093 H 
ATOM     17  H6  <0> d          -4.874   5.739   0.965  0.00  0.00     0.093 H 
BRANCH  15  18
ATOM     18  O1  <0> d          -4.915   5.944  -1.090  0.00  0.00    -0.389 OA
ATOM     19  H7  <0> d          -5.740   6.444  -1.146  0.00  0.00     0.210 HD
ENDBRANCH  15  18
ENDBRANCH  14  15
ENDBRANCH   3  13
TORSDOF 3
