REMARK  1 active torsions:
REMARK  status: ('A' for Active; 'I' for Inactive)
REMARK    1  A    between atoms: C4_4  and  C5_6 
ROOT
ATOM      1  C1  <0> d          -0.019   1.534   0.011  0.00  0.00    -0.042 C 
ATOM      2  C2  <0> d           1.518   1.476  -0.004  0.00  0.00    -0.002 C 
ATOM      3  C3  <0> d           1.381   0.097  -0.670  0.00  0.00     0.257 C 
ATOM      4  C4  <0> d           0.002  -0.004   0.002  0.00  0.00     0.093 C 
ATOM      5  H1  <0> d           0.033  -0.446   0.998  0.00  0.00     0.066 H 
ATOM      6  F1  <0> d           1.322   0.152  -2.067  0.00  0.00    -0.205 F 
ATOM      7  F2  <0> d           2.304  -0.845  -0.202  0.00  0.00    -0.205 F 
ATOM      8  H2  <0> d          -0.431   1.960   0.925  0.00  0.00     0.034 H 
ATOM      9  H3  <0> d          -0.448   1.969  -0.892  0.00  0.00     0.034 H 
ATOM     10  H4  <0> d           1.977   2.228  -0.647  0.00  0.00     0.042 H 
ATOM     11  H5  <0> d           1.963   1.439   0.990  0.00  0.00     0.042 H 
ENDROOT
BRANCH   4  12
ATOM     12  C5  <0> d          -1.056  -0.617  -0.879  0.00  0.00     0.183 C 
ATOM     13  O1  <0> d          -0.854  -1.694  -1.415  0.00  0.00    -0.648 OA
ATOM     14  O2  <0> d          -2.113  -0.037  -1.056  0.00  0.00    -0.648 OA
ENDBRANCH   4  12
TORSDOF 1
