REMARK  3 active torsions:
REMARK  status: ('A' for Active; 'I' for Inactive)
REMARK    1  A    between atoms: C1_1  and  S1_2 
REMARK    2  A    between atoms: S1_2  and  C2_3 
REMARK    3  A    between atoms: C4_5  and  N3_9 
ROOT
ATOM      1  C2  <0> d           2.133   0.824  -0.014  0.00  0.00     0.137 A 
ATOM      2  C3  <0> d           1.336  -0.405  -0.013  0.00  0.00     0.126 A 
ATOM      3  C4  <0> d           0.002  -0.004   0.002  0.00  0.00     0.139 A 
ATOM      4  N1  <0> d          -0.016   1.343   0.009  0.00  0.00    -0.261 N 
ATOM      5  H1  <0> d          -0.841   1.908   0.020  0.00  0.00     0.191 HD
ATOM      6  N2  <0> d           1.294   1.830  -0.001  0.00  0.00    -0.165 NA
ATOM      7  C5  <0> d           1.830  -1.749  -0.025  0.00  0.00     0.106 C 
ATOM      8  N4  <0> d           2.222  -2.815  -0.035  0.00  0.00    -0.191 NA
ENDROOT
BRANCH   1   9
ATOM      9  S1  <0> d           3.891   0.930  -0.029  0.00  0.00    -0.111 SA
BRANCH   9  10
ATOM     10  C1  <0> d           4.223   2.713  -0.023  0.00  0.00    -0.029 C 
ATOM     11  H2  <0> d           3.777   3.169  -0.907  0.00  0.00     0.042 H 
ATOM     12  H3  <0> d           3.793   3.160   0.873  0.00  0.00     0.042 H 
ATOM     13  H4  <0> d           5.300   2.882  -0.032  0.00  0.00     0.042 H 
ENDBRANCH   9  10
ENDBRANCH   1   9
BRANCH   3  14
ATOM     14  N3  <0> d          -1.101  -0.836   0.007  0.00  0.00    -0.383 N 
ATOM     15  H5  <0> d          -1.994  -0.458   0.018  0.00  0.00     0.157 HD
ATOM     16  H6  <0> d          -0.982  -1.799   0.001  0.00  0.00     0.157 HD
ENDBRANCH   3  14
TORSDOF 3
