REMARK  2 active torsions:
REMARK  status: ('A' for Active; 'I' for Inactive)
REMARK    1  A    between atoms: C1_1  and  C2_2 
REMARK    2  A    between atoms: C2_2  and  C3_3 
ROOT
ATOM      1  C3  <0> d           0.020  -1.311  -0.005  0.00  0.00     0.029 C 
ATOM      2  C4  <0> d           0.036  -2.094   1.289  0.00  0.00    -0.047 C 
ATOM      3  C5  <0> d          -1.085  -3.137   1.242  0.00  0.00    -0.064 C 
ATOM      4  C6  <0> d          -0.928  -3.994  -0.015  0.00  0.00    -0.065 C 
ATOM      5  C7  <0> d          -1.097  -3.123  -1.261  0.00  0.00    -0.064 C 
ATOM      6  C8  <0> d           0.018  -2.080  -1.308  0.00  0.00    -0.047 C 
ATOM      7  H3  <0> d           0.998  -2.594   1.402  0.00  0.00     0.035 H 
ATOM      8  H4  <0> d          -0.128  -1.417   2.128  0.00  0.00     0.035 H 
ATOM      9  H5  <0> d          -1.027  -3.773   2.125  0.00  0.00     0.033 H 
ATOM     10  H6  <0> d          -2.050  -2.632   1.220  0.00  0.00     0.033 H 
ATOM     11  H7  <0> d           0.062  -4.449  -0.022  0.00  0.00     0.033 H 
ATOM     12  H8  <0> d          -1.686  -4.778  -0.016  0.00  0.00     0.033 H 
ATOM     13  H9  <0> d          -1.048  -3.750  -2.152  0.00  0.00     0.033 H 
ATOM     14  H10 <0> d          -2.062  -2.619  -1.224  0.00  0.00     0.033 H 
ATOM     15  H11 <0> d          -0.158  -1.394  -2.137  0.00  0.00     0.035 H 
ATOM     16  H12 <0> d           0.978  -2.579  -1.440  0.00  0.00     0.035 H 
ENDROOT
BRANCH   1  17
ATOM     17  C2  <0> d           0.002  -0.004   0.002  0.00  0.00    -0.171 C 
BRANCH  17  18
ATOM     18  C1  <0> d          -0.016   1.303   0.009  0.00  0.00    -0.011 C 
ATOM     19  H1  <0> d           0.912   1.855   0.003  0.00  0.00     0.051 H 
ATOM     20  H2  <0> d          -0.958   1.830   0.017  0.00  0.00     0.051 H 
ENDBRANCH  17  18
ENDBRANCH   1  17
TORSDOF 2
