REMARK  5 active torsions:
REMARK  status: ('A' for Active; 'I' for Inactive)
REMARK    1  A    between atoms: C1_1  and  N1_2 
REMARK    2  A    between atoms: N1_2  and  C2_3 
REMARK    3  A    between atoms: N1_2  and  C3_4 
REMARK    4  A    between atoms: C6_7  and  N3_11 
REMARK    5  A    between atoms: C8_9  and  N2_10 
ROOT
ATOM      1  C3  <0> d          -0.000  -0.699  -1.217  0.00  0.00     0.056 A 
ATOM      2  C4  <0> d           1.199  -1.031  -1.828  0.00  0.00    -0.053 A 
ATOM      3  C5  <0> d           1.198  -1.716  -3.030  0.00  0.00    -0.055 A 
ATOM      4  C6  <0> d          -0.003  -2.072  -3.627  0.00  0.00     0.028 A 
ATOM      5  C7  <0> d          -1.207  -1.742  -3.019  0.00  0.00    -0.030 A 
ATOM      6  C8  <0> d          -1.208  -1.061  -1.812  0.00  0.00     0.054 A 
ATOM      7  H7  <0> d           2.135  -0.755  -1.365  0.00  0.00     0.087 H 
ATOM      8  H8  <0> d           2.134  -1.973  -3.504  0.00  0.00     0.087 H 
ATOM      9  H9  <0> d          -2.141  -2.020  -3.485  0.00  0.00     0.090 H 
ENDROOT
BRANCH   1  10
ATOM     10  N1  <0> d           0.002  -0.004   0.002  0.00  0.00    -0.388 N 
BRANCH  10  11
ATOM     11  C1  <0> d          -0.018   1.461   0.010  0.00  0.00    -0.019 C 
ATOM     12  H1  <0> d           1.005   1.838   0.002  0.00  0.00     0.056 H 
ATOM     13  H2  <0> d          -0.545   1.822  -0.873  0.00  0.00     0.056 H 
ATOM     14  H3  <0> d          -0.528   1.812   0.907  0.00  0.00     0.056 H 
ENDBRANCH  10  11
BRANCH  10  15
ATOM     15  C2  <0> d           0.024  -0.743   1.267  0.00  0.00    -0.019 C 
ATOM     16  H4  <0> d          -0.998  -0.941   1.590  0.00  0.00     0.056 H 
ATOM     17  H5  <0> d           0.550  -1.688   1.126  0.00  0.00     0.056 H 
ATOM     18  H6  <0> d           0.537  -0.151   2.025  0.00  0.00     0.056 H 
ENDBRANCH  10  15
ENDBRANCH   1  10
BRANCH   6  19
ATOM     19  N2  <0> d          -2.420  -0.732  -1.194  0.00  0.00    -0.397 N 
ATOM     20  H10 <0> d          -2.420  -0.252  -0.351  0.00  0.00     0.156 HD
ATOM     21  H11 <0> d          -3.260  -0.984  -1.608  0.00  0.00     0.156 HD
ENDBRANCH   6  19
BRANCH   4  22
ATOM     22  N3  <0> d          -0.001  -2.765  -4.843  0.00  0.00    -0.399 N 
ATOM     23  H12 <0> d           0.840  -2.996  -5.269  0.00  0.00     0.156 HD
ATOM     24  H13 <0> d          -0.840  -3.015  -5.261  0.00  0.00     0.156 HD
ENDBRANCH   4  22
TORSDOF 5
