REMARK  7 active torsions:
REMARK  status: ('A' for Active; 'I' for Inactive)
REMARK    1  A    between atoms: C1_1  and  C2_2 
REMARK    2  A    between atoms: C2_2  and  N1_3 
REMARK    3  A    between atoms: N1_3  and  C3_4 
REMARK       I    between atoms: N1_3  and  C5_6 
REMARK    4  A    between atoms: C3_4  and  C4_5 
REMARK       I    between atoms: C5_6  and  N2_8 
REMARK    5  A    between atoms: N2_8  and  C6_9 
REMARK    6  A    between atoms: C6_9  and  C7_10 
REMARK    7  A    between atoms: C6_9  and  C8_11 
ROOT
ATOM      1  N1  <0> d          -2.345   0.934   0.018  0.00  0.00    -0.335 N 
ATOM      2  C5  <0> d          -1.187   1.624   0.017  0.00  0.00     0.318 C 
ATOM      3  O1  <0> d          -1.204   2.840   0.023  0.00  0.00    -0.247 OA
ATOM      4  N2  <0> d          -0.011   0.966   0.007  0.00  0.00    -0.339 N 
ATOM      5  H11 <0> d           0.002  -0.004   0.002  0.00  0.00     0.164 HD
ENDROOT
BRANCH   1   6
ATOM      6  C2  <0> d          -3.624   1.649   0.028  0.00  0.00    -0.004 C 
ATOM      7  H4  <0> d          -4.373   1.047   0.542  0.00  0.00     0.063 H 
ATOM      8  H5  <0> d          -3.504   2.601   0.547  0.00  0.00     0.063 H 
BRANCH   6   9
ATOM      9  C1  <0> d          -4.076   1.906  -1.411  0.00  0.00    -0.061 C 
ATOM     10  H1  <0> d          -3.327   2.508  -1.925  0.00  0.00     0.029 H 
ATOM     11  H2  <0> d          -4.196   0.955  -1.929  0.00  0.00     0.029 H 
ATOM     12  H3  <0> d          -5.027   2.438  -1.403  0.00  0.00     0.029 H 
ENDBRANCH   6   9
ENDBRANCH   1   6
BRANCH   1  13
ATOM     13  C3  <0> d          -2.325  -0.531   0.010  0.00  0.00    -0.004 C 
ATOM     14  H6  <0> d          -3.213  -0.903  -0.501  0.00  0.00     0.063 H 
ATOM     15  H7  <0> d          -1.433  -0.879  -0.510  0.00  0.00     0.063 H 
BRANCH  13  16
ATOM     16  C4  <0> d          -2.312  -1.048   1.450  0.00  0.00    -0.061 C 
ATOM     17  H8  <0> d          -1.424  -0.676   1.962  0.00  0.00     0.029 H 
ATOM     18  H9  <0> d          -3.204  -0.700   1.970  0.00  0.00     0.029 H 
ATOM     19  H10 <0> d          -2.297  -2.138   1.444  0.00  0.00     0.029 H 
ENDBRANCH  13  16
ENDBRANCH   1  13
BRANCH   4  20
ATOM     20  C6  <0> d           1.248   1.716  -0.001  0.00  0.00     0.007 C 
ATOM     21  H12 <0> d           1.135   2.622   0.595  0.00  0.00     0.071 H 
BRANCH  20  22
ATOM     22  C7  <0> d           2.361   0.850   0.594  0.00  0.00    -0.058 C 
ATOM     23  H13 <0> d           2.473  -0.056  -0.002  0.00  0.00     0.030 H 
ATOM     24  H14 <0> d           3.297   1.408   0.588  0.00  0.00     0.030 H 
ATOM     25  H15 <0> d           2.104   0.582   1.619  0.00  0.00     0.030 H 
ENDBRANCH  20  22
BRANCH  20  26
ATOM     26  C8  <0> d           1.608   2.092  -1.439  0.00  0.00    -0.058 C 
ATOM     27  H16 <0> d           2.544   2.650  -1.445  0.00  0.00     0.030 H 
ATOM     28  H17 <0> d           1.721   1.186  -2.035  0.00  0.00     0.030 H 
ATOM     29  H18 <0> d           0.815   2.709  -1.863  0.00  0.00     0.030 H 
ENDBRANCH  20  26
ENDBRANCH   4  20
TORSDOF 7
