REMARK  0 active torsions:
REMARK  status: ('A' for Active; 'I' for Inactive)
ROOT
ATOM      1  C1  <0> d           3.370   0.288   1.147  0.00  0.00    -0.059 A 
ATOM      2  C2  <0> d           3.651  -0.937   1.648  0.00  0.00    -0.019 A 
ATOM      3  N1  <0> d           2.712  -1.920   1.634  0.00  0.00    -0.331 N 
ATOM      4  H1  <0> d           2.927  -2.791   2.000  0.00  0.00     0.168 HD
ATOM      5  C3  <0> d           1.487  -1.703   1.121  0.00  0.00     0.279 A 
ATOM      6  O1  <0> d           0.659  -2.599   1.122  0.00  0.00    -0.265 OA
ATOM      7  C4  <0> d           1.157  -0.437   0.578  0.00  0.00     0.143 A 
ATOM      8  C5  <0> d           2.106   0.546   0.607  0.00  0.00    -0.016 A 
ATOM      9  C6  <0> d           1.489   1.789  -0.003  0.00  0.00    -0.018 C 
ATOM     10  C7  <0> d          -0.017   1.434   0.010  0.00  0.00     0.030 C 
ATOM     11  O2  <0> d           0.002  -0.004   0.002  0.00  0.00    -0.345 OA
ATOM     12  H2  <0> d           4.120   1.065   1.164  0.00  0.00     0.086 H 
ATOM     13  H3  <0> d           4.629  -1.136   2.062  0.00  0.00     0.111 H 
ATOM     14  H4  <0> d           1.845   1.941  -1.021  0.00  0.00     0.043 H 
ATOM     15  H5  <0> d           1.688   2.665   0.614  0.00  0.00     0.043 H 
ATOM     16  H6  <0> d          -0.513   1.820  -0.881  0.00  0.00     0.075 H 
ATOM     17  H7  <0> d          -0.496   1.810   0.914  0.00  0.00     0.075 H 
ENDROOT
TORSDOF 0
