REMARK  8 active torsions:
REMARK  status: ('A' for Active; 'I' for Inactive)
REMARK    1  A    between atoms: C1_1  and  C2_2 
REMARK    2  A    between atoms: C2_2  and  C3_3 
REMARK    3  A    between atoms: C3_3  and  C4_4 
REMARK    4  A    between atoms: C3_3  and  C5_5 
REMARK    5  A    between atoms: C3_3  and  C6_6 
REMARK    6  A    between atoms: C6_6  and  C7_7 
REMARK    7  A    between atoms: C7_7  and  C8_8 
REMARK    8  A    between atoms: C8_8  and  C9_9 
ROOT
ATOM      1  C3  <0> d          -1.433  -0.534   0.013  0.00  0.00    -0.048 C 
ENDROOT
BRANCH   1   2
ATOM      2  C2  <0> d           0.002  -0.004   0.002  0.00  0.00    -0.062 C 
ATOM      3  H4  <0> d           0.512  -0.356  -0.895  0.00  0.00     0.033 H 
ATOM      4  H5  <0> d           0.529  -0.365   0.885  0.00  0.00     0.033 H 
BRANCH   2   5
ATOM      5  C1  <0> d          -0.019   1.526   0.010  0.00  0.00    -0.076 C 
ATOM      6  H1  <0> d           1.004   1.903   0.003  0.00  0.00     0.027 H 
ATOM      7  H2  <0> d          -0.546   1.887  -0.873  0.00  0.00     0.027 H 
ATOM      8  H3  <0> d          -0.529   1.877   0.907  0.00  0.00     0.027 H 
ENDBRANCH   2   5
ENDBRANCH   1   2
BRANCH   1   9
ATOM      9  C4  <0> d          -2.149  -0.040   1.272  0.00  0.00    -0.069 C 
ATOM     10  H6  <0> d          -2.164   1.050   1.278  0.00  0.00     0.028 H 
ATOM     11  H7  <0> d          -3.172  -0.417   1.279  0.00  0.00     0.028 H 
ATOM     12  H8  <0> d          -1.622  -0.401   2.155  0.00  0.00     0.028 H 
ENDBRANCH   1   9
BRANCH   1  13
ATOM     13  C5  <0> d          -2.173  -0.027  -1.227  0.00  0.00    -0.069 C 
ATOM     14  H9  <0> d          -1.663  -0.378  -2.123  0.00  0.00     0.028 H 
ATOM     15  H10 <0> d          -3.196  -0.404  -1.219  0.00  0.00     0.028 H 
ATOM     16  H11 <0> d          -2.188   1.063  -1.221  0.00  0.00     0.028 H 
ENDBRANCH   1  13
BRANCH   1  17
ATOM     17  C6  <0> d          -1.413  -2.063   0.004  0.00  0.00    -0.058 C 
ATOM     18  H12 <0> d          -0.902  -2.415  -0.892  0.00  0.00     0.034 H 
ATOM     19  H13 <0> d          -0.885  -2.425   0.887  0.00  0.00     0.034 H 
BRANCH  17  20
ATOM     20  C7  <0> d          -2.848  -2.593   0.015  0.00  0.00    -0.055 C 
ATOM     21  H14 <0> d          -3.358  -2.241   0.912  0.00  0.00     0.033 H 
ATOM     22  H15 <0> d          -3.375  -2.232  -0.868  0.00  0.00     0.033 H 
BRANCH  20  23
ATOM     23  C8  <0> d          -2.827  -4.123   0.007  0.00  0.00     0.016 C 
ATOM     24  H16 <0> d          -2.317  -4.474  -0.890  0.00  0.00     0.049 H 
ATOM     25  H17 <0> d          -2.300  -4.484   0.890  0.00  0.00     0.049 H 
BRANCH  23  26
ATOM     26  C9  <0> d          -4.241  -4.644   0.018  0.00  0.00     0.172 C 
ATOM     27  O1  <0> d          -5.178  -3.865   0.031  0.00  0.00    -0.648 OA
ATOM     28  O2  <0> d          -4.447  -5.846   0.013  0.00  0.00    -0.648 OA
ENDBRANCH  23  26
ENDBRANCH  20  23
ENDBRANCH  17  20
ENDBRANCH   1  17
TORSDOF 8
