REMARK  4 active torsions:
REMARK  status: ('A' for Active; 'I' for Inactive)
REMARK    1  A    between atoms: C1_1  and  N1_2 
REMARK    2  A    between atoms: N1_2  and  C2_3 
REMARK    3  A    between atoms: N1_2  and  C3_4 
REMARK    4  A    between atoms: C7_8  and  O1_10 
ROOT
ATOM      1  C3  <0> d          -1.198  -0.719   0.010  0.00  0.00     0.032 A 
ATOM      2  C4  <0> d          -1.180  -2.108   0.008  0.00  0.00    -0.057 A 
ATOM      3  C5  <0> d          -2.367  -2.815   0.015  0.00  0.00    -0.078 A 
ATOM      4  C6  <0> d          -3.574  -2.143   0.025  0.00  0.00    -0.051 A 
ATOM      5  C7  <0> d          -3.598  -0.755   0.028  0.00  0.00     0.067 A 
ATOM      6  C8  <0> d          -2.410  -0.042   0.025  0.00  0.00    -0.025 A 
ATOM      7  H7  <0> d          -0.238  -2.636   0.000  0.00  0.00     0.086 H 
ATOM      8  H8  <0> d          -2.351  -3.895   0.013  0.00  0.00     0.083 H 
ATOM      9  H9  <0> d          -4.501  -2.698   0.031  0.00  0.00     0.087 H 
ATOM     10  H10 <0> d          -2.426   1.038   0.031  0.00  0.00     0.091 H 
ENDROOT
BRANCH   1  11
ATOM     11  N1  <0> d           0.002  -0.004   0.002  0.00  0.00    -0.389 N 
BRANCH  11  12
ATOM     12  C1  <0> d          -0.018   1.461   0.010  0.00  0.00    -0.019 C 
ATOM     13  H1  <0> d           1.005   1.838   0.002  0.00  0.00     0.056 H 
ATOM     14  H2  <0> d          -0.545   1.822  -0.873  0.00  0.00     0.056 H 
ATOM     15  H3  <0> d          -0.528   1.812   0.907  0.00  0.00     0.056 H 
ENDBRANCH  11  12
BRANCH  11  16
ATOM     16  C2  <0> d           1.281  -0.719  -0.014  0.00  0.00    -0.019 C 
ATOM     17  H4  <0> d           1.607  -0.902   1.010  0.00  0.00     0.056 H 
ATOM     18  H5  <0> d           1.158  -1.671  -0.532  0.00  0.00     0.056 H 
ATOM     19  H6  <0> d           2.027  -0.117  -0.532  0.00  0.00     0.056 H 
ENDBRANCH  11  16
ENDBRANCH   1  11
BRANCH   5  20
ATOM     20  O1  <0> d          -4.787  -0.096   0.037  0.00  0.00    -0.361 OA
ATOM     21  H11 <0> d          -5.124   0.094   0.923  0.00  0.00     0.217 HD
ENDBRANCH   5  20
TORSDOF 4
