REMARK  2 active torsions:
REMARK  status: ('A' for Active; 'I' for Inactive)
REMARK    1  A    between atoms: C1_1  and  C2_2 
REMARK    2  A    between atoms: C4_5  and  C8_13 
ROOT
ATOM      1  C2  <0> d           1.412   3.571  -0.251  0.00  0.00     0.009 C 
ATOM      2  H1  <0> d           2.433   3.979  -0.238  0.00  0.00     0.071 H 
ATOM      3  C3  <0> d           1.419   2.059  -0.000  0.00  0.00    -0.026 C 
ATOM      4  C4  <0> d          -0.019   1.526   0.010  0.00  0.00     0.035 C 
ATOM      5  H2  <0> d          -0.570   1.894   0.888  0.00  0.00     0.075 H 
ATOM      6  N1  <0> d          -0.715   2.014  -1.183  0.00  0.00    -0.250 N 
ATOM      7  C5  <0> d          -0.302   3.082  -1.915  0.00  0.00     0.121 A 
ATOM      8  C6  <0> d          -1.169   3.246  -2.937  0.00  0.00    -0.021 A 
ATOM      9  C7  <0> d          -2.146   2.247  -2.829  0.00  0.00     0.025 A 
ATOM     10  N2  <0> d          -1.871   1.512  -1.778  0.00  0.00    -0.183 NA
ATOM     11  N3  <0> d           0.836   3.822  -1.587  0.00  0.00    -0.371 N 
ATOM     12  H6  <0> d           1.986   1.558  -0.798  0.00  0.00     0.039 H 
ATOM     13  H7  <0> d           1.890   1.850   0.971  0.00  0.00     0.039 H 
ATOM     14  H8  <0> d          -1.119   4.009  -3.700  0.00  0.00     0.091 H 
ATOM     15  H9  <0> d          -2.983   2.107  -3.497  0.00  0.00     0.117 H 
ATOM     16  H10 <0> d           1.304   4.557  -2.258  0.00  0.00     0.161 HD
ENDROOT
BRANCH   1  17
ATOM     17  C1  <0> d           0.564   4.265   0.817  0.00  0.00    -0.057 C 
ATOM     18  H3  <0> d           0.998   4.075   1.810  0.00  0.00     0.030 H 
ATOM     19  H4  <0> d          -0.462   3.872   0.783  0.00  0.00     0.030 H 
ATOM     20  H5  <0> d           0.548   5.348   0.626  0.00  0.00     0.030 H 
ENDBRANCH   1  17
BRANCH   4  21
ATOM     21  C8  <0> d           0.002  -0.004   0.002  0.00  0.00    -0.055 C 
ATOM     22  H11 <0> d          -1.030  -0.385   0.010  0.00  0.00     0.030 H 
ATOM     23  H12 <0> d           0.534  -0.368   0.893  0.00  0.00     0.030 H 
ATOM     24  H13 <0> d           0.517  -0.359  -0.903  0.00  0.00     0.030 H 
ENDBRANCH   4  21
TORSDOF 2
