REMARK  3 active torsions:
REMARK  status: ('A' for Active; 'I' for Inactive)
REMARK    1  A    between atoms: C1_1  and  C2_2 
REMARK    2  A    between atoms: C4_4  and  C6_8 
REMARK    3  A    between atoms: N1_5  and  C5_7 
ROOT
ATOM      1  C2  <0> d           2.113   0.619  -0.015  0.00  0.00     0.073 A 
ATOM      2  C3  <0> d           1.295   1.771  -0.001  0.00  0.00     0.094 A 
ATOM      3  C4  <0> d          -0.016   1.340   0.009  0.00  0.00     0.049 A 
ATOM      4  N1  <0> d           0.002  -0.004   0.002  0.00  0.00    -0.277 N 
ATOM      5  N2  <0> d           1.335  -0.429  -0.013  0.00  0.00    -0.176 NA
ATOM      6  C7  <0> d           1.743   3.131   0.001  0.00  0.00     0.103 C 
ATOM      7  N3  <0> d           2.098   4.210   0.003  0.00  0.00    -0.191 NA
ENDROOT
BRANCH   1   8
ATOM      8  C1  <0> d           3.620   0.603  -0.029  0.00  0.00    -0.032 C 
ATOM      9  H1  <0> d           3.973   0.605  -1.060  0.00  0.00     0.035 H 
ATOM     10  H2  <0> d           3.997   1.486   0.486  0.00  0.00     0.035 H 
ATOM     11  H3  <0> d           3.978  -0.293   0.477  0.00  0.00     0.035 H 
ENDBRANCH   1   8
BRANCH   3  12
ATOM     12  C6  <0> d          -1.243   2.216   0.020  0.00  0.00    -0.034 C 
ATOM     13  H7  <0> d          -1.533   2.421   1.050  0.00  0.00     0.035 H 
ATOM     14  H8  <0> d          -1.024   3.154  -0.490  0.00  0.00     0.035 H 
ATOM     15  H9  <0> d          -2.058   1.705  -0.492  0.00  0.00     0.035 H 
ENDBRANCH   3  12
BRANCH   4  16
ATOM     16  C5  <0> d          -1.175  -0.876   0.008  0.00  0.00     0.003 C 
ATOM     17  H4  <0> d          -1.476  -1.087  -1.018  0.00  0.00     0.059 H 
ATOM     18  H5  <0> d          -0.932  -1.811   0.514  0.00  0.00     0.059 H 
ATOM     19  H6  <0> d          -1.992  -0.381   0.532  0.00  0.00     0.059 H 
ENDBRANCH   4  16
TORSDOF 3
