REMARK  0 active torsions:
REMARK  status: ('A' for Active; 'I' for Inactive)
ROOT
ATOM      1  C1  <0> d          -1.086   1.903   0.017  0.00  0.00    -0.069 A 
ATOM      2  C2  <0> d          -0.013   1.076   0.008  0.00  0.00    -0.044 A 
ATOM      3  S1  <0> d           1.331   2.171   0.001  0.00  0.00    -0.098 SA
ATOM      4  C3  <0> d           0.420   3.701   0.017  0.00  0.00     0.057 A 
ATOM      5  C4  <0> d          -0.901   3.280   0.027  0.00  0.00    -0.036 A 
ATOM      6  C5  <0> d          -1.782   4.526   0.040  0.00  0.00    -0.033 A 
ATOM      7  C6  <0> d          -0.814   5.717   0.037  0.00  0.00    -0.001 A 
ATOM      8  C7  <0> d           0.562   5.094   0.022  0.00  0.00     0.167 A 
ATOM      9  O1  <0> d           1.615   5.700   0.015  0.00  0.00    -0.292 OA
ATOM     10  H1  <0> d          -2.085   1.493   0.019  0.00  0.00     0.085 H 
ATOM     11  H2  <0> d           0.002  -0.004   0.002  0.00  0.00     0.095 H 
ATOM     12  H3  <0> d          -2.397   4.543   0.940  0.00  0.00     0.040 H 
ATOM     13  H4  <0> d          -2.413   4.551  -0.848  0.00  0.00     0.040 H 
ATOM     14  H5  <0> d          -0.968   6.275   0.853  0.00  0.00     0.045 H 
ATOM     15  H6  <0> d          -0.964   6.328  -0.853  0.00  0.00     0.045 H 
ENDROOT
TORSDOF 0
