REMARK  8 active torsions:
REMARK  status: ('A' for Active; 'I' for Inactive)
REMARK    1  A    between atoms: C1_1  and  C2_2 
REMARK    2  A    between atoms: C2_2  and  C3_3 
REMARK    3  A    between atoms: C3_3  and  C4_4 
REMARK    4  A    between atoms: C4_4  and  C5_6 
REMARK    5  A    between atoms: C4_4  and  C8_11 
REMARK    6  A    between atoms: C5_6  and  C6_7 
REMARK    7  A    between atoms: C6_7  and  C7_9 
REMARK    8  A    between atoms: C6_7  and  O1_10 
ROOT
ATOM      1  C4  <0> d           0.732  -1.913   1.204  0.00  0.00     0.033 C 
ATOM      2  H1  <0> d           1.304  -2.712   0.732  0.00  0.00     0.056 H 
ENDROOT
BRANCH   1   3
ATOM      3  C3  <0> d           0.749  -0.674   0.307  0.00  0.00    -0.053 C 
ATOM      4  H8  <0> d           1.768  -0.293   0.233  0.00  0.00     0.034 H 
ATOM      5  H9  <0> d           0.105   0.094   0.736  0.00  0.00     0.034 H 
BRANCH   3   6
ATOM      6  C2  <0> d           0.242  -1.046  -1.087  0.00  0.00    -0.068 C 
ATOM      7  H6  <0> d          -0.777  -1.427  -1.013  0.00  0.00     0.032 H 
ATOM      8  H7  <0> d           0.886  -1.814  -1.516  0.00  0.00     0.032 H 
BRANCH   6   9
ATOM      9  C1  <0> d           0.259   0.193  -1.984  0.00  0.00    -0.076 C 
ATOM     10  H3  <0> d           1.278   0.574  -2.058  0.00  0.00     0.027 H 
ATOM     11  H4  <0> d          -0.103  -0.072  -2.977  0.00  0.00     0.027 H 
ATOM     12  H5  <0> d          -0.385   0.961  -1.555  0.00  0.00     0.027 H 
ENDBRANCH   6   9
ENDBRANCH   3   6
ENDBRANCH   1   3
BRANCH   1  13
ATOM     13  C5  <0> d           1.355  -1.571   2.559  0.00  0.00    -0.029 C 
ATOM     14  H10 <0> d           0.850  -0.703   2.983  0.00  0.00     0.038 H 
ATOM     15  H11 <0> d           1.246  -2.421   3.234  0.00  0.00     0.038 H 
BRANCH  13  16
ATOM     16  C6  <0> d           2.841  -1.256   2.372  0.00  0.00     0.033 C 
ATOM     17  H2  <0> d           2.953  -0.452   1.645  0.00  0.00     0.082 H 
BRANCH  16  18
ATOM     18  C7  <0> d           3.442  -0.822   3.710  0.00  0.00    -0.052 C 
ATOM     19  H12 <0> d           4.501  -0.598   3.577  0.00  0.00     0.030 H 
ATOM     20  H13 <0> d           2.925   0.067   4.070  0.00  0.00     0.030 H 
ATOM     21  H14 <0> d           3.330  -1.627   4.437  0.00  0.00     0.030 H 
ENDBRANCH  16  18
BRANCH  16  22
ATOM     22  O1  <0> d           3.519  -2.422   1.900  0.00  0.00    -0.396 OA
ATOM     23  H15 <0> d           4.467  -2.295   1.759  0.00  0.00     0.210 HD
ENDBRANCH  16  22
ENDBRANCH  13  16
ENDBRANCH   1  13
BRANCH   1  24
ATOM     24  C8  <0> d          -0.691  -2.367   1.406  0.00  0.00     0.177 C 
ATOM     25  O2  <0> d          -1.580  -1.552   1.481  0.00  0.00    -0.648 OA
ATOM     26  O3  <0> d          -0.971  -3.676   1.503  0.00  0.00    -0.648 OA
ENDBRANCH   1  24
TORSDOF 8
