REMARK  2 active torsions:
REMARK  status: ('A' for Active; 'I' for Inactive)
REMARK    1  A    between atoms: C1_1  and  O1_2 
REMARK    2  A    between atoms: O1_2  and  N1_3 
ROOT
ATOM      1  N1  <0> d          -1.284  -0.598   0.011  0.00  0.00    -0.118 N 
ATOM      2  C2  <0> d          -1.569  -1.942   0.001  0.00  0.00     0.115 A 
ATOM      3  C3  <0> d          -0.791  -3.095  -0.006  0.00  0.00    -0.051 A 
ATOM      4  C4  <0> d          -1.394  -4.322  -0.006  0.00  0.00    -0.081 A 
ATOM      5  C5  <0> d          -2.779  -4.428   0.006  0.00  0.00    -0.081 A 
ATOM      6  C6  <0> d          -3.564  -3.313   0.019  0.00  0.00    -0.051 A 
ATOM      7  C7  <0> d          -2.971  -2.043   0.020  0.00  0.00     0.111 A 
ATOM      8  N2  <0> d          -3.471  -0.791   0.031  0.00  0.00    -0.128 NA
ATOM      9  N3  <0> d          -2.517   0.071   0.026  0.00  0.00    -0.038 NA
ATOM     10  H4  <0> d           0.286  -3.022  -0.016  0.00  0.00     0.087 H 
ATOM     11  H5  <0> d          -0.789  -5.216  -0.016  0.00  0.00     0.083 H 
ATOM     12  H6  <0> d          -3.240  -5.405   0.006  0.00  0.00     0.083 H 
ATOM     13  H7  <0> d          -4.640  -3.408   0.029  0.00  0.00     0.087 H 
ENDROOT
BRANCH   1  14
ATOM     14  O1  <0> d           0.002  -0.004   0.002  0.00  0.00    -0.260 OA
BRANCH  14  15
ATOM     15  C1  <0> d          -0.017   1.425   0.010  0.00  0.00     0.031 C 
ATOM     16  H1  <0> d           1.005   1.802   0.002  0.00  0.00     0.070 H 
ATOM     17  H2  <0> d          -0.544   1.786  -0.873  0.00  0.00     0.070 H 
ATOM     18  H3  <0> d          -0.527   1.776   0.907  0.00  0.00     0.070 H 
ENDBRANCH  14  15
ENDBRANCH   1  14
TORSDOF 2
