REMARK  4 active torsions:
REMARK  status: ('A' for Active; 'I' for Inactive)
REMARK    1  A    between atoms: C1_1  and  N1_2 
REMARK       I    between atoms: N1_2  and  C2_3 
REMARK    2  A    between atoms: C2_3  and  C3_5 
REMARK    3  A    between atoms: C4_6  and  N5_11 
REMARK    4  A    between atoms: N2_7  and  C5_10 
ROOT
ATOM      1  C3  <0> d          -0.017   1.385   0.010  0.00  0.00     0.193 A 
ATOM      2  C4  <0> d           0.002  -0.004   0.002  0.00  0.00     0.155 A 
ATOM      3  N2  <0> d           1.306  -0.369  -0.012  0.00  0.00    -0.238 N 
ATOM      4  N3  <0> d           2.059   0.813  -0.013  0.00  0.00    -0.064 NA
ATOM      5  N4  <0> d           1.258   1.819  -0.000  0.00  0.00    -0.122 NA
ENDROOT
BRANCH   1   6
ATOM      6  C2  <0> d          -1.216   2.231   0.020  0.00  0.00     0.275 C 
ATOM      7  N1  <0> d          -1.094   3.574   0.027  0.00  0.00    -0.360 N 
ATOM      8  H4  <0> d          -0.213   3.980   0.025  0.00  0.00     0.162 HD
ATOM      9  O1  <0> d          -2.321   1.721   0.023  0.00  0.00    -0.266 OA
BRANCH   7  10
ATOM     10  C1  <0> d          -2.291   4.418   0.037  0.00  0.00    -0.018 C 
ATOM     11  H1  <0> d          -2.888   4.213  -0.851  0.00  0.00     0.056 H 
ATOM     12  H2  <0> d          -2.880   4.203   0.929  0.00  0.00     0.056 H 
ATOM     13  H3  <0> d          -1.995   5.467   0.042  0.00  0.00     0.056 H 
ENDBRANCH   7  10
ENDBRANCH   1   6
BRANCH   2  14
ATOM     14  N5  <0> d          -1.091  -0.846   0.009  0.00  0.00    -0.382 N 
ATOM     15  H8  <0> d          -1.988  -0.476   0.020  0.00  0.00     0.157 HD
ATOM     16  H9  <0> d          -0.964  -1.807   0.002  0.00  0.00     0.157 HD
ENDBRANCH   2  14
BRANCH   3  17
ATOM     17  C5  <0> d           1.829  -1.737  -0.024  0.00  0.00     0.006 C 
ATOM     18  H5  <0> d           1.949  -2.071  -1.055  0.00  0.00     0.059 H 
ATOM     19  H6  <0> d           2.795  -1.761   0.480  0.00  0.00     0.059 H 
ATOM     20  H7  <0> d           1.133  -2.397   0.493  0.00  0.00     0.059 H 
ENDBRANCH   3  17
TORSDOF 4
