REMARK  4 active torsions:
REMARK  status: ('A' for Active; 'I' for Inactive)
REMARK    1  A    between atoms: C1_1  and  C2_2 
REMARK    2  A    between atoms: C3_3  and  C8_11 
REMARK    3  A    between atoms: C4_4  and  C5_8 
REMARK    4  A    between atoms: C8_11  and  O1_12 
ROOT
ATOM      1  C2  <0> d           0.002  -0.004   0.002  0.00  0.00     0.061 A 
ATOM      2  C3  <0> d           0.008  -0.818  -1.135  0.00  0.00     0.016 A 
ATOM      3  C4  <0> d           0.028  -2.107  -0.725  0.00  0.00     0.042 A 
ATOM      4  N1  <0> d           0.034  -2.109   0.625  0.00  0.00    -0.281 N 
ATOM      5  H1  <0> d           0.048  -2.894   1.194  0.00  0.00     0.189 HD
ATOM      6  N2  <0> d           0.023  -0.777   1.058  0.00  0.00    -0.179 NA
ENDROOT
BRANCH   3   7
ATOM      7  C5  <0> d           0.040  -3.323  -1.615  0.00  0.00    -0.012 A 
ATOM      8  C7  <0> d           1.229  -4.278  -1.491  0.00  0.00    -0.056 A 
ATOM      9  C6  <0> d          -0.141  -4.688  -0.949  0.00  0.00    -0.056 A 
ATOM     10  H8  <0> d           1.579  -4.768  -2.400  0.00  0.00     0.034 H 
ATOM     11  H9  <0> d           2.003  -4.026  -0.765  0.00  0.00     0.034 H 
ATOM     12  H6  <0> d          -0.269  -4.707   0.133  0.00  0.00     0.034 H 
ATOM     13  H7  <0> d          -0.694  -5.449  -1.501  0.00  0.00     0.034 H 
ATOM     14  H5  <0> d          -0.393  -3.185  -2.606  0.00  0.00     0.049 H 
ENDBRANCH   3   7
BRANCH   2  15
ATOM     15  C8  <0> d          -0.006  -0.343  -2.566  0.00  0.00     0.044 C 
ATOM     16  H10 <0> d          -0.513  -1.080  -3.188  0.00  0.00     0.081 H 
ATOM     17  H11 <0> d          -0.534   0.609  -2.627  0.00  0.00     0.081 H 
BRANCH  15  18
ATOM     18  O1  <0> d           1.337  -0.174  -3.025  0.00  0.00    -0.396 OA
ATOM     19  H12 <0> d           1.404   0.131  -3.940  0.00  0.00     0.209 HD
ENDBRANCH  15  18
ENDBRANCH   2  15
BRANCH   1  20
ATOM     20  C1  <0> d          -0.018   1.503   0.010  0.00  0.00    -0.033 C 
ATOM     21  H2  <0> d           1.004   1.880   0.003  0.00  0.00     0.035 H 
ATOM     22  H3  <0> d          -0.545   1.864  -0.873  0.00  0.00     0.035 H 
ATOM     23  H4  <0> d          -0.529   1.854   0.907  0.00  0.00     0.035 H 
ENDBRANCH   1  20
TORSDOF 4
