REMARK  4 active torsions:
REMARK  status: ('A' for Active; 'I' for Inactive)
REMARK    1  A    between atoms: C1_1  and  C2_2 
REMARK    2  A    between atoms: C2_2  and  C3_3 
REMARK    3  A    between atoms: C3_3  and  C4_4 
REMARK    4  A    between atoms: C4_4  and  C8_10 
ROOT
ATOM      1  C4  <0> d          -1.567   3.465   0.034  0.00  0.00     0.160 C 
ATOM      2  O1  <0> d          -0.886   3.019  -1.142  0.00  0.00    -0.355 OA
ATOM      3  C5  <0> d          -0.759   1.596  -1.230  0.00  0.00     0.025 C 
ATOM      4  C6  <0> d          -0.013   1.086   0.008  0.00  0.00    -0.025 C 
ATOM      5  C7  <0> d          -0.735   1.583   1.265  0.00  0.00     0.025 C 
ATOM      6  O2  <0> d          -0.867   3.006   1.193  0.00  0.00    -0.355 OA
ATOM      7  H8  <0> d          -0.199   1.335  -2.127  0.00  0.00     0.074 H 
ATOM      8  H9  <0> d          -1.750   1.143  -1.271  0.00  0.00     0.074 H 
ATOM      9  H10 <0> d           0.002  -0.004   0.002  0.00  0.00     0.039 H 
ATOM     10  H11 <0> d           1.009   1.465   0.000  0.00  0.00     0.039 H 
ATOM     11  H12 <0> d          -1.725   1.129   1.320  0.00  0.00     0.074 H 
ATOM     12  H13 <0> d          -0.158   1.312   2.149  0.00  0.00     0.074 H 
ENDROOT
BRANCH   1  13
ATOM     13  C3  <0> d          -1.621   4.994   0.043  0.00  0.00    -0.013 C 
ATOM     14  H6  <0> d          -2.155   5.343  -0.841  0.00  0.00     0.041 H 
ATOM     15  H7  <0> d          -2.139   5.334   0.939  0.00  0.00     0.041 H 
BRANCH  13  16
ATOM     16  C2  <0> d          -0.197   5.554   0.034  0.00  0.00    -0.064 C 
ATOM     17  H4  <0> d           0.337   5.205   0.917  0.00  0.00     0.032 H 
ATOM     18  H5  <0> d           0.322   5.214  -0.863  0.00  0.00     0.032 H 
BRANCH  16  19
ATOM     19  C1  <0> d          -0.251   7.083   0.042  0.00  0.00    -0.076 C 
ATOM     20  H1  <0> d          -0.785   7.433  -0.841  0.00  0.00     0.027 H 
ATOM     21  H2  <0> d          -0.770   7.424   0.939  0.00  0.00     0.027 H 
ATOM     22  H3  <0> d           0.763   7.483   0.036  0.00  0.00     0.027 H 
ENDBRANCH  16  19
ENDBRANCH  13  16
ENDBRANCH   1  13
BRANCH   1  23
ATOM     23  C8  <0> d          -2.990   2.904   0.043  0.00  0.00    -0.025 C 
ATOM     24  H14 <0> d          -2.952   1.815   0.037  0.00  0.00     0.035 H 
ATOM     25  H15 <0> d          -3.509   3.244   0.939  0.00  0.00     0.035 H 
ATOM     26  H16 <0> d          -3.524   3.254  -0.841  0.00  0.00     0.035 H 
ENDBRANCH   1  23
TORSDOF 4
