REMARK  3 active torsions:
REMARK  status: ('A' for Active; 'I' for Inactive)
REMARK    1  A    between atoms: C1_1  and  C2_2 
REMARK    2  A    between atoms: C6_6  and  N2_8 
REMARK       I    between atoms: N2_8  and  C7_9 
REMARK    3  A    between atoms: C7_9  and  C8_11 
ROOT
ATOM      1  C2  <0> d           1.098   2.026   0.006  0.00  0.00     0.033 A 
ATOM      2  C3  <0> d           2.331   1.405  -0.007  0.00  0.00    -0.059 A 
ATOM      3  C4  <0> d           2.393   0.018  -0.015  0.00  0.00    -0.077 A 
ATOM      4  C5  <0> d           1.208  -0.696  -0.009  0.00  0.00    -0.038 A 
ATOM      5  C6  <0> d           0.002  -0.004   0.004  0.00  0.00     0.130 A 
ATOM      6  N1  <0> d          -0.016   1.319   0.011  0.00  0.00    -0.236 NA
ATOM      7  H4  <0> d           3.238   1.992  -0.011  0.00  0.00     0.086 H 
ATOM      8  H5  <0> d           3.345  -0.492  -0.025  0.00  0.00     0.083 H 
ATOM      9  H6  <0> d           1.219  -1.776  -0.015  0.00  0.00     0.089 H 
ENDROOT
BRANCH   5  10
ATOM     10  N2  <0> d          -1.199  -0.711   0.010  0.00  0.00    -0.312 N 
ATOM     11  C7  <0> d          -2.369  -0.051   0.126  0.00  0.00     0.219 C 
ATOM     12  O1  <0> d          -2.383   1.161   0.132  0.00  0.00    -0.274 OA
ATOM     13  H7  <0> d          -1.194  -1.678  -0.070  0.00  0.00     0.170 HD
BRANCH  11  14
ATOM     14  C8  <0> d          -3.659  -0.820   0.247  0.00  0.00    -0.002 C 
ATOM     15  H8  <0> d          -3.449  -1.890   0.223  0.00  0.00     0.040 H 
ATOM     16  H9  <0> d          -4.145  -0.568   1.190  0.00  0.00     0.040 H 
ATOM     17  H10 <0> d          -4.317  -0.560  -0.582  0.00  0.00     0.040 H 
ENDBRANCH  11  14
ENDBRANCH   5  10
BRANCH   1  18
ATOM     18  C1  <0> d           1.024   3.531   0.015  0.00  0.00    -0.035 C 
ATOM     19  H1  <0> d           1.014   3.889   1.045  0.00  0.00     0.035 H 
ATOM     20  H2  <0> d           1.890   3.941  -0.504  0.00  0.00     0.035 H 
ATOM     21  H3  <0> d           0.113   3.853  -0.490  0.00  0.00     0.035 H 
ENDBRANCH   1  18
TORSDOF 3
