REMARK  1 active torsions:
REMARK  status: ('A' for Active; 'I' for Inactive)
REMARK    1  A    between atoms: C4_8  and  C5_9 
ROOT
ATOM      1  C1  <0> d          -1.323   3.480   0.027  0.00  0.00    -0.041 A 
ATOM      2  C2  <0> d          -2.531   4.111   0.036  0.00  0.00    -0.013 A 
ATOM      3  C3  <0> d          -3.695   3.311   0.038  0.00  0.00     0.261 A 
ATOM      4  O1  <0> d          -4.798   3.832   0.046  0.00  0.00    -0.267 OA
ATOM      5  N1  <0> d          -3.579   1.970   0.030  0.00  0.00    -0.243 N 
ATOM      6  H1  <0> d          -4.383   1.427   0.031  0.00  0.00     0.192 HD
ATOM      7  N2  <0> d          -2.434   1.390   0.016  0.00  0.00    -0.165 NA
ATOM      8  C4  <0> d          -1.306   2.064   0.019  0.00  0.00     0.153 A 
ATOM      9  H2  <0> d          -0.402   4.046   0.026  0.00  0.00     0.087 H 
ATOM     10  H3  <0> d          -2.596   5.189   0.042  0.00  0.00     0.092 H 
ENDROOT
BRANCH   8  11
ATOM     11  C5  <0> d          -0.016   1.343   0.009  0.00  0.00     0.230 C 
ATOM     12  O2  <0> d           1.027   1.965   0.003  0.00  0.00    -0.643 OA
ATOM     13  O3  <0> d           0.002  -0.004   0.002  0.00  0.00    -0.643 OA
ENDBRANCH   8  11
TORSDOF 1
