REMARK  2 active torsions:
REMARK  status: ('A' for Active; 'I' for Inactive)
REMARK    1  A    between atoms: C1_1  and  O1_2 
REMARK    2  A    between atoms: O1_2  and  C2_3 
ROOT
ATOM      1  C2  <0> d          -0.149   1.182   2.380  0.00  0.00     0.106 A 
ATOM      2  C3  <0> d           0.991   0.393   2.421  0.00  0.00    -0.048 A 
ATOM      3  C4  <0> d           1.533   0.026   3.638  0.00  0.00    -0.080 A 
ATOM      4  C5  <0> d           0.936   0.438   4.815  0.00  0.00    -0.080 A 
ATOM      5  C6  <0> d          -0.203   1.221   4.779  0.00  0.00    -0.043 A 
ATOM      6  C7  <0> d          -0.748   1.595   3.563  0.00  0.00     0.149 A 
ATOM      7  F1  <0> d          -1.861   2.359   3.527  0.00  0.00    -0.203 F 
ATOM      8  H4  <0> d           1.456   0.067   1.503  0.00  0.00     0.087 H 
ATOM      9  H5  <0> d           2.423  -0.585   3.670  0.00  0.00     0.083 H 
ATOM     10  H6  <0> d           1.360   0.147   5.765  0.00  0.00     0.083 H 
ATOM     11  H7  <0> d          -0.667   1.542   5.700  0.00  0.00     0.088 H 
ENDROOT
BRANCH   1  12
ATOM     12  O1  <0> d          -0.682   1.547   1.184  0.00  0.00    -0.353 OA
BRANCH  12  13
ATOM     13  C1  <0> d          -0.013   1.086   0.008  0.00  0.00     0.011 C 
ATOM     14  H1  <0> d           0.002  -0.004   0.002  0.00  0.00     0.066 H 
ATOM     15  H2  <0> d           1.010   1.463   0.000  0.00  0.00     0.066 H 
ATOM     16  H3  <0> d          -0.540   1.447  -0.875  0.00  0.00     0.066 H 
ENDBRANCH  12  13
ENDBRANCH   1  12
TORSDOF 2
