REMARK  0 active torsions:
REMARK  status: ('A' for Active; 'I' for Inactive)
ROOT
ATOM      1  C1  <0> d           2.036   0.604  -0.014  0.00  0.00     0.112 A 
ATOM      2  N1  <0> d           1.223  -0.415  -0.012  0.00  0.00    -0.141 NA
ATOM      3  N2  <0> d           0.002  -0.004   0.002  0.00  0.00    -0.121 NA
ATOM      4  C2  <0> d          -0.015   1.294   0.009  0.00  0.00     0.217 A 
ATOM      5  N3  <0> d           1.278   1.756  -0.001  0.00  0.00    -0.199 N 
ATOM      6  N4  <0> d           1.442   3.135   0.005  0.00  0.00    -0.170 NA
ATOM      7  C3  <0> d           0.421   3.939   0.019  0.00  0.00     0.063 A 
ATOM      8  S1  <0> d          -0.955   2.801   0.032  0.00  0.00    -0.039 SA
ATOM      9  H1  <0> d           3.115   0.554  -0.025  0.00  0.00     0.149 H 
ATOM     10  H2  <0> d           0.408   5.019   0.026  0.00  0.00     0.129 H 
ENDROOT
TORSDOF 0
