REMARK  0 active torsions:
REMARK  status: ('A' for Active; 'I' for Inactive)
ROOT
ATOM      1  C1  <0> d           4.083  -0.584  -0.038  0.00  0.00    -0.042 A 
ATOM      2  C2  <0> d           3.309  -1.738  -0.037  0.00  0.00    -0.040 A 
ATOM      3  C3  <0> d           1.934  -1.660  -0.025  0.00  0.00     0.145 A 
ATOM      4  C4  <0> d           1.312  -0.412  -0.013  0.00  0.00     0.103 A 
ATOM      5  C5  <0> d           2.097   0.755  -0.014  0.00  0.00     0.053 A 
ATOM      6  C6  <0> d           3.496   0.649  -0.027  0.00  0.00     0.130 A 
ATOM      7  F1  <0> d           4.260   1.763  -0.029  0.00  0.00    -0.205 F 
ATOM      8  C7  <0> d           1.202   1.853   0.001  0.00  0.00     0.037 A 
ATOM      9  N1  <0> d          -0.017   1.396   0.010  0.00  0.00    -0.186 NA
ATOM     10  N2  <0> d           0.002  -0.004   0.002  0.00  0.00    -0.275 N 
ATOM     11  H1  <0> d          -0.799  -0.602   0.006  0.00  0.00     0.189 HD
ATOM     12  F2  <0> d           1.190  -2.788  -0.023  0.00  0.00    -0.204 F 
ATOM     13  H2  <0> d           5.160  -0.663  -0.048  0.00  0.00     0.088 H 
ATOM     14  H3  <0> d           3.790  -2.705  -0.047  0.00  0.00     0.088 H 
ATOM     15  H4  <0> d           1.484   2.895   0.003  0.00  0.00     0.118 H 
ENDROOT
TORSDOF 0
