REMARK  2 active torsions:
REMARK  status: ('A' for Active; 'I' for Inactive)
REMARK    1  A    between atoms: C1_1  and  C2_2 
REMARK    2  A    between atoms: C6_6  and  N2_8 
ROOT
ATOM      1  C2  <0> d           0.002  -0.004   0.002  0.00  0.00     0.033 A 
ATOM      2  C3  <0> d           0.006  -0.679  -1.203  0.00  0.00    -0.059 A 
ATOM      3  C4  <0> d           0.025  -2.067  -1.204  0.00  0.00    -0.077 A 
ATOM      4  C5  <0> d           0.040  -2.728   0.013  0.00  0.00    -0.038 A 
ATOM      5  C6  <0> d           0.035  -1.984   1.186  0.00  0.00     0.135 A 
ATOM      6  N1  <0> d           0.022  -0.661   1.145  0.00  0.00    -0.236 NA
ATOM      7  H4  <0> d          -0.007  -0.133  -2.135  0.00  0.00     0.086 H 
ATOM      8  H5  <0> d           0.028  -2.619  -2.132  0.00  0.00     0.083 H 
ATOM      9  H6  <0> d           0.055  -3.807   0.049  0.00  0.00     0.089 H 
ENDROOT
BRANCH   5  10
ATOM     10  N2  <0> d           0.051  -2.639   2.421  0.00  0.00    -0.300 N 
ATOM     11  C9  <0> d           0.165  -3.978   2.625  0.00  0.00     0.071 A 
ATOM     12  N3  <0> d           0.142  -4.206   3.909  0.00  0.00    -0.254 NA
ATOM     13  H9  <0> d           0.261  -4.727   1.853  0.00  0.00     0.144 H 
ATOM     14  C8  <0> d           0.006  -3.043   4.565  0.00  0.00     0.019 A 
ATOM     15  C7  <0> d          -0.053  -2.052   3.657  0.00  0.00     0.004 A 
ATOM     16  H8  <0> d          -0.046  -2.924   5.637  0.00  0.00     0.117 H 
ATOM     17  H7  <0> d          -0.161  -0.997   3.861  0.00  0.00     0.114 H 
ENDBRANCH   5  10
BRANCH   1  18
ATOM     18  C1  <0> d          -0.018   1.503   0.010  0.00  0.00    -0.035 C 
ATOM     19  H1  <0> d           1.004   1.880   0.003  0.00  0.00     0.035 H 
ATOM     20  H2  <0> d          -0.545   1.864  -0.873  0.00  0.00     0.035 H 
ATOM     21  H3  <0> d          -0.529   1.854   0.907  0.00  0.00     0.035 H 
ENDBRANCH   1  18
TORSDOF 2
