REMARK  3 active torsions:
REMARK  status: ('A' for Active; 'I' for Inactive)
REMARK    1  A    between atoms: C1_1  and  O1_2 
REMARK    2  A    between atoms: O1_2  and  C2_3 
REMARK    3  A    between atoms: C3_4  and  N1_10 
ROOT
ATOM      1  C2  <0> d           2.383   1.416  -0.014  0.00  0.00     0.133 A 
ATOM      2  C3  <0> d           2.401   0.024  -0.021  0.00  0.00     0.062 A 
ATOM      3  C4  <0> d           1.206  -0.682  -0.013  0.00  0.00    -0.055 A 
ATOM      4  C5  <0> d           0.002  -0.004   0.002  0.00  0.00    -0.078 A 
ATOM      5  C6  <0> d          -0.017   1.378   0.010  0.00  0.00    -0.043 A 
ATOM      6  C7  <0> d           1.171   2.090   0.002  0.00  0.00     0.151 A 
ATOM      7  F1  <0> d           1.150   3.441   0.010  0.00  0.00    -0.203 F 
ATOM      8  H4  <0> d           1.218  -1.762  -0.018  0.00  0.00     0.087 H 
ATOM      9  H5  <0> d          -0.927  -0.555   0.008  0.00  0.00     0.083 H 
ATOM     10  H6  <0> d          -0.960   1.904   0.017  0.00  0.00     0.088 H 
ENDROOT
BRANCH   1  11
ATOM     11  O1  <0> d           3.551   2.113  -0.021  0.00  0.00    -0.351 OA
BRANCH  11  12
ATOM     12  C1  <0> d           4.096   2.452  -1.298  0.00  0.00     0.011 C 
ATOM     13  H1  <0> d           4.296   1.541  -1.861  0.00  0.00     0.067 H 
ATOM     14  H2  <0> d           3.384   3.069  -1.845  0.00  0.00     0.067 H 
ATOM     15  H3  <0> d           5.026   3.005  -1.161  0.00  0.00     0.067 H 
ENDBRANCH  11  12
ENDBRANCH   1  11
BRANCH   2  16
ATOM     16  N1  <0> d           3.621  -0.662  -0.036  0.00  0.00    -0.397 N 
ATOM     17  H7  <0> d           3.632  -1.632  -0.040  0.00  0.00     0.156 HD
ATOM     18  H8  <0> d           4.455  -0.168  -0.041  0.00  0.00     0.156 HD
ENDBRANCH   2  16
TORSDOF 3
