REMARK  8 active torsions:
REMARK  status: ('A' for Active; 'I' for Inactive)
REMARK    1  A    between atoms: C1_1  and  C2_2 
REMARK    2  A    between atoms: C2_2  and  O1_3 
REMARK    3  A    between atoms: O1_3  and  C3_4 
REMARK    4  A    between atoms: C3_4  and  C4_6 
REMARK    5  A    between atoms: C4_6  and  O3_7 
REMARK    6  A    between atoms: O3_7  and  C5_8 
REMARK    7  A    between atoms: C5_8  and  C6_9 
REMARK    8  A    between atoms: C6_9  and  C7_10 
ROOT
ATOM      1  C4  <0> d          -1.329   1.940   0.019  0.00  0.00     0.099 C 
ATOM      2  H6  <0> d          -1.392   2.566   0.921  0.00  0.00     0.089 H 
ATOM      3  H7  <0> d          -1.401   2.576  -0.875  0.00  0.00     0.089 H 
ENDROOT
BRANCH   1   4
ATOM      4  C3  <0> d          -0.014   1.204   0.009  0.00  0.00     0.282 C 
ATOM      5  O2  <0> d           0.002  -0.004   0.002  0.00  0.00    -0.263 OA
BRANCH   4   6
ATOM      6  O1  <0> d           1.139   1.891   0.001  0.00  0.00    -0.320 OA
BRANCH   6   7
ATOM      7  C2  <0> d           2.367   1.117  -0.015  0.00  0.00     0.026 C 
ATOM      8  H4  <0> d           2.392   0.487  -0.916  0.00  0.00     0.074 H 
ATOM      9  H5  <0> d           2.409   0.478   0.880  0.00  0.00     0.074 H 
BRANCH   7  10
ATOM     10  C1  <0> d           3.568   2.065  -0.021  0.00  0.00    -0.056 C 
ATOM     11  H1  <0> d           4.498   1.479  -0.033  0.00  0.00     0.030 H 
ATOM     12  H2  <0> d           3.542   2.695   0.881  0.00  0.00     0.030 H 
ATOM     13  H3  <0> d           3.525   2.704  -0.915  0.00  0.00     0.030 H 
ENDBRANCH   7  10
ENDBRANCH   6   7
ENDBRANCH   4   6
ENDBRANCH   1   4
BRANCH   1  14
ATOM     14  O3  <0> d          -2.403   0.997   0.019  0.00  0.00    -0.381 OA
BRANCH  14  15
ATOM     15  C5  <0> d          -3.701   1.593   0.028  0.00  0.00     0.023 C 
ATOM     16  H8  <0> d          -3.813   2.213   0.930  0.00  0.00     0.074 H 
ATOM     17  H9  <0> d          -3.822   2.223  -0.866  0.00  0.00     0.074 H 
BRANCH  15  18
ATOM     18  C6  <0> d          -4.767   0.496   0.027  0.00  0.00    -0.031 C 
ATOM     19  H10 <0> d          -4.655  -0.123  -0.875  0.00  0.00     0.042 H 
ATOM     20  H11 <0> d          -4.646  -0.133   0.922  0.00  0.00     0.042 H 
BRANCH  18  21
ATOM     21  C7  <0> d          -6.136   1.125   0.037  0.00  0.00    -0.110 C 
ATOM     22  C8  <0> d          -7.008   0.813  -0.890  0.00  0.00    -0.125 C 
ATOM     23  H13 <0> d          -8.007   1.272  -0.882  0.00  0.00     0.066 H 
ATOM     24  H14 <0> d          -6.740   0.091  -1.675  0.00  0.00     0.066 H 
ATOM     25  H12 <0> d          -6.404   1.847   0.823  0.00  0.00     0.075 H 
ENDBRANCH  18  21
ENDBRANCH  15  18
ENDBRANCH  14  15
ENDBRANCH   1  14
TORSDOF 8
