REMARK  1 active torsions:
REMARK  status: ('A' for Active; 'I' for Inactive)
REMARK    1  A    between atoms: C1_1  and  C2_2 
ROOT
ATOM      1  C2  <0> d          -0.718   1.572   1.248  0.00  0.00     0.044 A 
ATOM      2  C3  <0> d          -0.004   1.815   2.435  0.00  0.00     0.017 A 
ATOM      3  C4  <0> d           1.382   1.620   2.525  0.00  0.00    -0.069 A 
ATOM      4  C5  <0> d           2.019   1.873   3.702  0.00  0.00    -0.082 A 
ATOM      5  C6  <0> d           1.314   2.321   4.817  0.00  0.00    -0.081 A 
ATOM      6  C7  <0> d          -0.032   2.521   4.764  0.00  0.00    -0.054 A 
ATOM      7  C8  <0> d          -0.723   2.272   3.570  0.00  0.00     0.070 A 
ATOM      8  N1  <0> d          -2.045   2.452   3.463  0.00  0.00    -0.241 NA
ATOM      9  C9  <0> d          -2.655   2.207   2.328  0.00  0.00     0.087 A 
ATOM     10  N2  <0> d          -2.019   1.785   1.246  0.00  0.00    -0.246 NA
ATOM     11  H4  <0> d           1.940   1.272   1.668  0.00  0.00     0.085 H 
ATOM     12  H5  <0> d           3.087   1.722   3.772  0.00  0.00     0.083 H 
ATOM     13  H6  <0> d           1.844   2.514   5.739  0.00  0.00     0.083 H 
ATOM     14  H7  <0> d          -0.564   2.869   5.637  0.00  0.00     0.087 H 
ATOM     15  H8  <0> d          -3.723   2.362   2.272  0.00  0.00     0.146 H 
ENDROOT
BRANCH   1  16
ATOM     16  C1  <0> d          -0.013   1.086   0.008  0.00  0.00    -0.035 C 
ATOM     17  H1  <0> d           0.002  -0.004   0.002  0.00  0.00     0.035 H 
ATOM     18  H2  <0> d           1.010   1.463   0.000  0.00  0.00     0.035 H 
ATOM     19  H3  <0> d          -0.540   1.447  -0.875  0.00  0.00     0.035 H 
ENDBRANCH   1  16
TORSDOF 1
