REMARK  4 active torsions:
REMARK  status: ('A' for Active; 'I' for Inactive)
REMARK    1  A    between atoms: C1_1  and  C2_2 
REMARK    2  A    between atoms: C2_2  and  C3_3 
REMARK       I    between atoms: N1_8  and  C7_9 
REMARK    3  A    between atoms: C7_9  and  C8_11 
REMARK    4  A    between atoms: C8_11  and  C9_12 
ROOT
ATOM      1  C3  <0> d           0.723  -0.398   1.291  0.00  0.00     0.014 C 
ATOM      2  H1  <0> d           0.192   0.011   2.150  0.00  0.00     0.072 H 
ATOM      3  C4  <0> d           0.798  -1.935   1.403  0.00  0.00    -0.044 C 
ATOM      4  C5  <0> d           2.208  -2.171   2.006  0.00  0.00    -0.048 C 
ATOM      5  C6  <0> d           3.027  -1.041   1.334  0.00  0.00    -0.002 C 
ATOM      6  N1  <0> d           2.103   0.110   1.269  0.00  0.00    -0.347 N 
ATOM      7  C7  <0> d           2.462   1.407   1.200  0.00  0.00     0.219 C 
ATOM      8  O1  <0> d           1.615   2.274   1.243  0.00  0.00    -0.273 OA
ATOM      9  H7  <0> d           0.025  -2.311   2.073  0.00  0.00     0.036 H 
ATOM     10  H8  <0> d           0.717  -2.398   0.420  0.00  0.00     0.036 H 
ATOM     11  H9  <0> d           2.195  -2.052   3.090  0.00  0.00     0.035 H 
ATOM     12  H10 <0> d           2.593  -3.152   1.728  0.00  0.00     0.035 H 
ATOM     13  H11 <0> d           3.899  -0.792   1.939  0.00  0.00     0.064 H 
ATOM     14  H12 <0> d           3.333  -1.340   0.331  0.00  0.00     0.064 H 
ENDROOT
BRANCH   1  15
ATOM     15  C2  <0> d           0.004  -0.005  -0.001  0.00  0.00    -0.049 C 
ATOM     16  H5  <0> d           0.472  -0.510  -0.846  0.00  0.00     0.035 H 
ATOM     17  H6  <0> d           0.071   1.074  -0.140  0.00  0.00     0.035 H 
BRANCH  15  18
ATOM     18  C1  <0> d          -1.467  -0.417   0.088  0.00  0.00    -0.075 C 
ATOM     19  H2  <0> d          -1.912   0.017   0.984  0.00  0.00     0.027 H 
ATOM     20  H3  <0> d          -1.999  -0.059  -0.793  0.00  0.00     0.027 H 
ATOM     21  H4  <0> d          -1.537  -1.504   0.138  0.00  0.00     0.027 H 
ENDBRANCH  15  18
ENDBRANCH   1  15
BRANCH   7  22
ATOM     22  C8  <0> d           3.916   1.780   1.070  0.00  0.00     0.006 C 
ATOM     23  H13 <0> d           4.467   1.400   1.930  0.00  0.00     0.046 H 
ATOM     24  H14 <0> d           4.323   1.346   0.157  0.00  0.00     0.046 H 
BRANCH  22  25
ATOM     25  C9  <0> d           4.048   3.304   1.013  0.00  0.00    -0.068 C 
ATOM     26  H15 <0> d           3.497   3.684   0.153  0.00  0.00     0.028 H 
ATOM     27  H16 <0> d           3.642   3.738   1.926  0.00  0.00     0.028 H 
ATOM     28  H17 <0> d           5.100   3.574   0.918  0.00  0.00     0.028 H 
ENDBRANCH  22  25
ENDBRANCH   7  22
TORSDOF 4
