REMARK  7 active torsions:
REMARK  status: ('A' for Active; 'I' for Inactive)
REMARK    1  A    between atoms: C1_1  and  C2_2 
REMARK    2  A    between atoms: C2_2  and  C3_4 
REMARK    3  A    between atoms: C2_2  and  C6_9 
REMARK    4  A    between atoms: C3_4  and  C4_5 
REMARK    5  A    between atoms: C4_5  and  C5_7 
REMARK    6  A    between atoms: C4_5  and  O1_8 
REMARK    7  A    between atoms: C6_9  and  O2_10 
ROOT
ATOM      1  C2  <0> d          -0.733   1.918   1.269  0.00  0.00    -0.035 C 
ATOM      2  H1  <0> d          -1.726   1.470   1.322  0.00  0.00     0.042 H 
ENDROOT
BRANCH   1   3
ATOM      3  C1  <0> d           0.074   1.518   2.505  0.00  0.00    -0.071 C 
ATOM      4  H3  <0> d          -0.436   1.869   3.402  0.00  0.00     0.028 H 
ATOM      5  H4  <0> d           0.167   0.432   2.542  0.00  0.00     0.028 H 
ATOM      6  H5  <0> d           1.066   1.966   2.452  0.00  0.00     0.028 H 
ENDBRANCH   1   3
BRANCH   1   7
ATOM      7  C3  <0> d          -0.865   3.442   1.217  0.00  0.00    -0.036 C 
ATOM      8  H6  <0> d           0.127   3.893   1.254  0.00  0.00     0.037 H 
ATOM      9  H7  <0> d          -1.362   3.732   0.292  0.00  0.00     0.037 H 
BRANCH   7  10
ATOM     10  C4  <0> d          -1.689   3.924   2.412  0.00  0.00     0.032 C 
ATOM     11  H2  <0> d          -1.239   3.557   3.335  0.00  0.00     0.082 H 
BRANCH  10  12
ATOM     12  C5  <0> d          -1.715   5.453   2.430  0.00  0.00    -0.052 C 
ATOM     13  H8  <0> d          -2.165   5.820   1.507  0.00  0.00     0.030 H 
ATOM     14  H9  <0> d          -2.302   5.797   3.282  0.00  0.00     0.030 H 
ATOM     15  H10 <0> d          -0.697   5.833   2.514  0.00  0.00     0.030 H 
ENDBRANCH  10  12
BRANCH  10  16
ATOM     16  O1  <0> d          -3.024   3.425   2.302  0.00  0.00    -0.396 OA
ATOM     17  H11 <0> d          -3.486   3.712   1.503  0.00  0.00     0.210 HD
ENDBRANCH  10  16
ENDBRANCH   7  10
ENDBRANCH   1   7
BRANCH   1  18
ATOM     18  C6  <0> d          -0.017   1.425   0.010  0.00  0.00     0.020 C 
ATOM     19  H12 <0> d           1.005   1.802   0.002  0.00  0.00     0.074 H 
ATOM     20  H13 <0> d          -0.544   1.786  -0.873  0.00  0.00     0.074 H 
BRANCH  18  21
ATOM     21  O2  <0> d           0.002  -0.004   0.002  0.00  0.00    -0.400 OA
ATOM     22  H14 <0> d           0.442  -0.387  -0.769  0.00  0.00     0.209 HD
ENDBRANCH  18  21
ENDBRANCH   1  18
TORSDOF 7
