REMARK  4 active torsions:
REMARK  status: ('A' for Active; 'I' for Inactive)
REMARK    1  A    between atoms: C1_1  and  C2_2 
REMARK    2  A    between atoms: C5_5  and  C8_8 
REMARK    3  A    between atoms: C8_8  and  C9_9 
REMARK    4  A    between atoms: C9_9  and  O1_10 
ROOT
ATOM      1  C2  <0> d           1.171   2.086   0.002  0.00  0.00    -0.062 A 
ATOM      2  C3  <0> d          -0.017   1.378   0.010  0.00  0.00    -0.077 A 
ATOM      3  C4  <0> d           0.002  -0.004   0.002  0.00  0.00    -0.076 A 
ATOM      4  C5  <0> d           1.208  -0.679  -0.013  0.00  0.00    -0.056 A 
ATOM      5  C6  <0> d           2.396   0.029  -0.021  0.00  0.00    -0.076 A 
ATOM      6  C7  <0> d           2.377   1.411  -0.015  0.00  0.00    -0.077 A 
ATOM      7  H4  <0> d          -0.959   1.905   0.017  0.00  0.00     0.084 H 
ATOM      8  H5  <0> d          -0.926  -0.557   0.008  0.00  0.00     0.084 H 
ATOM      9  H6  <0> d           3.339  -0.499  -0.032  0.00  0.00     0.084 H 
ATOM     10  H7  <0> d           3.305   1.963  -0.021  0.00  0.00     0.084 H 
ENDROOT
BRANCH   4  11
ATOM     11  C8  <0> d           1.229  -2.186  -0.021  0.00  0.00    -0.021 C 
ATOM     12  H8  <0> d           2.137  -2.542   0.487  0.00  0.00     0.043 H 
ATOM     13  H9  <0> d           0.341  -2.567   0.505  0.00  0.00     0.043 H 
BRANCH  11  14
ATOM     14  C9  <0> d           1.221  -2.689  -1.465  0.00  0.00     0.020 C 
ATOM     15  H10 <0> d           0.313  -2.332  -1.973  0.00  0.00     0.074 H 
ATOM     16  H11 <0> d           2.109  -2.308  -1.991  0.00  0.00     0.074 H 
BRANCH  14  17
ATOM     17  O1  <0> d           1.241  -4.118  -1.472  0.00  0.00    -0.401 OA
ATOM     18  H12 <0> d           1.239  -4.663  -2.427  0.00  0.00     0.209 HD
ENDBRANCH  14  17
ENDBRANCH  11  14
ENDBRANCH   4  11
BRANCH   1  19
ATOM     19  C1  <0> d           1.151   3.592   0.010  0.00  0.00    -0.051 C 
ATOM     20  H1  <0> d           0.109   3.945   0.023  0.00  0.00     0.033 H 
ATOM     21  H2  <0> d           1.654   3.971  -0.892  0.00  0.00     0.033 H 
ATOM     22  H3  <0> d           1.674   3.962   0.904  0.00  0.00     0.033 H 
ENDBRANCH   1  19
TORSDOF 4
