REMARK  4 active torsions:
REMARK  status: ('A' for Active; 'I' for Inactive)
REMARK    1  A    between atoms: C1_1  and  C2_2 
REMARK    2  A    between atoms: C1_1  and  O1_10 
REMARK    3  A    between atoms: C3_4  and  N5_9 
REMARK    4  A    between atoms: C4_6  and  N4_8 
ROOT
ATOM      1  C2  <0> d           0.002  -0.004   0.002  0.00  0.00     0.187 A 
ATOM      2  N1  <0> d           0.006  -0.657  -1.147  0.00  0.00    -0.044 NA
ATOM      3  C3  <0> d           0.024  -1.988  -1.158  0.00  0.00     0.737 A 
ATOM      4  N2  <0> d           0.039  -2.660  -0.013  0.00  0.00     0.129 NA
ATOM      5  C4  <0> d           0.035  -2.000   1.141  0.00  0.00     0.737 A 
ATOM      6  N3  <0> d           0.022  -0.669   1.144  0.00  0.00    -0.044 NA
ENDROOT
BRANCH   1   7
ATOM      7  C1  <0> d          -0.018   1.503   0.010  0.00  0.00     0.074 C 
ATOM      8  H1  <0> d          -0.545   1.864  -0.873  0.00  0.00     0.086 H 
ATOM      9  H2  <0> d          -0.529   1.854   0.907  0.00  0.00     0.086 H 
BRANCH   7  10
ATOM     10  O1  <0> d           1.322   1.997   0.000  0.00  0.00    -0.393 OA
ATOM     11  H7  <0> d           1.385   2.962   0.005  0.00  0.00     0.209 HD
ENDBRANCH   7  10
ENDBRANCH   1   7
BRANCH   5  12
ATOM     12  N4  <0> d           0.051  -2.694   2.333  0.00  0.00    -0.230 N 
ATOM     13  H3  <0> d           0.064  -3.664   2.330  0.00  0.00     0.174 HD
ATOM     14  H4  <0> d           0.048  -2.212   3.175  0.00  0.00     0.174 HD
ENDBRANCH   5  12
BRANCH   3  15
ATOM     15  N5  <0> d           0.027  -2.668  -2.359  0.00  0.00    -0.230 N 
ATOM     16  H5  <0> d           0.016  -2.177  -3.195  0.00  0.00     0.174 HD
ATOM     17  H6  <0> d           0.041  -3.638  -2.366  0.00  0.00     0.174 HD
ENDBRANCH   3  15
TORSDOF 4
