REMARK  1 active torsions:
REMARK  status: ('A' for Active; 'I' for Inactive)
REMARK    1  A    between atoms: C5_6  and  N2_7 
ROOT
ATOM      1  C1  <0> d           1.158   2.039   0.002  0.00  0.00    -0.041 A 
ATOM      2  C2  <0> d          -0.016   1.316   0.009  0.00  0.00     0.006 A 
ATOM      3  N1  <0> d           0.002  -0.004   0.002  0.00  0.00    -0.249 NA
ATOM      4  C3  <0> d           1.133  -0.687  -0.013  0.00  0.00     0.127 A 
ATOM      5  C4  <0> d           2.351  -0.037  -0.020  0.00  0.00    -0.019 A 
ATOM      6  C5  <0> d           2.375   1.357  -0.013  0.00  0.00     0.030 A 
ATOM      7 Cl1  <0> d           1.087  -2.422  -0.021  0.00  0.00    -0.062 Cl
ATOM      8  H1  <0> d           1.136   3.119   0.008  0.00  0.00     0.089 H 
ATOM      9  H2  <0> d          -0.962   1.836   0.017  0.00  0.00     0.114 H 
ATOM     10  H3  <0> d           3.272  -0.600  -0.032  0.00  0.00     0.091 H 
ENDROOT
BRANCH   6  11
ATOM     11  N2  <0> d           3.582   2.050  -0.021  0.00  0.00    -0.399 N 
ATOM     12  H4  <0> d           4.420   1.564  -0.032  0.00  0.00     0.156 HD
ATOM     13  H5  <0> d           3.584   3.021  -0.016  0.00  0.00     0.156 HD
ENDBRANCH   6  11
TORSDOF 1
