REMARK  2 active torsions:
REMARK  status: ('A' for Active; 'I' for Inactive)
REMARK    1  A    between atoms: C1_1  and  C2_2 
REMARK    2  A    between atoms: C2_2  and  N1_3 
ROOT
ATOM      1  N1  <0> d          -1.372  -0.511   0.012  0.00  0.00    -0.280 N 
ATOM      2  C3  <0> d          -1.908  -1.373  -0.879  0.00  0.00     0.021 A 
ATOM      3  C4  <0> d          -3.195  -1.590  -0.520  0.00  0.00     0.070 A 
ATOM      4  C5  <0> d          -3.455  -0.835   0.629  0.00  0.00     0.044 A 
ATOM      5  N2  <0> d          -2.361  -0.192   0.952  0.00  0.00    -0.184 NA
ATOM      6 Cl1  <0> d          -4.324  -2.622  -1.341  0.00  0.00    -0.081 Cl
ATOM      7  H6  <0> d          -1.400  -1.811  -1.726  0.00  0.00     0.116 H 
ATOM      8  H7  <0> d          -4.394  -0.792   1.160  0.00  0.00     0.120 H 
ENDROOT
BRANCH   1   9
ATOM      9  C2  <0> d           0.002  -0.004   0.002  0.00  0.00     0.013 C 
ATOM     10  H4  <0> d           0.512  -0.356  -0.895  0.00  0.00     0.066 H 
ATOM     11  H5  <0> d           0.529  -0.365   0.885  0.00  0.00     0.066 H 
BRANCH   9  12
ATOM     12  C1  <0> d          -0.019   1.526   0.010  0.00  0.00    -0.059 C 
ATOM     13  H1  <0> d           1.004   1.903   0.003  0.00  0.00     0.029 H 
ATOM     14  H2  <0> d          -0.546   1.887  -0.873  0.00  0.00     0.029 H 
ATOM     15  H3  <0> d          -0.529   1.877   0.907  0.00  0.00     0.029 H 
ENDBRANCH   9  12
ENDBRANCH   1   9
TORSDOF 2
