REMARK  3 active torsions:
REMARK  status: ('A' for Active; 'I' for Inactive)
REMARK    1  A    between atoms: C1_1  and  N1_2 
REMARK    2  A    between atoms: N1_2  and  C2_3 
REMARK       I    between atoms: N1_2  and  C3_4 
REMARK    3  A    between atoms: C3_4  and  C4_6 
ROOT
ATOM      1  C4  <0> d          -1.330   1.944   0.019  0.00  0.00     0.088 C 
ATOM      2  C5  <0> d          -2.435   0.973   0.019  0.00  0.00     0.068 C 
ATOM      3  N2  <0> d          -3.289   0.223   0.019  0.00  0.00    -0.197 NA
ATOM      4  H7  <0> d          -1.392   2.565   0.913  0.00  0.00     0.069 H 
ATOM      5  H8  <0> d          -1.400   2.575  -0.867  0.00  0.00     0.069 H 
ENDROOT
BRANCH   1   6
ATOM      6  C3  <0> d          -0.014   1.209   0.009  0.00  0.00     0.232 C 
ATOM      7  N1  <0> d           1.143   1.898   0.001  0.00  0.00    -0.360 N 
ATOM      8  O1  <0> d           0.002  -0.004   0.002  0.00  0.00    -0.272 OA
BRANCH   7   9
ATOM      9  C1  <0> d           2.422   1.183  -0.015  0.00  0.00    -0.017 C 
ATOM     10  H1  <0> d           2.729   1.011  -1.046  0.00  0.00     0.056 H 
ATOM     11  H2  <0> d           3.179   1.780   0.495  0.00  0.00     0.056 H 
ATOM     12  H3  <0> d           2.309   0.226   0.495  0.00  0.00     0.056 H 
ENDBRANCH   7   9
BRANCH   7  13
ATOM     13  C2  <0> d           1.124   3.363   0.009  0.00  0.00    -0.017 C 
ATOM     14  H4  <0> d           0.091   3.712   0.021  0.00  0.00     0.056 H 
ATOM     15  H5  <0> d           1.641   3.729   0.896  0.00  0.00     0.056 H 
ATOM     16  H6  <0> d           1.624   3.738  -0.883  0.00  0.00     0.056 H 
ENDBRANCH   7  13
ENDBRANCH   1   6
TORSDOF 3
