REMARK  2 active torsions:
REMARK  status: ('A' for Active; 'I' for Inactive)
REMARK    1  A    between atoms: C1_1  and  C2_2 
REMARK    2  A    between atoms: C9_11  and  C10_13 
ROOT
ATOM      1  C2  <0> d           2.611   1.306  -0.015  0.00  0.00    -0.011 A 
ATOM      2  H1  <0> d           2.809   0.723  -0.915  0.00  0.00     0.050 H 
ATOM      3  C3  <0> d           1.175   1.781   0.000  0.00  0.00    -0.026 A 
ATOM      4  C4  <0> d          -0.013   1.076   0.008  0.00  0.00    -0.074 A 
ATOM      5  C5  <0> d          -1.220   1.749   0.017  0.00  0.00    -0.082 A 
ATOM      6  C6  <0> d          -1.236   3.132   0.031  0.00  0.00    -0.081 A 
ATOM      7  C7  <0> d          -0.054   3.840   0.023  0.00  0.00    -0.057 A 
ATOM      8  C8  <0> d           1.170   3.167   0.008  0.00  0.00     0.035 A 
ATOM      9  N1  <0> d           2.465   3.687  -0.001  0.00  0.00    -0.385 N 
ATOM     10  C9  <0> d           3.445   2.598  -0.016  0.00  0.00     0.013 A 
ATOM     11  H2  <0> d           4.074   2.643   0.873  0.00  0.00     0.072 H 
ATOM     12  H6  <0> d           0.002  -0.004   0.002  0.00  0.00     0.084 H 
ATOM     13  H7  <0> d          -2.148   1.196   0.018  0.00  0.00     0.083 H 
ATOM     14  H8  <0> d          -2.179   3.659   0.042  0.00  0.00     0.083 H 
ATOM     15  H9  <0> d          -0.074   4.920   0.030  0.00  0.00     0.086 H 
ATOM     16  H10 <0> d           2.685   4.632   0.002  0.00  0.00     0.160 HD
ENDROOT
BRANCH   1  17
ATOM     17  C1  <0> d           2.913   0.477   1.234  0.00  0.00    -0.067 C 
ATOM     18  H3  <0> d           2.270  -0.404   1.250  0.00  0.00     0.028 H 
ATOM     19  H4  <0> d           3.957   0.164   1.220  0.00  0.00     0.028 H 
ATOM     20  H5  <0> d           2.726   1.079   2.124  0.00  0.00     0.028 H 
ENDBRANCH   1  17
BRANCH  10  21
ATOM     21  C10 <0> d           4.304   2.674  -1.280  0.00  0.00    -0.057 C 
ATOM     22  H11 <0> d           3.660   2.666  -2.159  0.00  0.00     0.030 H 
ATOM     23  H12 <0> d           4.889   3.594  -1.266  0.00  0.00     0.030 H 
ATOM     24  H13 <0> d           4.976   1.817  -1.314  0.00  0.00     0.030 H 
ENDBRANCH  10  21
TORSDOF 2
