REMARK  5 active torsions:
REMARK  status: ('A' for Active; 'I' for Inactive)
REMARK    1  A    between atoms: C1_1  and  C2_2 
REMARK    2  A    between atoms: C3_4  and  O2_10 
REMARK    3  A    between atoms: C4_6  and  O1_8 
REMARK    4  A    between atoms: O1_8  and  C5_9 
REMARK    5  A    between atoms: O2_10  and  C6_11 
ROOT
ATOM      1  C2  <0> d           1.119   2.002   0.002  0.00  0.00     0.131 A 
ATOM      2  N1  <0> d          -0.016   1.325   0.009  0.00  0.00    -0.192 NA
ATOM      3  C3  <0> d           0.002  -0.004   0.002  0.00  0.00     0.273 A 
ATOM      4  N2  <0> d           1.161  -0.650  -0.013  0.00  0.00    -0.164 NA
ATOM      5  C4  <0> d           2.299   0.033  -0.020  0.00  0.00     0.273 A 
ATOM      6  N3  <0> d           2.275   1.361  -0.012  0.00  0.00    -0.192 NA
ENDROOT
BRANCH   3   7
ATOM      7  O2  <0> d          -1.160  -0.697   0.009  0.00  0.00    -0.324 OA
BRANCH   7   8
ATOM      8  C6  <0> d          -1.065  -2.123   0.000  0.00  0.00     0.013 C 
ATOM      9  H7  <0> d          -2.066  -2.554   0.007  0.00  0.00     0.067 H 
ATOM     10  H8  <0> d          -0.536  -2.446  -0.896  0.00  0.00     0.067 H 
ATOM     11  H9  <0> d          -0.520  -2.456   0.884  0.00  0.00     0.067 H 
ENDBRANCH   7   8
ENDBRANCH   3   7
BRANCH   1  12
ATOM     12  C1  <0> d           1.095   3.509   0.010  0.00  0.00    -0.019 C 
ATOM     13  H1  <0> d           1.099   3.867   1.039  0.00  0.00     0.037 H 
ATOM     14  H2  <0> d           1.974   3.889  -0.510  0.00  0.00     0.037 H 
ATOM     15  H3  <0> d           0.195   3.861  -0.494  0.00  0.00     0.037 H 
ENDBRANCH   1  12
BRANCH   5  16
ATOM     16  O1  <0> d           3.482  -0.623  -0.034  0.00  0.00    -0.324 OA
BRANCH  16  17
ATOM     17  C5  <0> d           3.432  -2.051  -0.041  0.00  0.00     0.013 C 
ATOM     18  H4  <0> d           4.447  -2.450  -0.052  0.00  0.00     0.067 H 
ATOM     19  H5  <0> d           2.915  -2.401   0.852  0.00  0.00     0.067 H 
ATOM     20  H6  <0> d           2.898  -2.392  -0.928  0.00  0.00     0.067 H 
ENDBRANCH  16  17
ENDBRANCH   5  16
TORSDOF 5
