REMARK  2 active torsions:
REMARK  status: ('A' for Active; 'I' for Inactive)
REMARK    1  A    between atoms: C1_1  and  O1_2 
REMARK    2  A    between atoms: O1_2  and  C2_3 
ROOT
ATOM      1  C2  <0> d          -0.016   1.355   0.009  0.00  0.00     0.095 A 
ATOM      2  C3  <0> d           1.169   2.066   0.002  0.00  0.00    -0.049 A 
ATOM      3  C4  <0> d           1.161   3.454   0.010  0.00  0.00    -0.079 A 
ATOM      4  C5  <0> d          -0.019   4.142   0.024  0.00  0.00    -0.071 A 
ATOM      5  C6  <0> d          -1.230   3.445   0.032  0.00  0.00    -0.005 A 
ATOM      6  C7  <0> d          -1.232   2.040   0.019  0.00  0.00     0.076 A 
ATOM      7  N1  <0> d          -2.549   1.634   0.036  0.00  0.00    -0.363 N 
ATOM      8  H1  <0> d          -2.849   0.712   0.034  0.00  0.00     0.165 HD
ATOM      9  C8  <0> d          -3.371   2.727   0.049  0.00  0.00    -0.022 A 
ATOM     10  C9  <0> d          -2.638   3.851   0.048  0.00  0.00    -0.056 A 
ATOM     11  H5  <0> d           2.111   1.536  -0.009  0.00  0.00     0.087 H 
ATOM     12  H6  <0> d           2.096   3.994   0.004  0.00  0.00     0.083 H 
ATOM     13  H7  <0> d          -0.016   5.222   0.030  0.00  0.00     0.084 H 
ATOM     14  H8  <0> d          -4.451   2.691   0.059  0.00  0.00     0.111 H 
ATOM     15  H9  <0> d          -3.014   4.864   0.057  0.00  0.00     0.086 H 
ENDROOT
BRANCH   1  16
ATOM     16  O1  <0> d           0.002  -0.004   0.002  0.00  0.00    -0.354 OA
BRANCH  16  17
ATOM     17  C1  <0> d           1.284  -0.635  -0.014  0.00  0.00     0.010 C 
ATOM     18  H2  <0> d           1.828  -0.330  -0.907  0.00  0.00     0.066 H 
ATOM     19  H3  <0> d           1.845  -0.340   0.873  0.00  0.00     0.066 H 
ATOM     20  H4  <0> d           1.156  -1.718  -0.018  0.00  0.00     0.066 H 
ENDBRANCH  16  17
ENDBRANCH   1  16
TORSDOF 2
