REMARK  5 active torsions:
REMARK  status: ('A' for Active; 'I' for Inactive)
REMARK    1  A    between atoms: C1_1  and  C2_2 
REMARK    2  A    between atoms: C2_2  and  C3_3 
REMARK    3  A    between atoms: C4_6  and  C5_9 
REMARK    4  A    between atoms: N3_7  and  N4_8 
REMARK    5  A    between atoms: C5_9  and  C6_10 
ROOT
ATOM      1  C3  <0> d          -0.718   1.572   1.248  0.00  0.00     0.144 A 
ATOM      2  N1  <0> d          -0.481   2.685   1.887  0.00  0.00    -0.134 NA
ATOM      3  N2  <0> d          -1.270   2.780   2.898  0.00  0.00    -0.134 NA
ATOM      4  C4  <0> d          -2.040   1.728   2.955  0.00  0.00     0.144 A 
ATOM      5  N3  <0> d          -1.712   0.931   1.910  0.00  0.00    -0.248 N 
ENDROOT
BRANCH   1   6
ATOM      6  C2  <0> d          -0.013   1.086   0.008  0.00  0.00    -0.010 C 
ATOM      7  H4  <0> d           0.002  -0.004   0.002  0.00  0.00     0.044 H 
ATOM      8  H5  <0> d           1.010   1.463   0.000  0.00  0.00     0.044 H 
BRANCH   6   9
ATOM      9  C1  <0> d          -0.753   1.593  -1.232  0.00  0.00    -0.070 C 
ATOM     10  H1  <0> d          -0.767   2.683  -1.226  0.00  0.00     0.028 H 
ATOM     11  H2  <0> d          -0.242   1.241  -2.128  0.00  0.00     0.028 H 
ATOM     12  H3  <0> d          -1.775   1.215  -1.224  0.00  0.00     0.028 H 
ENDBRANCH   6   9
ENDBRANCH   1   6
BRANCH   5  13
ATOM     13  N4  <0> d          -2.270  -0.273   1.588  0.00  0.00    -0.240 NA
ATOM     14  H6  <0> d          -1.778  -1.031   2.038  0.00  0.00     0.143 HD
ATOM     15  H7  <0> d          -3.252  -0.291   1.820  0.00  0.00     0.143 HD
ENDBRANCH   5  13
BRANCH   4  16
ATOM     16  C5  <0> d          -3.098   1.452   3.991  0.00  0.00    -0.010 C 
ATOM     17  H8  <0> d          -3.510   2.395   4.352  0.00  0.00     0.044 H 
ATOM     18  H9  <0> d          -3.895   0.854   3.547  0.00  0.00     0.044 H 
BRANCH  16  19
ATOM     19  C6  <0> d          -2.478   0.685   5.162  0.00  0.00    -0.070 C 
ATOM     20  H10 <0> d          -2.067  -0.258   4.802  0.00  0.00     0.028 H 
ATOM     21  H11 <0> d          -1.682   1.283   5.606  0.00  0.00     0.028 H 
ATOM     22  H12 <0> d          -3.244   0.485   5.911  0.00  0.00     0.028 H 
ENDBRANCH  16  19
ENDBRANCH   4  16
TORSDOF 5
