REMARK  2 active torsions:
REMARK  status: ('A' for Active; 'I' for Inactive)
REMARK    1  A    between atoms: C1_1  and  C2_2 
REMARK    2  A    between atoms: C4_6  and  C5_8 
ROOT
ATOM      1  C2  <0> d          -0.718   1.572   1.248  0.00  0.00     0.100 A 
ATOM      2  N1  <0> d          -2.042   1.820   1.351  0.00  0.00    -0.352 N 
ATOM      3  H1  <0> d          -2.722   1.717   0.625  0.00  0.00     0.166 HD
ATOM      4  C3  <0> d          -2.282   2.237   2.630  0.00  0.00     0.007 A 
ATOM      5  C4  <0> d          -1.084   2.240   3.271  0.00  0.00     0.084 A 
ATOM      6  N2  <0> d          -0.148   1.826   2.392  0.00  0.00    -0.234 NA
ATOM      7  H5  <0> d          -3.238   2.516   3.049  0.00  0.00     0.115 H 
ENDROOT
BRANCH   5   8
ATOM      8  C5  <0> d          -0.848   2.627   4.684  0.00  0.00    -0.006 A 
ATOM      9  C10 <0> d           0.440   2.583   5.215  0.00  0.00    -0.071 A 
ATOM     10  C9  <0> d           0.654   2.945   6.529  0.00  0.00    -0.082 A 
ATOM     11  H10 <0> d           1.268   2.265   4.600  0.00  0.00     0.084 H 
ATOM     12  C8  <0> d          -0.407   3.352   7.319  0.00  0.00    -0.083 A 
ATOM     13  H9  <0> d           1.651   2.910   6.942  0.00  0.00     0.083 H 
ATOM     14  C7  <0> d          -1.687   3.398   6.796  0.00  0.00    -0.082 A 
ATOM     15  H8  <0> d          -0.235   3.635   8.347  0.00  0.00     0.083 H 
ATOM     16  C6  <0> d          -1.912   3.043   5.482  0.00  0.00    -0.071 A 
ATOM     17  H7  <0> d          -2.511   3.717   7.417  0.00  0.00     0.083 H 
ATOM     18  H6  <0> d          -2.911   3.084   5.074  0.00  0.00     0.084 H 
ENDBRANCH   5   8
BRANCH   1  19
ATOM     19  C1  <0> d          -0.013   1.086   0.008  0.00  0.00    -0.021 C 
ATOM     20  H2  <0> d           0.002  -0.004   0.002  0.00  0.00     0.037 H 
ATOM     21  H3  <0> d           1.010   1.463   0.000  0.00  0.00     0.037 H 
ATOM     22  H4  <0> d          -0.540   1.447  -0.875  0.00  0.00     0.037 H 
ENDBRANCH   1  19
TORSDOF 2
