REMARK  3 active torsions:
REMARK  status: ('A' for Active; 'I' for Inactive)
REMARK    1  A    between atoms: C1_1  and  C2_2 
REMARK       I    between atoms: C2_2  and  N1_4 
REMARK    2  A    between atoms: N1_4  and  C3_5 
REMARK    3  A    between atoms: C3_5  and  C4_6 
ROOT
ATOM      1  C3  <0> d          -1.295   2.059   0.019  0.00  0.00    -0.002 C 
ATOM      2  H5  <0> d          -1.867   1.792  -0.869  0.00  0.00     0.064 H 
ATOM      3  H6  <0> d          -1.859   1.783   0.911  0.00  0.00     0.064 H 
ENDROOT
BRANCH   1   4
ATOM      4  N1  <0> d          -0.016   1.344   0.009  0.00  0.00    -0.361 N 
ATOM      5  C2  <0> d           0.002  -0.004   0.002  0.00  0.00     0.213 C 
ATOM      6  O1  <0> d          -1.040  -0.625   0.009  0.00  0.00    -0.274 OA
ATOM      7  H4  <0> d           0.817   1.840   0.004  0.00  0.00     0.162 HD
BRANCH   5   8
ATOM      8  C1  <0> d           1.317  -0.740  -0.015  0.00  0.00    -0.003 C 
ATOM      9  H1  <0> d           2.136  -0.020  -0.018  0.00  0.00     0.040 H 
ATOM     10  H2  <0> d           1.392  -1.370   0.871  0.00  0.00     0.040 H 
ATOM     11  H3  <0> d           1.375  -1.361  -0.908  0.00  0.00     0.040 H 
ENDBRANCH   5   8
ENDBRANCH   1   4
BRANCH   1  12
ATOM     12  C4  <0> d          -1.036   3.567   0.026  0.00  0.00    -0.039 A 
ATOM     13  C6  <0> d          -2.249   4.492  -0.079  0.00  0.00    -0.060 A 
ATOM     14  C5  <0> d          -1.502   4.358   1.250  0.00  0.00    -0.060 A 
ATOM     15  H10 <0> d          -2.126   5.423  -0.634  0.00  0.00     0.033 H 
ATOM     16  H11 <0> d          -3.232   4.027  -0.154  0.00  0.00     0.033 H 
ATOM     17  H8  <0> d          -1.993   3.804   2.050  0.00  0.00     0.033 H 
ATOM     18  H9  <0> d          -0.887   5.200   1.569  0.00  0.00     0.033 H 
ATOM     19  H7  <0> d          -0.114   3.888  -0.459  0.00  0.00     0.042 H 
ENDBRANCH   1  12
TORSDOF 3
