REMARK  5 active torsions:
REMARK  status: ('A' for Active; 'I' for Inactive)
REMARK    1  A    between atoms: C1_1  and  C2_2 
REMARK    2  A    between atoms: C2_2  and  C3_3 
REMARK    3  A    between atoms: C2_2  and  C4_4 
REMARK    4  A    between atoms: C4_4  and  C5_6 
REMARK    5  A    between atoms: N3_10  and  C7_11 
ROOT
ATOM      1  C4  <0> d           1.706   3.131   0.003  0.00  0.00     0.200 C 
ATOM      2  O1  <0> d           2.893   3.375  -0.008  0.00  0.00    -0.289 OA
ENDROOT
BRANCH   1   3
ATOM      3  C2  <0> d           0.705   4.258   0.019  0.00  0.00     0.005 C 
ATOM      4  H4  <0> d          -0.132   3.967  -0.446  0.00  0.00     0.051 H 
BRANCH   3   5
ATOM      5  C1  <0> d           0.380   4.631   1.467  0.00  0.00    -0.066 C 
ATOM      6  H1  <0> d          -0.038   3.765   1.980  0.00  0.00     0.028 H 
ATOM      7  H2  <0> d           1.292   4.947   1.973  0.00  0.00     0.028 H 
ATOM      8  H3  <0> d          -0.344   5.446   1.478  0.00  0.00     0.028 H 
ENDBRANCH   3   5
BRANCH   3   9
ATOM      9  C3  <0> d           1.293   5.473  -0.702  0.00  0.00    -0.066 C 
ATOM     10  H5  <0> d           1.524   5.207  -1.733  0.00  0.00     0.028 H 
ATOM     11  H6  <0> d           0.569   6.287  -0.690  0.00  0.00     0.028 H 
ATOM     12  H7  <0> d           2.204   5.789  -0.195  0.00  0.00     0.028 H 
ENDBRANCH   3   9
ENDBRANCH   1   3
BRANCH   1  13
ATOM     13  C5  <0> d           1.242   1.736  -0.001  0.00  0.00     0.193 A 
ATOM     14  N3  <0> d           2.024   0.624  -0.014  0.00  0.00    -0.253 N 
ATOM     15  N2  <0> d           1.249  -0.406  -0.012  0.00  0.00    -0.164 NA
ATOM     16  C6  <0> d           0.002  -0.004   0.002  0.00  0.00     0.108 A 
ATOM     17  N1  <0> d          -0.016   1.324   0.009  0.00  0.00    -0.218 NA
ATOM     18  H8  <0> d          -0.867  -0.646   0.006  0.00  0.00     0.149 H 
BRANCH  14  19
ATOM     19  C7  <0> d           3.488   0.600  -0.028  0.00  0.00     0.004 C 
ATOM     20  H9  <0> d           3.842   0.600  -1.059  0.00  0.00     0.059 H 
ATOM     21  H10 <0> d           3.871   1.481   0.487  0.00  0.00     0.059 H 
ATOM     22  H11 <0> d           3.842  -0.299   0.477  0.00  0.00     0.059 H 
ENDBRANCH  14  19
ENDBRANCH   1  13
TORSDOF 5
