REMARK  1 active torsions:
REMARK  status: ('A' for Active; 'I' for Inactive)
REMARK    1  A    between atoms: C2_3  and  N6_11 
ROOT
ATOM      1  C1  <0> d          -0.016   1.304   0.009  0.00  0.00     0.091 A 
ATOM      2  N1  <0> d           1.075   2.056   0.003  0.00  0.00    -0.222 NA
ATOM      3  C2  <0> d           2.288   1.515  -0.012  0.00  0.00     0.157 A 
ATOM      4  C3  <0> d           2.380   0.059  -0.020  0.00  0.00     0.173 A 
ATOM      5  C4  <0> d           1.161  -0.682  -0.013  0.00  0.00     0.206 A 
ATOM      6  N2  <0> d           0.002  -0.004   0.002  0.00  0.00    -0.219 NA
ATOM      7  N3  <0> d           1.524  -1.951  -0.023  0.00  0.00    -0.135 NA
ATOM      8  H1  <0> d           3.316  -2.842  -0.045  0.00  0.00     0.213 HD
ATOM      9  N4  <0> d           2.811  -2.014  -0.035  0.00  0.00    -0.194 N 
ATOM     10  N5  <0> d           3.344  -0.841  -0.034  0.00  0.00    -0.149 NA
ATOM     11  H2  <0> d          -0.975   1.800   0.026  0.00  0.00     0.146 H 
ENDROOT
BRANCH   3  12
ATOM     12  N6  <0> d           3.419   2.302  -0.019  0.00  0.00    -0.382 N 
ATOM     13  H3  <0> d           3.338   3.268  -0.013  0.00  0.00     0.157 HD
ATOM     14  H4  <0> d           4.297   1.889  -0.029  0.00  0.00     0.157 HD
ENDBRANCH   3  12
TORSDOF 1
