REMARK  4 active torsions:
REMARK  status: ('A' for Active; 'I' for Inactive)
REMARK    1  A    between atoms: C1_1  and  N1_2 
REMARK    2  A    between atoms: C2_3  and  O3_12 
REMARK    3  A    between atoms: C3_5  and  O2_11 
REMARK    4  A    between atoms: N2_7  and  C5_10 
ROOT
ATOM      1  N1  <0> d           0.002  -0.004   0.002  0.00  0.00    -0.308 N 
ATOM      2  C2  <0> d          -1.185  -0.872   0.003  0.00  0.00     0.148 A 
ATOM      3  H1  <0> d          -1.786  -0.699  -0.890  0.00  0.00     0.124 H 
ATOM      4  C3  <0> d          -0.599  -2.298  -0.008  0.00  0.00     0.148 A 
ATOM      5  H2  <0> d          -0.910  -2.832  -0.905  0.00  0.00     0.124 H 
ATOM      6  N2  <0> d           0.855  -2.081  -0.013  0.00  0.00    -0.308 N 
ATOM      7  C4  <0> d           1.104  -0.765  -0.013  0.00  0.00     0.324 A 
ATOM      8  O1  <0> d           2.229  -0.303  -0.022  0.00  0.00    -0.247 OA
ENDROOT
BRANCH   1   9
ATOM      9  C1  <0> d          -0.018   1.461   0.010  0.00  0.00    -0.012 C 
ATOM     10  H3  <0> d           1.005   1.838   0.002  0.00  0.00     0.056 H 
ATOM     11  H4  <0> d          -0.545   1.822  -0.873  0.00  0.00     0.056 H 
ATOM     12  H5  <0> d          -0.528   1.812   0.907  0.00  0.00     0.056 H 
ENDBRANCH   1   9
BRANCH   2  13
ATOM     13  O3  <0> d          -1.964  -0.656   1.181  0.00  0.00    -0.372 OA
ATOM     14  H10 <0> d          -2.304   0.245   1.267  0.00  0.00     0.212 HD
ENDBRANCH   2  13
BRANCH   6  15
ATOM     15  C5  <0> d           1.870  -3.137  -0.024  0.00  0.00    -0.012 C 
ATOM     16  H6  <0> d           2.117  -3.394  -1.054  0.00  0.00     0.056 H 
ATOM     17  H7  <0> d           2.766  -2.785   0.488  0.00  0.00     0.056 H 
ATOM     18  H8  <0> d           1.483  -4.019   0.487  0.00  0.00     0.056 H 
ENDBRANCH   6  15
BRANCH   4  19
ATOM     19  O2  <0> d          -0.999  -3.013   1.164  0.00  0.00    -0.372 OA
ATOM     20  H9  <0> d          -0.658  -3.916   1.208  0.00  0.00     0.212 HD
ENDBRANCH   4  19
TORSDOF 4
