REMARK  3 active torsions:
REMARK  status: ('A' for Active; 'I' for Inactive)
REMARK    1  A    between atoms: C4_4  and  N2_11 
REMARK    2  A    between atoms: C5_5  and  C7_7 
REMARK    3  A    between atoms: C7_7  and  C8_8 
REMARK       I    between atoms: C8_8  and  N1_10 
ROOT
ATOM      1  C1  <0> d          -4.095  -0.334  -1.172  0.00  0.00    -0.082 A 
ATOM      2  C2  <0> d          -4.543  -0.878   0.018  0.00  0.00    -0.081 A 
ATOM      3  C3  <0> d          -3.953  -0.511   1.211  0.00  0.00    -0.057 A 
ATOM      4  C4  <0> d          -2.909   0.405   1.216  0.00  0.00     0.032 A 
ATOM      5  C5  <0> d          -2.462   0.950   0.019  0.00  0.00    -0.023 A 
ATOM      6  C6  <0> d          -3.059   0.582  -1.171  0.00  0.00    -0.074 A 
ATOM      7  H1  <0> d          -4.558  -0.622  -2.104  0.00  0.00     0.083 H 
ATOM      8  H2  <0> d          -5.355  -1.590   0.014  0.00  0.00     0.083 H 
ATOM      9  H3  <0> d          -4.304  -0.936   2.140  0.00  0.00     0.086 H 
ATOM     10  H4  <0> d          -2.715   1.008  -2.102  0.00  0.00     0.084 H 
ENDROOT
BRANCH   5  11
ATOM     11  C7  <0> d          -1.330   1.944   0.019  0.00  0.00     0.035 C 
ATOM     12  H5  <0> d          -1.392   2.565   0.913  0.00  0.00     0.054 H 
ATOM     13  H6  <0> d          -1.400   2.575  -0.867  0.00  0.00     0.054 H 
BRANCH  11  14
ATOM     14  C8  <0> d          -0.014   1.209   0.009  0.00  0.00     0.219 C 
ATOM     15  O1  <0> d           0.002  -0.004   0.002  0.00  0.00    -0.273 OA
ATOM     16  N1  <0> d           1.143   1.898   0.001  0.00  0.00    -0.370 N 
ATOM     17  H7  <0> d           1.990   1.425  -0.009  0.00  0.00     0.159 HD
ATOM     18  H8  <0> d           1.130   2.868   0.007  0.00  0.00     0.159 HD
ENDBRANCH  11  14
ENDBRANCH   5  11
BRANCH   4  19
ATOM     19  N2  <0> d          -2.311   0.779   2.421  0.00  0.00    -0.399 N 
ATOM     20  H9  <0> d          -1.582   1.419   2.423  0.00  0.00     0.156 HD
ATOM     21  H10 <0> d          -2.624   0.398   3.257  0.00  0.00     0.156 HD
ENDBRANCH   4  19
TORSDOF 3
