REMARK  1 active torsions:
REMARK  status: ('A' for Active; 'I' for Inactive)
REMARK    1  A    between atoms: C3_3  and  C7_8 
ROOT
ATOM      1  C7  <0> d          -2.491   3.981   0.212  0.00  0.00     0.018 C 
ATOM      2  C8  <0> d          -3.538   3.453   1.102  0.00  0.00     0.059 C 
ATOM      3  N1  <0> d          -4.346   3.045   1.788  0.00  0.00    -0.197 NA
ATOM      4  H10 <0> d          -2.339   5.040   0.419  0.00  0.00     0.055 H 
ATOM      5  H11 <0> d          -2.799   3.854  -0.826  0.00  0.00     0.055 H 
ENDROOT
BRANCH   1   6
ATOM      6  C3  <0> d          -1.185   3.221   0.453  0.00  0.00    -0.039 C 
ATOM      7  C2  <0> d          -0.061   3.850  -0.381  0.00  0.00    -0.058 C 
ATOM      8  C1  <0> d           1.262   3.192   0.017  0.00  0.00    -0.050 C 
ATOM      9  H4  <0> d          -0.013   4.920  -0.182  0.00  0.00     0.034 H 
ATOM     10  H5  <0> d          -0.250   3.682  -1.441  0.00  0.00     0.034 H 
ATOM     11  C6  <0> d           1.122   1.698   0.001  0.00  0.00    -0.106 C 
ATOM     12  H2  <0> d           1.541   3.518   1.019  0.00  0.00     0.038 H 
ATOM     13  H3  <0> d           2.038   3.490  -0.689  0.00  0.00     0.038 H 
ATOM     14  C5  <0> d          -0.013   1.076   0.008  0.00  0.00    -0.106 C 
ATOM     15  H9  <0> d           2.025   1.105  -0.019  0.00  0.00     0.076 H 
ATOM     16  C4  <0> d          -1.347   1.761   0.018  0.00  0.00    -0.046 C 
ATOM     17  H8  <0> d           0.002  -0.004   0.002  0.00  0.00     0.076 H 
ATOM     18  H6  <0> d          -1.780   1.725  -0.982  0.00  0.00     0.039 H 
ATOM     19  H7  <0> d          -2.011   1.250   0.716  0.00  0.00     0.039 H 
ATOM     20  H1  <0> d          -0.925   3.266   1.511  0.00  0.00     0.041 H 
ENDBRANCH   1   6
TORSDOF 1
