REMARK  4 active torsions:
REMARK  status: ('A' for Active; 'I' for Inactive)
REMARK    1  A    between atoms: C1_1  and  C2_2 
REMARK    2  A    between atoms: C5_5  and  C8_11 
REMARK    3  A    between atoms: C7_8  and  O1_10 
REMARK    4  A    between atoms: C8_11  and  C10_13 
ROOT
ATOM      1  C2  <0> d           0.002  -0.004   0.002  0.00  0.00    -0.059 C 
ATOM      2  C3  <0> d           0.005  -0.605  -1.145  0.00  0.00    -0.098 C 
ATOM      3  C4  <0> d           0.034  -2.096  -1.313  0.00  0.00    -0.043 C 
ATOM      4  C5  <0> d          -0.364  -2.781  -0.004  0.00  0.00    -0.028 C 
ATOM      5  H1  <0> d          -1.425  -2.623   0.185  0.00  0.00     0.047 H 
ATOM      6  C6  <0> d           0.460  -2.168   1.135  0.00  0.00    -0.030 C 
ATOM      7  C7  <0> d           0.024  -0.715   1.324  0.00  0.00     0.057 C 
ATOM      8  H2  <0> d           0.721  -0.210   1.993  0.00  0.00     0.090 H 
ATOM      9  H6  <0> d          -0.016   0.005  -2.036  0.00  0.00     0.077 H 
ATOM     10  H7  <0> d          -0.664  -2.384  -2.098  0.00  0.00     0.039 H 
ATOM     11  H8  <0> d           1.040  -2.408  -1.593  0.00  0.00     0.039 H 
ATOM     12  H9  <0> d           0.286  -2.726   2.055  0.00  0.00     0.038 H 
ATOM     13  H10 <0> d           1.519  -2.199   0.879  0.00  0.00     0.038 H 
ENDROOT
BRANCH   4  14
ATOM     14  C8  <0> d          -0.082  -4.259  -0.100  0.00  0.00    -0.089 C 
ATOM     15  C9  <0> d          -1.058  -5.122   0.033  0.00  0.00    -0.119 C 
ATOM     16  H12 <0> d          -2.065  -4.775   0.212  0.00  0.00     0.067 H 
ATOM     17  H13 <0> d          -0.856  -6.181  -0.036  0.00  0.00     0.067 H 
BRANCH  14  18
ATOM     18  C10 <0> d           1.323  -4.743  -0.349  0.00  0.00    -0.055 C 
ATOM     19  H14 <0> d           1.830  -4.894   0.604  0.00  0.00     0.033 H 
ATOM     20  H15 <0> d           1.291  -5.685  -0.897  0.00  0.00     0.033 H 
ATOM     21  H16 <0> d           1.865  -4.000  -0.935  0.00  0.00     0.033 H 
ENDBRANCH  14  18
ENDBRANCH   4  14
BRANCH   7  22
ATOM     22  O1  <0> d          -1.284  -0.688   1.898  0.00  0.00    -0.391 OA
ATOM     23  H11 <0> d          -1.626   0.202   2.057  0.00  0.00     0.210 HD
ENDBRANCH   7  22
BRANCH   1  24
ATOM     24  C1  <0> d          -0.018   1.503   0.010  0.00  0.00    -0.052 C 
ATOM     25  H3  <0> d           1.004   1.880   0.003  0.00  0.00     0.033 H 
ATOM     26  H4  <0> d          -0.545   1.864  -0.873  0.00  0.00     0.033 H 
ATOM     27  H5  <0> d          -0.529   1.854   0.907  0.00  0.00     0.033 H 
ENDBRANCH   1  24
TORSDOF 4
