REMARK  3 active torsions:
REMARK  status: ('A' for Active; 'I' for Inactive)
REMARK    1  A    between atoms: C1_1  and  C2_2 
REMARK    2  A    between atoms: C6_6  and  O1_10 
REMARK    3  A    between atoms: O1_10  and  C9_11 
ROOT
ATOM      1  C2  <0> d           0.002  -0.004   0.002  0.00  0.00    -0.038 A 
ATOM      2  C3  <0> d           0.006  -0.688  -1.195  0.00  0.00    -0.076 A 
ATOM      3  C4  <0> d           0.025  -2.072  -1.209  0.00  0.00    -0.080 A 
ATOM      4  C5  <0> d           0.040  -2.783  -0.024  0.00  0.00    -0.049 A 
ATOM      5  C6  <0> d           0.036  -2.112   1.189  0.00  0.00     0.089 A 
ATOM      6  C7  <0> d           0.023  -0.710   1.207  0.00  0.00     0.083 A 
ATOM      7  C8  <0> d           0.025  -0.006   2.454  0.00  0.00     0.103 C 
ATOM      8  N1  <0> d           0.026   0.553   3.443  0.00  0.00    -0.191 NA
ATOM      9  H4  <0> d          -0.006  -0.141  -2.127  0.00  0.00     0.084 H 
ATOM     10  H5  <0> d           0.027  -2.600  -2.151  0.00  0.00     0.083 H 
ATOM     11  H6  <0> d           0.054  -3.862  -0.043  0.00  0.00     0.087 H 
ENDROOT
BRANCH   1  12
ATOM     12  C1  <0> d          -0.018   1.503   0.010  0.00  0.00    -0.050 C 
ATOM     13  H1  <0> d           1.004   1.880   0.003  0.00  0.00     0.033 H 
ATOM     14  H2  <0> d          -0.545   1.864  -0.873  0.00  0.00     0.033 H 
ATOM     15  H3  <0> d          -0.529   1.854   0.907  0.00  0.00     0.033 H 
ENDBRANCH   1  12
BRANCH   5  16
ATOM     16  O1  <0> d           0.051  -2.808   2.353  0.00  0.00    -0.354 OA
BRANCH  16  17
ATOM     17  C9  <0> d           0.069  -4.234   2.256  0.00  0.00     0.010 C 
ATOM     18  H7  <0> d           0.079  -4.666   3.257  0.00  0.00     0.066 H 
ATOM     19  H8  <0> d          -0.819  -4.573   1.723  0.00  0.00     0.066 H 
ATOM     20  H9  <0> d           0.961  -4.550   1.715  0.00  0.00     0.066 H 
ENDBRANCH  16  17
ENDBRANCH   5  16
TORSDOF 3
