REMARK  2 active torsions:
REMARK  status: ('A' for Active; 'I' for Inactive)
REMARK    1  A    between atoms: C1_1  and  O1_2 
REMARK    2  A    between atoms: O1_2  and  C2_3 
ROOT
ATOM      1  C2  <0> d           1.137  -0.684  -0.012  0.00  0.00     0.166 A 
ATOM      2  C3  <0> d           2.358  -0.024  -0.021  0.00  0.00     0.005 A 
ATOM      3  C4  <0> d           2.374   1.363  -0.013  0.00  0.00     0.121 A 
ATOM      4  C5  <0> d           1.159   2.039   0.002  0.00  0.00    -0.029 A 
ATOM      5  C6  <0> d          -0.016   1.316   0.009  0.00  0.00     0.008 A 
ATOM      6  N1  <0> d           0.002  -0.004   0.002  0.00  0.00    -0.237 NA
ATOM      7  F1  <0> d           3.543   2.041  -0.020  0.00  0.00    -0.206 F 
ATOM      8  H4  <0> d           3.282  -0.582  -0.032  0.00  0.00     0.095 H 
ATOM      9  H5  <0> d           1.135   3.119   0.008  0.00  0.00     0.090 H 
ATOM     10  H6  <0> d          -0.962   1.836   0.017  0.00  0.00     0.115 H 
ENDROOT
BRANCH   1  11
ATOM     11  O1  <0> d           1.107  -2.041  -0.020  0.00  0.00    -0.339 OA
BRANCH  11  12
ATOM     12  C1  <0> d          -0.180  -2.661  -0.011  0.00  0.00     0.012 C 
ATOM     13  H1  <0> d          -0.739  -2.351  -0.894  0.00  0.00     0.067 H 
ATOM     14  H2  <0> d          -0.061  -3.744  -0.019  0.00  0.00     0.067 H 
ATOM     15  H3  <0> d          -0.722  -2.361   0.885  0.00  0.00     0.067 H 
ENDBRANCH  11  12
ENDBRANCH   1  11
TORSDOF 2
