REMARK  2 active torsions:
REMARK  status: ('A' for Active; 'I' for Inactive)
REMARK    1  A    between atoms: C1_1  and  C2_2 
REMARK    2  A    between atoms: C5_6  and  C7_8 
REMARK       I    between atoms: C7_8  and  N2_10 
ROOT
ATOM      1  C2  <0> d           2.376   1.367  -0.013  0.00  0.00    -0.058 A 
ATOM      2  C3  <0> d           1.163   2.039   0.002  0.00  0.00    -0.060 A 
ATOM      3  C4  <0> d          -0.016   1.311   0.009  0.00  0.00     0.004 A 
ATOM      4  N1  <0> d           0.002  -0.004   0.002  0.00  0.00    -0.256 NA
ATOM      5  C5  <0> d           1.141  -0.685  -0.013  0.00  0.00     0.124 A 
ATOM      6  C6  <0> d           2.365  -0.018  -0.020  0.00  0.00    -0.044 A 
ATOM      7  H4  <0> d           1.138   3.118   0.008  0.00  0.00     0.086 H 
ATOM      8  H5  <0> d          -0.962   1.831   0.017  0.00  0.00     0.114 H 
ATOM      9  H6  <0> d           3.291  -0.574  -0.032  0.00  0.00     0.088 H 
ENDROOT
BRANCH   5  10
ATOM     10  C7  <0> d           1.112  -2.166  -0.020  0.00  0.00     0.268 C 
ATOM     11  O1  <0> d           2.152  -2.795  -0.034  0.00  0.00    -0.266 OA
ATOM     12  N2  <0> d          -0.069  -2.817  -0.012  0.00  0.00    -0.365 N 
ATOM     13  H7  <0> d          -0.091  -3.917  -0.018  0.00  0.00     0.159 HD
ATOM     14  H8  <0> d          -1.010  -2.248  -0.000  0.00  0.00     0.159 HD
ENDBRANCH   5  10
BRANCH   1  15
ATOM     15  C1  <0> d           3.678   2.127  -0.021  0.00  0.00    -0.051 C 
ATOM     16  H1  <0> d           3.471   3.208  -0.013  0.00  0.00     0.033 H 
ATOM     17  H2  <0> d           4.247   1.869  -0.926  0.00  0.00     0.033 H 
ATOM     18  H3  <0> d           4.264   1.860   0.871  0.00  0.00     0.033 H 
ENDBRANCH   1  15
TORSDOF 2
