REMARK  5 active torsions:
REMARK  status: ('A' for Active; 'I' for Inactive)
REMARK    1  A    between atoms: C1_1  and  C2_2 
REMARK    2  A    between atoms: C2_2  and  C3_3 
REMARK    3  A    between atoms: C6_7  and  C8_11 
REMARK    4  A    between atoms: C7_9  and  O1_10 
REMARK    5  A    between atoms: C8_11  and  C9_12 
ROOT
ATOM      1  C3  <0> d          -0.729   1.579   1.267  0.00  0.00    -0.029 C 
ATOM      2  H1  <0> d          -1.780   1.292   1.235  0.00  0.00     0.043 H 
ATOM      3  C4  <0> d          -0.603   3.113   1.380  0.00  0.00    -0.059 C 
ATOM      4  C5  <0> d          -0.438   3.369   2.899  0.00  0.00    -0.059 C 
ATOM      5  C6  <0> d           0.452   2.184   3.351  0.00  0.00    -0.029 C 
ATOM      6  H2  <0> d           1.499   2.385   3.126  0.00  0.00     0.043 H 
ATOM      7  C7  <0> d          -0.059   0.989   2.520  0.00  0.00     0.042 C 
ATOM      8  H8  <0> d           0.274   3.465   0.836  0.00  0.00     0.033 H 
ATOM      9  H9  <0> d          -1.505   3.598   1.006  0.00  0.00     0.033 H 
ATOM     10  H10 <0> d          -1.404   3.340   3.402  0.00  0.00     0.033 H 
ATOM     11  H11 <0> d           0.063   4.319   3.081  0.00  0.00     0.033 H 
ATOM     12  H12 <0> d          -0.785   0.416   3.097  0.00  0.00     0.084 H 
ENDROOT
BRANCH   1  13
ATOM     13  C2  <0> d          -0.013   1.086   0.008  0.00  0.00    -0.063 C 
ATOM     14  H6  <0> d           0.002  -0.004   0.002  0.00  0.00     0.033 H 
ATOM     15  H7  <0> d           1.010   1.463   0.000  0.00  0.00     0.033 H 
BRANCH  13  16
ATOM     16  C1  <0> d          -0.753   1.593  -1.232  0.00  0.00    -0.076 C 
ATOM     17  H3  <0> d          -0.242   1.241  -2.128  0.00  0.00     0.027 H 
ATOM     18  H4  <0> d          -1.775   1.215  -1.224  0.00  0.00     0.027 H 
ATOM     19  H5  <0> d          -0.767   2.683  -1.226  0.00  0.00     0.027 H 
ENDBRANCH  13  16
ENDBRANCH   1  13
BRANCH   7  20
ATOM     20  O1  <0> d           1.035   0.151   2.142  0.00  0.00    -0.395 OA
ATOM     21  H13 <0> d           1.499  -0.251   2.889  0.00  0.00     0.210 HD
ENDBRANCH   7  20
BRANCH   5  22
ATOM     22  C8  <0> d           0.269   1.913   4.846  0.00  0.00    -0.063 C 
ATOM     23  H14 <0> d          -0.795   1.847   5.076  0.00  0.00     0.033 H 
ATOM     24  H15 <0> d           0.756   0.975   5.108  0.00  0.00     0.033 H 
BRANCH  22  25
ATOM     25  C9  <0> d           0.894   3.055   5.651  0.00  0.00    -0.076 C 
ATOM     26  H16 <0> d           0.764   2.862   6.716  0.00  0.00     0.027 H 
ATOM     27  H17 <0> d           1.957   3.121   5.421  0.00  0.00     0.027 H 
ATOM     28  H18 <0> d           0.406   3.994   5.389  0.00  0.00     0.027 H 
ENDBRANCH  22  25
ENDBRANCH   5  22
TORSDOF 5
