REMARK  3 active torsions:
REMARK  status: ('A' for Active; 'I' for Inactive)
REMARK    1  A    between atoms: C1_1  and  C2_2 
REMARK    2  A    between atoms: C2_2  and  C3_3 
REMARK    3  A    between atoms: C4_5  and  C6_8 
ROOT
ATOM      1  C3  <0> d          -0.018   1.503   0.010  0.00  0.00     0.075 A 
ATOM      2  N1  <0> d          -1.051   2.305   0.019  0.00  0.00    -0.239 NA
ATOM      3  C4  <0> d          -0.869   3.626   0.029  0.00  0.00     0.140 A 
ATOM      4  C5  <0> d           0.424   4.088   0.019  0.00  0.00    -0.009 A 
ATOM      5  S1  <0> d           1.322   2.603   0.003  0.00  0.00    -0.084 SA
ATOM      6  H6  <0> d           0.786   5.105   0.021  0.00  0.00     0.099 H 
ENDROOT
BRANCH   1   7
ATOM      7  C2  <0> d           0.002  -0.004   0.002  0.00  0.00    -0.022 C 
ATOM      8  H4  <0> d          -0.886  -0.386   0.527  0.00  0.00     0.042 H 
ATOM      9  H5  <0> d           0.910  -0.361   0.510  0.00  0.00     0.042 H 
BRANCH   7  10
ATOM     10  C1  <0> d          -0.004  -0.506  -1.443  0.00  0.00    -0.071 C 
ATOM     11  H1  <0> d           0.011  -1.606  -1.449  0.00  0.00     0.028 H 
ATOM     12  H2  <0> d           0.884  -0.125  -1.968  0.00  0.00     0.028 H 
ATOM     13  H3  <0> d          -0.912  -0.149  -1.952  0.00  0.00     0.028 H 
ENDBRANCH   7  10
ENDBRANCH   1   7
BRANCH   3  14
ATOM     14  C6  <0> d          -2.010   4.554   0.044  0.00  0.00     0.229 C 
ATOM     15  O1  <0> d          -1.817   5.755   0.049  0.00  0.00    -0.643 OA
ATOM     16  O2  <0> d          -3.269   4.074   0.054  0.00  0.00    -0.643 OA
ENDBRANCH   3  14
TORSDOF 3
