REMARK  0 active torsions:
REMARK  status: ('A' for Active; 'I' for Inactive)
ROOT
ATOM      1  C1  <0> d           1.403   1.554  -2.507  0.00  0.00    -0.064 C 
ATOM      2  C2  <0> d           2.138   1.088  -1.250  0.00  0.00    -0.063 C 
ATOM      3  C3  <0> d           1.421   1.614  -0.003  0.00  0.00    -0.040 C 
ATOM      4  C4  <0> d          -0.013   1.086   0.008  0.00  0.00     0.046 C 
ATOM      5  H1  <0> d           0.002  -0.004   0.002  0.00  0.00     0.084 H 
ATOM      6  C5  <0> d          -0.742   1.593  -1.241  0.00  0.00    -0.008 C 
ATOM      7  H2  <0> d          -0.716   2.683  -1.261  0.00  0.00     0.047 H 
ATOM      8  C6  <0> d          -0.042   1.046  -2.484  0.00  0.00    -0.058 C 
ATOM      9  C7  <0> d          -2.195   1.115  -1.186  0.00  0.00     0.028 C 
ATOM     10  O1  <0> d          -2.771   1.556   0.049  0.00  0.00    -0.366 OA
ATOM     11  C8  <0> d          -2.074   1.109   1.213  0.00  0.00     0.103 C 
ATOM     12  O2  <0> d          -0.714   1.546   1.164  0.00  0.00    -0.361 OA
ATOM     13  H3  <0> d           1.403   2.643  -2.544  0.00  0.00     0.033 H 
ATOM     14  H4  <0> d           1.911   1.163  -3.389  0.00  0.00     0.033 H 
ATOM     15  H5  <0> d           3.160   1.466  -1.266  0.00  0.00     0.033 H 
ATOM     16  H6  <0> d           2.156  -0.002  -1.224  0.00  0.00     0.033 H 
ATOM     17  H7  <0> d           1.408   2.704  -0.022  0.00  0.00     0.036 H 
ATOM     18  H8  <0> d           1.943   1.270   0.890  0.00  0.00     0.036 H 
ATOM     19  H9  <0> d          -0.563   1.389  -3.378  0.00  0.00     0.033 H 
ATOM     20  H10 <0> d          -0.045  -0.044  -2.456  0.00  0.00     0.033 H 
ATOM     21  H11 <0> d          -2.752   1.539  -2.022  0.00  0.00     0.075 H 
ATOM     22  H12 <0> d          -2.225   0.027  -1.240  0.00  0.00     0.075 H 
ATOM     23  H13 <0> d          -2.554   1.518   2.102  0.00  0.00     0.117 H 
ATOM     24  H14 <0> d          -2.103   0.020   1.256  0.00  0.00     0.117 H 
ENDROOT
TORSDOF 0
