REMARK  1 active torsions:
REMARK  status: ('A' for Active; 'I' for Inactive)
REMARK    1  A    between atoms: C1_1  and  N1_2 
ROOT
ATOM      1  N1  <0> d           0.002  -0.004   0.002  0.00  0.00    -0.300 N 
ATOM      2  C2  <0> d          -1.114  -0.835   0.003  0.00  0.00     0.084 A 
ATOM      3  C3  <0> d          -2.482  -0.603   0.011  0.00  0.00    -0.052 A 
ATOM      4  C4  <0> d          -3.333  -1.698   0.009  0.00  0.00    -0.064 A 
ATOM      5  C5  <0> d          -2.797  -2.973  -0.001  0.00  0.00     0.005 A 
ATOM      6  N2  <0> d          -1.492  -3.165  -0.009  0.00  0.00    -0.241 NA
ATOM      7  C6  <0> d          -0.642  -2.151  -0.007  0.00  0.00     0.158 A 
ATOM      8  N3  <0> d           0.745  -2.076  -0.013  0.00  0.00    -0.291 N 
ATOM      9  C7  <0> d           1.103  -0.779  -0.013  0.00  0.00     0.328 A 
ATOM     10  O1  <0> d           2.249  -0.368  -0.022  0.00  0.00    -0.246 OA
ATOM     11  H4  <0> d          -2.873   0.403   0.019  0.00  0.00     0.087 H 
ATOM     12  H5  <0> d          -4.404  -1.557   0.016  0.00  0.00     0.085 H 
ATOM     13  H6  <0> d          -3.459  -3.826  -0.002  0.00  0.00     0.114 H 
ATOM     14  H7  <0> d           1.353  -2.832  -0.020  0.00  0.00     0.172 HD
ENDROOT
BRANCH   1  15
ATOM     15  C1  <0> d          -0.018   1.461   0.010  0.00  0.00    -0.009 C 
ATOM     16  H1  <0> d           1.005   1.838   0.002  0.00  0.00     0.057 H 
ATOM     17  H2  <0> d          -0.545   1.822  -0.873  0.00  0.00     0.057 H 
ATOM     18  H3  <0> d          -0.528   1.812   0.907  0.00  0.00     0.057 H 
ENDBRANCH   1  15
TORSDOF 1
