REMARK  5 active torsions:
REMARK  status: ('A' for Active; 'I' for Inactive)
REMARK    1  A    between atoms: C1_1  and  C2_2 
REMARK    2  A    between atoms: C2_2  and  C3_3 
REMARK    3  A    between atoms: C3_3  and  C4_5 
REMARK    4  A    between atoms: C3_3  and  C6_8 
REMARK    5  A    between atoms: C4_5  and  C5_6 
ROOT
ATOM      1  C3  <0> d          -0.729   1.579   1.267  0.00  0.00     0.039 C 
ATOM      2  H1  <0> d          -1.776   1.277   1.232  0.00  0.00     0.057 H 
ENDROOT
BRANCH   1   3
ATOM      3  C2  <0> d          -0.064   0.971   2.503  0.00  0.00    -0.055 C 
ATOM      4  H5  <0> d          -0.047  -0.115   2.410  0.00  0.00     0.033 H 
ATOM      5  H6  <0> d           0.957   1.344   2.587  0.00  0.00     0.033 H 
BRANCH   3   6
ATOM      6  C1  <0> d          -0.855   1.364   3.753  0.00  0.00    -0.076 C 
ATOM      7  H2  <0> d          -0.871   2.450   3.846  0.00  0.00     0.027 H 
ATOM      8  H3  <0> d          -1.875   0.991   3.669  0.00  0.00     0.027 H 
ATOM      9  H4  <0> d          -0.381   0.931   4.634  0.00  0.00     0.027 H 
ENDBRANCH   3   6
ENDBRANCH   1   3
BRANCH   1  10
ATOM     10  C4  <0> d          -0.013   1.086   0.008  0.00  0.00     0.028 C 
ATOM     11  H7  <0> d           0.002  -0.004   0.002  0.00  0.00     0.050 H 
ATOM     12  H8  <0> d           1.010   1.463   0.000  0.00  0.00     0.050 H 
BRANCH  10  13
ATOM     13  C5  <0> d          -0.742   1.585  -1.213  0.00  0.00     0.173 C 
ATOM     14  O1  <0> d          -1.732   2.266  -1.089  0.00  0.00    -0.648 OA
ATOM     15  O3  <0> d          -0.290   1.274  -2.438  0.00  0.00    -0.648 OA
ENDBRANCH  10  13
ENDBRANCH   1  10
BRANCH   1  16
ATOM     16  C6  <0> d          -0.642   3.082   1.337  0.00  0.00     0.177 C 
ATOM     17  O2  <0> d          -0.067   3.696   0.470  0.00  0.00    -0.648 OA
ATOM     18  O4  <0> d          -1.204   3.739   2.364  0.00  0.00    -0.648 OA
ENDBRANCH   1  16
TORSDOF 5
