REMARK  3 active torsions:
REMARK  status: ('A' for Active; 'I' for Inactive)
REMARK    1  A    between atoms: C1_1  and  C2_2 
REMARK    2  A    between atoms: C2_2  and  C3_3 
REMARK    3  A    between atoms: C7_7  and  N1_9 
ROOT
ATOM      1  C3  <0> d          -0.049   3.845   0.021  0.00  0.00    -0.056 A 
ATOM      2  C4  <0> d           1.156   3.166   0.007  0.00  0.00    -0.077 A 
ATOM      3  C5  <0> d           1.174   1.783   0.000  0.00  0.00    -0.080 A 
ATOM      4  C6  <0> d          -0.013   1.076   0.008  0.00  0.00    -0.058 A 
ATOM      5  C7  <0> d          -1.224   1.755   0.017  0.00  0.00     0.026 A 
ATOM      6  C8  <0> d          -1.238   3.144   0.029  0.00  0.00    -0.052 A 
ATOM      7  H6  <0> d           2.085   3.717   0.001  0.00  0.00     0.084 H 
ATOM      8  H7  <0> d           2.116   1.256  -0.011  0.00  0.00     0.083 H 
ATOM      9  H8  <0> d           0.002  -0.004   0.002  0.00  0.00     0.086 H 
ATOM     10  H9  <0> d          -2.179   3.675   0.040  0.00  0.00     0.087 H 
ENDROOT
BRANCH   1  11
ATOM     11  C2  <0> d          -0.064   5.352   0.029  0.00  0.00    -0.044 C 
ATOM     12  H4  <0> d          -0.952   5.704   0.552  0.00  0.00     0.039 H 
ATOM     13  H5  <0> d           0.828   5.721   0.536  0.00  0.00     0.039 H 
BRANCH  11  14
ATOM     14  C1  <0> d          -0.082   5.869  -1.411  0.00  0.00    -0.073 C 
ATOM     15  H1  <0> d           0.807   5.516  -1.935  0.00  0.00     0.028 H 
ATOM     16  H2  <0> d          -0.973   5.499  -1.919  0.00  0.00     0.028 H 
ATOM     17  H3  <0> d          -0.092   6.959  -1.406  0.00  0.00     0.028 H 
ENDBRANCH  11  14
ENDBRANCH   1  11
BRANCH   5  18
ATOM     18  N1  <0> d          -2.426   1.042   0.020  0.00  0.00    -0.399 N 
ATOM     19  H10 <0> d          -2.414   0.072   0.015  0.00  0.00     0.156 HD
ATOM     20  H11 <0> d          -3.271   1.517   0.026  0.00  0.00     0.156 HD
ENDBRANCH   5  18
TORSDOF 3
