REMARK  5 active torsions:
REMARK  status: ('A' for Active; 'I' for Inactive)
REMARK    1  A    between atoms: C1_1  and  C2_2 
REMARK    2  A    between atoms: C2_2  and  C3_4 
REMARK    3  A    between atoms: C2_2  and  O2_10 
REMARK    4  A    between atoms: C3_4  and  O1_5 
REMARK    5  A    between atoms: O1_5  and  C4_6 
ROOT
ATOM      1  C2  <0> d          -0.729   1.579   1.267  0.00  0.00     0.053 C 
ATOM      2  H1  <0> d          -0.822   2.665   1.230  0.00  0.00     0.085 H 
ENDROOT
BRANCH   1   3
ATOM      3  C1  <0> d           0.079   1.179   2.503  0.00  0.00    -0.051 C 
ATOM      4  H2  <0> d           1.071   1.627   2.450  0.00  0.00     0.031 H 
ATOM      5  H3  <0> d          -0.432   1.530   3.400  0.00  0.00     0.031 H 
ATOM      6  H4  <0> d           0.172   0.093   2.540  0.00  0.00     0.031 H 
ENDBRANCH   1   3
BRANCH   1   7
ATOM      7  C3  <0> d          -0.013   1.086   0.008  0.00  0.00     0.052 C 
ATOM      8  H5  <0> d           0.002  -0.004   0.002  0.00  0.00     0.078 H 
ATOM      9  H6  <0> d           1.010   1.463   0.000  0.00  0.00     0.078 H 
BRANCH   7  10
ATOM     10  O1  <0> d          -0.704   1.559  -1.150  0.00  0.00    -0.295 OA
BRANCH  10  11
ATOM     11  C4  <0> d          -0.114   1.152  -2.386  0.00  0.00     0.524 C 
ATOM     12  F1  <0> d          -0.097  -0.245  -2.457  0.00  0.00    -0.144 F 
ATOM     13  F2  <0> d          -0.862   1.665  -3.451  0.00  0.00    -0.144 F 
ATOM     14  F3  <0> d           1.196   1.638  -2.459  0.00  0.00    -0.144 F 
ENDBRANCH  10  11
ENDBRANCH   7  10
ENDBRANCH   1   7
BRANCH   1  15
ATOM     15  O2  <0> d          -2.030   0.991   1.336  0.00  0.00    -0.394 OA
ATOM     16  H7  <0> d          -2.023   0.025   1.372  0.00  0.00     0.210 HD
ENDBRANCH   1  15
TORSDOF 5
