REMARK  5 active torsions:
REMARK  status: ('A' for Active; 'I' for Inactive)
REMARK    1  A    between atoms: C1_1  and  C2_2 
REMARK    2  A    between atoms: C2_2  and  C3_3 
REMARK    3  A    between atoms: C3_3  and  C4_5 
REMARK    4  A    between atoms: C3_3  and  C5_6 
REMARK    5  A    between atoms: C10_11  and  O1_12 
ROOT
ATOM      1  C3  <0> d          -1.433  -0.534   0.013  0.00  0.00    -0.030 C 
ATOM      2  H1  <0> d          -1.986  -0.102  -0.821  0.00  0.00     0.046 H 
ENDROOT
BRANCH   1   3
ATOM      3  C2  <0> d           0.002  -0.004   0.002  0.00  0.00    -0.061 C 
ATOM      4  H5  <0> d           0.512  -0.356  -0.895  0.00  0.00     0.033 H 
ATOM      5  H6  <0> d           0.529  -0.365   0.885  0.00  0.00     0.033 H 
BRANCH   3   6
ATOM      6  C1  <0> d          -0.019   1.526   0.010  0.00  0.00    -0.076 C 
ATOM      7  H2  <0> d           1.004   1.903   0.003  0.00  0.00     0.027 H 
ATOM      8  H3  <0> d          -0.546   1.887  -0.873  0.00  0.00     0.027 H 
ATOM      9  H4  <0> d          -0.529   1.877   0.907  0.00  0.00     0.027 H 
ENDBRANCH   3   6
ENDBRANCH   1   3
BRANCH   1  10
ATOM     10  C4  <0> d          -2.110  -0.145   1.329  0.00  0.00    -0.069 C 
ATOM     11  H7  <0> d          -2.123   0.941   1.424  0.00  0.00     0.028 H 
ATOM     12  H8  <0> d          -3.133  -0.522   1.337  0.00  0.00     0.028 H 
ATOM     13  H9  <0> d          -1.557  -0.577   2.163  0.00  0.00     0.028 H 
ENDBRANCH   1  10
BRANCH   1  14
ATOM     14  C5  <0> d          -1.416  -2.035  -0.119  0.00  0.00    -0.021 A 
ATOM     15  C10 <0> d          -2.049  -2.645  -1.192  0.00  0.00     0.072 A 
ATOM     16  C9  <0> d          -2.026  -4.027  -1.314  0.00  0.00    -0.051 A 
ATOM     17  C8  <0> d          -1.383  -4.792  -0.361  0.00  0.00    -0.080 A 
ATOM     18  H13 <0> d          -2.515  -4.503  -2.151  0.00  0.00     0.087 H 
ATOM     19  C7  <0> d          -0.757  -4.182   0.711  0.00  0.00    -0.082 A 
ATOM     20  H12 <0> d          -1.368  -5.868  -0.454  0.00  0.00     0.083 H 
ATOM     21  C6  <0> d          -0.774  -2.805   0.831  0.00  0.00    -0.074 A 
ATOM     22  H11 <0> d          -0.255  -4.782   1.454  0.00  0.00     0.083 H 
ATOM     23  H10 <0> d          -0.285  -2.331   1.669  0.00  0.00     0.084 H 
BRANCH  15  24
ATOM     24  O1  <0> d          -2.686  -1.889  -2.125  0.00  0.00    -0.360 OA
ATOM     25  H14 <0> d          -2.124  -1.621  -2.865  0.00  0.00     0.217 HD
ENDBRANCH  15  24
ENDBRANCH   1  14
TORSDOF 5
