REMARK  0 active torsions:
REMARK  status: ('A' for Active; 'I' for Inactive)
ROOT
ATOM      1  C1  <0> d          -0.016   1.361   0.009  0.00  0.00    -0.081 A 
ATOM      2  C2  <0> d           1.168   2.085   0.002  0.00  0.00    -0.080 A 
ATOM      3  C3  <0> d           2.385   1.435  -0.013  0.00  0.00    -0.048 A 
ATOM      4  C4  <0> d           2.425   0.049  -0.021  0.00  0.00     0.107 A 
ATOM      5  C5  <0> d           1.225  -0.683  -0.013  0.00  0.00     0.094 A 
ATOM      6  C6  <0> d           0.002  -0.004   0.002  0.00  0.00    -0.052 A 
ATOM      7  N1  <0> d           1.565  -1.989  -0.025  0.00  0.00    -0.212 NA
ATOM      8  C7  <0> d           2.870  -2.087  -0.038  0.00  0.00     0.254 A 
ATOM      9  O1  <0> d           3.425  -0.859  -0.037  0.00  0.00    -0.281 OA
ATOM     10  C8  <0> d           3.601  -3.318  -0.052  0.00  0.00     0.146 C 
ATOM     11  N2  <0> d           4.181  -4.295  -0.063  0.00  0.00    -0.188 NA
ATOM     12  H1  <0> d          -0.962   1.884   0.026  0.00  0.00     0.083 H 
ATOM     13  H2  <0> d           1.137   3.164   0.008  0.00  0.00     0.083 H 
ATOM     14  H3  <0> d           3.303   2.005  -0.020  0.00  0.00     0.087 H 
ATOM     15  H4  <0> d          -0.925  -0.558   0.008  0.00  0.00     0.087 H 
ENDROOT
TORSDOF 0
