REMARK  7 active torsions:
REMARK  status: ('A' for Active; 'I' for Inactive)
REMARK    1  A    between atoms: C1_1  and  C2_2 
REMARK    2  A    between atoms: C2_2  and  C3_3 
REMARK    3  A    between atoms: C3_3  and  C4_4 
REMARK    4  A    between atoms: C4_4  and  C5_5 
REMARK    5  A    between atoms: C5_5  and  C6_6 
REMARK    6  A    between atoms: C6_6  and  C7_8 
REMARK    7  A    between atoms: C6_6  and  O2_10 
ROOT
ATOM      1  C4  <0> d          -0.753   1.593  -1.232  0.00  0.00    -0.062 C 
ATOM      2  H9  <0> d          -1.775   1.215  -1.224  0.00  0.00     0.033 H 
ATOM      3  H10 <0> d          -0.767   2.683  -1.226  0.00  0.00     0.033 H 
ENDROOT
BRANCH   1   4
ATOM      4  C3  <0> d          -0.037   1.099  -2.490  0.00  0.00    -0.065 C 
ATOM      5  H7  <0> d           0.986   1.476  -2.498  0.00  0.00     0.033 H 
ATOM      6  H8  <0> d          -0.022   0.009  -2.496  0.00  0.00     0.033 H 
BRANCH   4   7
ATOM      7  C2  <0> d          -0.777   1.606  -3.730  0.00  0.00    -0.069 C 
ATOM      8  H5  <0> d          -1.799   1.229  -3.722  0.00  0.00     0.032 H 
ATOM      9  H6  <0> d          -0.791   2.696  -3.724  0.00  0.00     0.032 H 
BRANCH   7  10
ATOM     10  C1  <0> d          -0.060   1.113  -4.989  0.00  0.00    -0.077 C 
ATOM     11  H2  <0> d          -0.588   1.474  -5.872  0.00  0.00     0.027 H 
ATOM     12  H3  <0> d           0.962   1.490  -4.996  0.00  0.00     0.027 H 
ATOM     13  H4  <0> d          -0.046   0.023  -4.995  0.00  0.00     0.027 H 
ENDBRANCH   7  10
ENDBRANCH   4   7
ENDBRANCH   1   4
BRANCH   1  14
ATOM     14  C5  <0> d          -0.013   1.086   0.008  0.00  0.00    -0.032 C 
ATOM     15  H11 <0> d           0.002  -0.004   0.002  0.00  0.00     0.037 H 
ATOM     16  H12 <0> d           1.010   1.463   0.000  0.00  0.00     0.037 H 
BRANCH  14  17
ATOM     17  C6  <0> d          -0.729   1.579   1.267  0.00  0.00     0.119 C 
ATOM     18  H1  <0> d          -0.822   2.665   1.230  0.00  0.00     0.100 H 
BRANCH  17  19
ATOM     19  C7  <0> d           0.067   1.185   2.485  0.00  0.00     0.203 C 
ATOM     20  O1  <0> d          -0.396   0.401   3.280  0.00  0.00    -0.646 OA
ATOM     21  O3  <0> d           1.288   1.703   2.685  0.00  0.00    -0.646 OA
ENDBRANCH  17  19
BRANCH  17  22
ATOM     22  O2  <0> d          -2.030   0.991   1.336  0.00  0.00    -0.385 OA
ATOM     23  H13 <0> d          -2.023   0.025   1.372  0.00  0.00     0.210 HD
ENDBRANCH  17  22
ENDBRANCH  14  17
ENDBRANCH   1  14
TORSDOF 7
