REMARK  1 active torsions:
REMARK  status: ('A' for Active; 'I' for Inactive)
REMARK    1  A    between atoms: C1_1  and  C2_2 
ROOT
ATOM      1  C2  <0> d           0.002  -0.004   0.002  0.00  0.00     0.042 A 
ATOM      2  C3  <0> d           0.005  -0.679  -1.223  0.00  0.00     0.130 A 
ATOM      3  C4  <0> d           0.024  -2.049  -1.246  0.00  0.00    -0.034 A 
ATOM      4  C5  <0> d           0.040  -2.732  -0.016  0.00  0.00    -0.007 A 
ATOM      5  C6  <0> d           0.060  -4.136   0.038  0.00  0.00    -0.071 A 
ATOM      6  C7  <0> d           0.075  -4.762   1.247  0.00  0.00    -0.082 A 
ATOM      7  C8  <0> d           0.071  -4.029   2.432  0.00  0.00    -0.081 A 
ATOM      8  C9  <0> d           0.051  -2.668   2.416  0.00  0.00    -0.056 A 
ATOM      9  C10 <0> d           0.035  -1.985   1.187  0.00  0.00     0.042 A 
ATOM     10  N1  <0> d           0.022  -0.649   1.143  0.00  0.00    -0.357 N 
ATOM     11  O1  <0> d          -0.011   0.022  -2.387  0.00  0.00    -0.190 OA
ATOM     12  H4  <0> d           0.027  -2.588  -2.181  0.00  0.00     0.089 H 
ATOM     13  H5  <0> d           0.064  -4.715  -0.873  0.00  0.00     0.084 H 
ATOM     14  H6  <0> d           0.091  -5.841   1.288  0.00  0.00     0.083 H 
ATOM     15  H7  <0> d           0.082  -4.549   3.379  0.00  0.00     0.083 H 
ATOM     16  H8  <0> d           0.047  -2.115   3.344  0.00  0.00     0.086 H 
ATOM     17  H9  <0> d           0.023  -0.146   1.972  0.00  0.00     0.166 HD
ENDROOT
BRANCH   1  18
ATOM     18  C1  <0> d          -0.018   1.503   0.010  0.00  0.00    -0.035 C 
ATOM     19  H1  <0> d           1.004   1.880   0.003  0.00  0.00     0.035 H 
ATOM     20  H2  <0> d          -0.545   1.864  -0.873  0.00  0.00     0.035 H 
ATOM     21  H3  <0> d          -0.529   1.854   0.907  0.00  0.00     0.035 H 
ENDBRANCH   1  18
TORSDOF 1
