REMARK  2 active torsions:
REMARK  status: ('A' for Active; 'I' for Inactive)
REMARK    1  A    between atoms: C1_1  and  C2_2 
REMARK    2  A    between atoms: C4_4  and  C7_11 
ROOT
ATOM      1  C2  <0> d           0.002  -0.004   0.002  0.00  0.00     0.051 A 
ATOM      2  C3  <0> d          -1.203  -0.717   0.004  0.00  0.00    -0.035 A 
ATOM      3  C4  <0> d          -1.170  -2.075  -0.004  0.00  0.00     0.052 A 
ATOM      4  N1  <0> d           0.034  -2.706  -0.014  0.00  0.00    -0.063 N 
ATOM      5  C5  <0> d           1.192  -1.980  -0.015  0.00  0.00     0.751 A 
ATOM      6  N2  <0> d           1.150  -0.642  -0.012  0.00  0.00    -0.066 NA
ATOM      7  N3  <0> d           2.199  -2.846  -0.025  0.00  0.00    -0.052 NA
ATOM      8  C6  <0> d           1.725  -4.084  -0.030  0.00  0.00     0.126 A 
ATOM      9  N4  <0> d           0.413  -4.054  -0.023  0.00  0.00    -0.145 NA
ATOM     10  H4  <0> d          -2.148  -0.194   0.012  0.00  0.00     0.089 H 
ATOM     11  H5  <0> d           2.327  -4.981  -0.038  0.00  0.00     0.150 H 
ENDROOT
BRANCH   1  12
ATOM     12  C1  <0> d          -0.018   1.503   0.010  0.00  0.00    -0.035 C 
ATOM     13  H1  <0> d           1.004   1.880   0.003  0.00  0.00     0.035 H 
ATOM     14  H2  <0> d          -0.545   1.864  -0.873  0.00  0.00     0.035 H 
ATOM     15  H3  <0> d          -0.529   1.854   0.907  0.00  0.00     0.035 H 
ENDBRANCH   1  12
BRANCH   3  16
ATOM     16  C7  <0> d          -2.450  -2.870  -0.002  0.00  0.00    -0.035 C 
ATOM     17  H6  <0> d          -3.301  -2.190   0.006  0.00  0.00     0.035 H 
ATOM     18  H7  <0> d          -2.492  -3.494  -0.895  0.00  0.00     0.035 H 
ATOM     19  H8  <0> d          -2.483  -3.504   0.885  0.00  0.00     0.035 H 
ENDBRANCH   3  16
TORSDOF 2
