REMARK  3 active torsions:
REMARK  status: ('A' for Active; 'I' for Inactive)
REMARK    1  A    between atoms: C1_1  and  C2_2 
REMARK    2  A    between atoms: C2_2  and  N1_3 
REMARK    3  A    between atoms: C5_6  and  C6_8 
ROOT
ATOM      1  N1  <0> d           0.711  -0.489   1.189  0.00  0.00    -0.279 N 
ATOM      2  C3  <0> d           0.229  -1.361   2.101  0.00  0.00     0.021 A 
ATOM      3  C4  <0> d           1.188  -1.550   3.038  0.00  0.00     0.077 A 
ATOM      4  C5  <0> d           2.293  -0.768   2.685  0.00  0.00     0.074 A 
ATOM      5  N2  <0> d           2.010  -0.136   1.575  0.00  0.00    -0.176 NA
ATOM      6 Cl1  <0> d           1.067  -2.580   4.429  0.00  0.00    -0.081 Cl
ATOM      7  H6  <0> d          -0.748  -1.823   2.087  0.00  0.00     0.116 H 
ENDROOT
BRANCH   1   8
ATOM      8  C2  <0> d           0.002  -0.004   0.002  0.00  0.00     0.013 C 
ATOM      9  H4  <0> d          -1.020  -0.381   0.010  0.00  0.00     0.066 H 
ATOM     10  H5  <0> d           0.512  -0.356  -0.895  0.00  0.00     0.066 H 
BRANCH   8  11
ATOM     11  C1  <0> d          -0.019   1.526   0.010  0.00  0.00    -0.059 C 
ATOM     12  H1  <0> d           1.004   1.903   0.003  0.00  0.00     0.029 H 
ATOM     13  H2  <0> d          -0.546   1.887  -0.873  0.00  0.00     0.029 H 
ATOM     14  H3  <0> d          -0.529   1.877   0.907  0.00  0.00     0.029 H 
ENDBRANCH   8  11
ENDBRANCH   1   8
BRANCH   4  15
ATOM     15  C6  <0> d           3.589  -0.674   3.450  0.00  0.00    -0.032 C 
ATOM     16  H7  <0> d           4.280  -1.434   3.087  0.00  0.00     0.035 H 
ATOM     17  H8  <0> d           4.026   0.314   3.304  0.00  0.00     0.035 H 
ATOM     18  H9  <0> d           3.397  -0.834   4.511  0.00  0.00     0.035 H 
ENDBRANCH   4  15
TORSDOF 3
