REMARK  3 active torsions:
REMARK  status: ('A' for Active; 'I' for Inactive)
REMARK    1  A    between atoms: C1_1  and  N1_2 
REMARK    2  A    between atoms: N1_2  and  C2_3 
REMARK    3  A    between atoms: N1_2  and  C3_4 
ROOT
ATOM      1  C3  <0> d          -1.229   2.026   0.019  0.00  0.00     0.087 A 
ATOM      2  C4  <0> d          -1.242   3.416   0.032  0.00  0.00     0.140 A 
ATOM      3  C5  <0> d          -0.050   4.118   0.024  0.00  0.00    -0.044 A 
ATOM      4  C6  <0> d           1.154   3.438   0.009  0.00  0.00    -0.077 A 
ATOM      5  C7  <0> d           1.172   2.056   0.002  0.00  0.00    -0.044 A 
ATOM      6  C8  <0> d          -0.016   1.347   0.009  0.00  0.00     0.140 A 
ATOM      7  F1  <0> d           0.002  -0.004   0.002  0.00  0.00    -0.204 F 
ATOM      8  F2  <0> d          -2.418   4.081   0.046  0.00  0.00    -0.204 F 
ATOM      9  H7  <0> d          -0.060   5.198   0.029  0.00  0.00     0.088 H 
ATOM     10  H8  <0> d           2.083   3.989   0.003  0.00  0.00     0.083 H 
ATOM     11  H9  <0> d           2.114   1.528  -0.010  0.00  0.00     0.088 H 
ENDROOT
BRANCH   1  12
ATOM     12  N1  <0> d          -2.433   1.312   0.021  0.00  0.00    -0.287 NA
BRANCH  12  13
ATOM     13  C1  <0> d          -3.230   1.627   1.214  0.00  0.00    -0.029 C 
ATOM     14  H1  <0> d          -3.456   2.694   1.229  0.00  0.00     0.048 H 
ATOM     15  H2  <0> d          -4.160   1.060   1.190  0.00  0.00     0.048 H 
ATOM     16  H3  <0> d          -2.666   1.363   2.108  0.00  0.00     0.048 H 
ENDBRANCH  12  13
BRANCH  12  17
ATOM     17  C2  <0> d          -3.199   1.569  -1.206  0.00  0.00    -0.029 C 
ATOM     18  H4  <0> d          -2.612   1.262  -2.072  0.00  0.00     0.048 H 
ATOM     19  H5  <0> d          -4.130   1.002  -1.179  0.00  0.00     0.048 H 
ATOM     20  H6  <0> d          -3.424   2.633  -1.279  0.00  0.00     0.048 H 
ENDBRANCH  12  17
ENDBRANCH   1  12
TORSDOF 3
