REMARK  3 active torsions:
REMARK  status: ('A' for Active; 'I' for Inactive)
REMARK    1  A    between atoms: C1_1  and  N1_2 
REMARK    2  A    between atoms: N1_2  and  C2_3 
REMARK    3  A    between atoms: C5_7  and  N4_9 
ROOT
ATOM      1  C2  <0> d          -1.227   2.137   0.019  0.00  0.00     0.145 A 
ATOM      2  C3  <0> d          -2.432   1.433   0.016  0.00  0.00     0.001 A 
ATOM      3  C4  <0> d          -3.615   2.150   0.031  0.00  0.00     0.148 A 
ATOM      4  N2  <0> d          -3.569   3.475   0.038  0.00  0.00    -0.051 NA
ATOM      5  C5  <0> d          -2.410   4.116   0.036  0.00  0.00     0.723 A 
ATOM      6  N3  <0> d          -1.256   3.466   0.027  0.00  0.00    -0.046 NA
ATOM      7 Cl1  <0> d          -5.142   1.324   0.034  0.00  0.00    -0.062 Cl
ATOM      8  H5  <0> d          -2.441   0.353   0.005  0.00  0.00     0.094 H 
ENDROOT
BRANCH   1   9
ATOM      9  N1  <0> d          -0.018   1.461   0.010  0.00  0.00    -0.379 N 
ATOM     10  H4  <0> d           0.816   1.957   0.005  0.00  0.00     0.160 HD
BRANCH   9  11
ATOM     11  C1  <0> d           0.002  -0.004   0.002  0.00  0.00    -0.020 C 
ATOM     12  H1  <0> d           1.034  -0.353  -0.010  0.00  0.00     0.056 H 
ATOM     13  H2  <0> d          -0.498  -0.379   0.895  0.00  0.00     0.056 H 
ATOM     14  H3  <0> d          -0.515  -0.370  -0.885  0.00  0.00     0.056 H 
ENDBRANCH   9  11
ENDBRANCH   1   9
BRANCH   5  15
ATOM     15  N4  <0> d          -2.405   5.500   0.043  0.00  0.00    -0.231 N 
ATOM     16  H6  <0> d          -1.563   5.982   0.042  0.00  0.00     0.174 HD
ATOM     17  H7  <0> d          -3.243   5.988   0.050  0.00  0.00     0.174 HD
ENDBRANCH   5  15
TORSDOF 3
