REMARK  2 active torsions:
REMARK  status: ('A' for Active; 'I' for Inactive)
REMARK    1  A    between atoms: C1_1  and  C2_2 
REMARK    2  A    between atoms: C4_5  and  C8_13 
ROOT
ATOM      1  C2  <0> d           0.601  -2.716  -0.316  0.00  0.00     0.009 C 
ATOM      2  H1  <0> d           0.950  -3.714  -0.013  0.00  0.00     0.071 H 
ATOM      3  C3  <0> d          -0.646  -2.308   0.477  0.00  0.00    -0.026 C 
ATOM      4  C4  <0> d          -1.133  -0.931   0.011  0.00  0.00     0.035 C 
ATOM      5  H2  <0> d          -1.528  -0.979  -1.014  0.00  0.00     0.075 H 
ATOM      6  N1  <0> d           0.002  -0.004   0.002  0.00  0.00    -0.250 N 
ATOM      7  C5  <0> d           1.302  -0.401  -0.014  0.00  0.00     0.121 A 
ATOM      8  C6  <0> d           2.075   0.707  -0.015  0.00  0.00    -0.021 A 
ATOM      9  C7  <0> d           1.222   1.819   0.000  0.00  0.00     0.025 A 
ATOM     10  N2  <0> d          -0.017   1.390   0.010  0.00  0.00    -0.183 NA
ATOM     11  N3  <0> d           1.676  -1.746  -0.030  0.00  0.00    -0.371 N 
ATOM     12  H6  <0> d          -1.443  -3.048   0.315  0.00  0.00     0.039 H 
ATOM     13  H7  <0> d          -0.400  -2.262   1.549  0.00  0.00     0.039 H 
ATOM     14  H8  <0> d           3.155   0.732  -0.025  0.00  0.00     0.091 H 
ATOM     15  H9  <0> d           1.533   2.853   0.003  0.00  0.00     0.117 H 
ATOM     16  H10 <0> d           2.701  -2.100   0.154  0.00  0.00     0.161 HD
ENDROOT
BRANCH   1  17
ATOM     17  C1  <0> d           0.287  -2.710  -1.813  0.00  0.00    -0.057 C 
ATOM     18  H3  <0> d          -0.515  -3.434  -2.023  0.00  0.00     0.030 H 
ATOM     19  H4  <0> d           1.189  -2.988  -2.378  0.00  0.00     0.030 H 
ATOM     20  H5  <0> d          -0.039  -1.704  -2.115  0.00  0.00     0.030 H 
ENDBRANCH   1  17
BRANCH   4  21
ATOM     21  C8  <0> d          -2.208  -0.415   0.970  0.00  0.00    -0.055 C 
ATOM     22  H11 <0> d          -2.556   0.572   0.633  0.00  0.00     0.030 H 
ATOM     23  H12 <0> d          -1.786  -0.331   1.982  0.00  0.00     0.030 H 
ATOM     24  H13 <0> d          -3.054  -1.118   0.983  0.00  0.00     0.030 H 
ENDBRANCH   4  21
TORSDOF 2
