REMARK  3 active torsions:
REMARK  status: ('A' for Active; 'I' for Inactive)
REMARK    1  A    between atoms: C4_4  and  C7_7 
REMARK    2  A    between atoms: C7_7  and  C8_8 
REMARK    3  A    between atoms: C8_8  and  C9_9 
REMARK       I    between atoms: C9_9  and  N1_11 
ROOT
ATOM      1  C1  <0> d          -0.013   1.076   0.008  0.00  0.00    -0.083 A 
ATOM      2  C2  <0> d          -1.219   1.751   0.017  0.00  0.00    -0.082 A 
ATOM      3  C3  <0> d          -1.238   3.133   0.030  0.00  0.00    -0.077 A 
ATOM      4  C4  <0> d          -0.050   3.840   0.023  0.00  0.00    -0.058 A 
ATOM      5  C5  <0> d           1.156   3.165   0.008  0.00  0.00    -0.077 A 
ATOM      6  C6  <0> d           1.175   1.783   0.000  0.00  0.00    -0.082 A 
ATOM      7  H1  <0> d           0.002  -0.004   0.002  0.00  0.00     0.083 H 
ATOM      8  H2  <0> d          -2.147   1.198   0.019  0.00  0.00     0.083 H 
ATOM      9  H3  <0> d          -2.180   3.660   0.041  0.00  0.00     0.084 H 
ATOM     10  H4  <0> d           2.084   3.718   0.002  0.00  0.00     0.084 H 
ATOM     11  H5  <0> d           2.118   1.256  -0.011  0.00  0.00     0.083 H 
ENDROOT
BRANCH   4  12
ATOM     12  C7  <0> d          -0.070   5.347   0.031  0.00  0.00    -0.033 C 
ATOM     13  H6  <0> d          -0.969   5.699   0.560  0.00  0.00     0.040 H 
ATOM     14  H7  <0> d           0.828   5.723   0.543  0.00  0.00     0.040 H 
BRANCH  12  15
ATOM     15  C8  <0> d          -0.091   5.865  -1.409  0.00  0.00     0.013 C 
ATOM     16  H8  <0> d           0.807   5.513  -1.938  0.00  0.00     0.047 H 
ATOM     17  H9  <0> d          -0.989   5.489  -1.921  0.00  0.00     0.047 H 
BRANCH  15  18
ATOM     18  C9  <0> d          -0.112   7.372  -1.400  0.00  0.00     0.215 C 
ATOM     19  O1  <0> d          -0.110   7.972  -0.346  0.00  0.00    -0.274 OA
ATOM     20  N1  <0> d          -0.132   8.052  -2.563  0.00  0.00    -0.370 N 
ATOM     21  H10 <0> d          -0.147   9.152  -2.557  0.00  0.00     0.159 HD
ATOM     22  H11 <0> d          -0.134   7.507  -3.519  0.00  0.00     0.159 HD
ENDBRANCH  15  18
ENDBRANCH  12  15
ENDBRANCH   4  12
TORSDOF 3
