REMARK  4 active torsions:
REMARK  status: ('A' for Active; 'I' for Inactive)
REMARK    1  A    between atoms: C1_1  and  C2_2 
REMARK    2  A    between atoms: C2_2  and  C3_3 
REMARK    3  A    between atoms: C2_2  and  C4_4 
REMARK    4  A    between atoms: C6_7  and  N3_10 
ROOT
ATOM      1  C4  <0> d          -1.412  -0.526   0.013  0.00  0.00    -0.018 A 
ATOM      2  C5  <0> d          -2.294  -0.202  -1.006  0.00  0.00     0.029 A 
ATOM      3  N1  <0> d          -3.527  -0.679  -0.969  0.00  0.00    -0.075 NA
ATOM      4  C6  <0> d          -3.924  -1.452   0.032  0.00  0.00     0.719 A 
ATOM      5  N2  <0> d          -3.107  -1.776   1.024  0.00  0.00    -0.075 NA
ATOM      6  C7  <0> d          -1.860  -1.335   1.045  0.00  0.00     0.029 A 
ATOM      7  H8  <0> d          -1.977   0.431  -1.823  0.00  0.00     0.116 H 
ATOM      8  H9  <0> d          -1.199  -1.603   1.855  0.00  0.00     0.116 H 
ENDROOT
BRANCH   1   9
ATOM      9  C2  <0> d           0.002  -0.004   0.002  0.00  0.00    -0.033 C 
ATOM     10  H4  <0> d           0.521  -0.376   0.898  0.00  0.00     0.046 H 
BRANCH   9  11
ATOM     11  C1  <0> d          -0.019   1.526   0.010  0.00  0.00    -0.069 C 
ATOM     12  H1  <0> d          -0.534   1.881   0.915  0.00  0.00     0.028 H 
ATOM     13  H2  <0> d          -0.551   1.890  -0.881  0.00  0.00     0.028 H 
ATOM     14  H3  <0> d           1.013   1.907   0.003  0.00  0.00     0.028 H 
ENDBRANCH   9  11
BRANCH   9  15
ATOM     15  C3  <0> d           0.718  -0.497  -1.257  0.00  0.00    -0.069 C 
ATOM     16  H5  <0> d           0.733  -1.597  -1.263  0.00  0.00     0.028 H 
ATOM     17  H6  <0> d           1.750  -0.117  -1.265  0.00  0.00     0.028 H 
ATOM     18  H7  <0> d           0.186  -0.133  -2.148  0.00  0.00     0.028 H 
ENDBRANCH   9  15
ENDBRANCH   1   9
BRANCH   4  19
ATOM     19  N3  <0> d          -5.222  -1.930   0.042  0.00  0.00    -0.231 N 
ATOM     20  H10 <0> d          -5.565  -2.572   0.867  0.00  0.00     0.174 HD
ATOM     21  H11 <0> d          -5.911  -1.669  -0.774  0.00  0.00     0.174 HD
ENDBRANCH   4  19
TORSDOF 4
