REMARK  5 active torsions:
REMARK  status: ('A' for Active; 'I' for Inactive)
REMARK    1  A    between atoms: C1_1  and  C2_2 
REMARK    2  A    between atoms: C2_2  and  C3_3 
REMARK    3  A    between atoms: C2_2  and  N1_4 
REMARK    4  A    between atoms: C5_6  and  C8_11 
REMARK    5  A    between atoms: C8_11  and  O2_12 
ROOT
ATOM      1  N1  <0> d           0.186   3.293  -1.598  0.00  0.00    -0.348 N 
ATOM      2  C4  <0> d          -0.588   2.078  -1.315  0.00  0.00     0.004 C 
ATOM      3  C5  <0> d          -0.019   1.526   0.010  0.00  0.00    -0.010 C 
ATOM      4  H1  <0> d          -0.582   1.901   0.864  0.00  0.00     0.046 H 
ATOM      5  C6  <0> d           1.417   2.099  -0.000  0.00  0.00     0.016 C 
ATOM      6  C7  <0> d           1.320   3.328  -0.877  0.00  0.00     0.220 C 
ATOM      7  O1  <0> d           2.145   4.215  -0.923  0.00  0.00    -0.273 OA
ATOM      8  H9  <0> d          -0.454   1.351  -2.116  0.00  0.00     0.065 H 
ATOM      9  H10 <0> d          -1.644   2.322  -1.199  0.00  0.00     0.065 H 
ATOM     10  H11 <0> d           1.726   2.373   1.008  0.00  0.00     0.048 H 
ATOM     11  H12 <0> d           2.113   1.378  -0.430  0.00  0.00     0.048 H 
ENDROOT
BRANCH   1  12
ATOM     12  C2  <0> d          -0.225   4.333  -2.543  0.00  0.00     0.007 C 
ATOM     13  H5  <0> d          -1.180   4.060  -2.992  0.00  0.00     0.071 H 
BRANCH  12  14
ATOM     14  C1  <0> d          -0.371   5.665  -1.804  0.00  0.00    -0.057 C 
ATOM     15  H2  <0> d           0.584   5.939  -1.355  0.00  0.00     0.030 H 
ATOM     16  H3  <0> d          -0.677   6.439  -2.508  0.00  0.00     0.030 H 
ATOM     17  H4  <0> d          -1.125   5.566  -1.023  0.00  0.00     0.030 H 
ENDBRANCH  12  14
BRANCH  12  18
ATOM     18  C3  <0> d           0.833   4.473  -3.640  0.00  0.00    -0.057 C 
ATOM     19  H6  <0> d           0.937   3.524  -4.167  0.00  0.00     0.030 H 
ATOM     20  H7  <0> d           0.527   5.247  -4.344  0.00  0.00     0.030 H 
ATOM     21  H8  <0> d           1.788   4.746  -3.191  0.00  0.00     0.030 H 
ENDBRANCH  12  18
ENDBRANCH   1  12
BRANCH   3  22
ATOM     22  C8  <0> d           0.002  -0.004   0.002  0.00  0.00     0.022 C 
ATOM     23  H13 <0> d          -1.015  -0.381  -0.106  0.00  0.00     0.074 H 
ATOM     24  H14 <0> d           0.610  -0.355  -0.832  0.00  0.00     0.074 H 
BRANCH  22  25
ATOM     25  O2  <0> d           0.558  -0.480   1.229  0.00  0.00    -0.400 OA
ATOM     26  H15 <0> d           0.603  -1.444   1.294  0.00  0.00     0.209 HD
ENDBRANCH  22  25
ENDBRANCH   3  22
TORSDOF 5
