REMARK  3 active torsions:
REMARK  status: ('A' for Active; 'I' for Inactive)
REMARK    1  A    between atoms: C1_1  and  C2_2 
REMARK    2  A    between atoms: C3_5  and  S1_8 
REMARK    3  A    between atoms: S1_8  and  C4_9 
ROOT
ATOM      1  C4  <0> d          -5.030   2.422  -1.621  0.00  0.00     0.063 C 
ATOM      2  C5  <0> d          -6.420   2.760  -1.968  0.00  0.00     0.069 C 
ATOM      3  N4  <0> d          -7.493   3.020  -2.236  0.00  0.00    -0.197 NA
ATOM      4  H5  <0> d          -4.975   1.377  -1.319  0.00  0.00     0.071 H 
ATOM      5  H6  <0> d          -4.697   3.056  -0.799  0.00  0.00     0.071 H 
ENDROOT
BRANCH   1   6
ATOM      6  S1  <0> d          -3.964   2.692  -3.064  0.00  0.00    -0.076 SA
BRANCH   6   7
ATOM      7  C3  <0> d          -2.356   2.250  -2.495  0.00  0.00     0.185 A 
ATOM      8  N1  <0> d          -2.051   1.825  -1.287  0.00  0.00    -0.207 NA
ATOM      9  C2  <0> d          -0.742   1.585  -1.213  0.00  0.00     0.145 A 
ATOM     10  N3  <0> d          -0.191   1.857  -2.365  0.00  0.00    -0.158 NA
ATOM     11  N2  <0> d          -1.218   2.286  -3.221  0.00  0.00    -0.254 N 
ATOM     12  H1  <0> d          -1.127   2.558  -4.147  0.00  0.00     0.191 HD
BRANCH   9  13
ATOM     13  C1  <0> d          -0.013   1.086   0.008  0.00  0.00    -0.018 C 
ATOM     14  H2  <0> d           0.002  -0.004   0.002  0.00  0.00     0.038 H 
ATOM     15  H3  <0> d           1.010   1.463   0.000  0.00  0.00     0.038 H 
ATOM     16  H4  <0> d          -0.523   1.437   0.905  0.00  0.00     0.038 H 
ENDBRANCH   9  13
ENDBRANCH   6   7
ENDBRANCH   1   6
TORSDOF 3
