REMARK  2 active torsions:
REMARK  status: ('A' for Active; 'I' for Inactive)
REMARK    1  A    between atoms: N1_3  and  O3_10 
REMARK    2  A    between atoms: C4_5  and  C6_8 
ROOT
ATOM      1  C1  <0> d          -0.013   1.076   0.008  0.00  0.00    -0.016 A 
ATOM      2  C2  <0> d           1.142   1.772   0.001  0.00  0.00     0.011 A 
ATOM      3  N1  <0> d           1.159   3.128   0.007  0.00  0.00    -0.246 N 
ATOM      4  C3  <0> d           0.034   3.862   0.021  0.00  0.00     0.028 A 
ATOM      5  C4  <0> d          -1.202   3.245   0.030  0.00  0.00     0.108 A 
ATOM      6  C5  <0> d          -1.245   1.774   0.018  0.00  0.00     0.191 A 
ATOM      7  O1  <0> d          -2.309   1.176   0.019  0.00  0.00    -0.287 OA
ATOM      8  H1  <0> d           0.002  -0.004   0.002  0.00  0.00     0.091 H 
ATOM      9  H2  <0> d           2.079   1.236  -0.011  0.00  0.00     0.115 H 
ATOM     10  H3  <0> d           0.096   4.940   0.026  0.00  0.00     0.117 H 
ENDROOT
BRANCH   5  11
ATOM     11  C6  <0> d          -2.441   4.037   0.046  0.00  0.00     0.214 C 
ATOM     12  O2  <0> d          -3.520   3.478   0.053  0.00  0.00    -0.644 OA
ATOM     13  O4  <0> d          -2.381   5.384   0.052  0.00  0.00    -0.644 OA
ENDBRANCH   5  11
BRANCH   3  14
ATOM     14  O3  <0> d           2.408   3.795  -0.002  0.00  0.00    -0.284 OA
ATOM     15  H4  <0> d           2.747   3.985  -0.888  0.00  0.00     0.245 HD
ENDBRANCH   3  14
TORSDOF 2
