REMARK  5 active torsions:
REMARK  status: ('A' for Active; 'I' for Inactive)
REMARK    1  A    between atoms: C1_1  and  C2_2 
REMARK    2  A    between atoms: C2_2  and  O1_3 
REMARK    3  A    between atoms: O1_3  and  C3_4 
REMARK    4  A    between atoms: C3_4  and  C4_6 
REMARK    5  A    between atoms: C6_9  and  C7_11 
ROOT
ATOM      1  C4  <0> d           0.862   0.104  -0.753  0.00  0.00     0.044 A 
ATOM      2  H1  <0> d           1.259  -0.751  -0.207  0.00  0.00     0.057 H 
ATOM      3  C5  <0> d           1.401   1.488  -0.388  0.00  0.00    -0.039 A 
ATOM      4  C6  <0> d          -0.018   1.089   0.019  0.00  0.00     0.043 A 
ATOM      5  H2  <0> d          -0.200   0.881   1.074  0.00  0.00     0.058 H 
ATOM      6  H8  <0> d           1.508   2.215  -1.193  0.00  0.00     0.035 H 
ATOM      7  H9  <0> d           2.154   1.544   0.399  0.00  0.00     0.035 H 
ENDROOT
BRANCH   1   8
ATOM      8  C3  <0> d           0.519  -0.150  -2.199  0.00  0.00     0.263 C 
ATOM      9  O2  <0> d           1.088   0.462  -3.071  0.00  0.00    -0.265 OA
BRANCH   8  10
ATOM     10  O1  <0> d          -0.419  -1.056  -2.517  0.00  0.00    -0.322 OA
BRANCH  10  11
ATOM     11  C2  <0> d          -0.698  -1.248  -3.929  0.00  0.00     0.025 C 
ATOM     12  H6  <0> d          -1.039  -0.309  -4.363  0.00  0.00     0.074 H 
ATOM     13  H7  <0> d           0.209  -1.575  -4.437  0.00  0.00     0.074 H 
BRANCH  11  14
ATOM     14  C1  <0> d          -1.786  -2.311  -4.093  0.00  0.00    -0.056 C 
ATOM     15  H3  <0> d          -1.445  -3.251  -3.659  0.00  0.00     0.030 H 
ATOM     16  H4  <0> d          -2.694  -1.984  -3.585  0.00  0.00     0.030 H 
ATOM     17  H5  <0> d          -1.996  -2.456  -5.153  0.00  0.00     0.030 H 
ENDBRANCH  11  14
ENDBRANCH  10  11
ENDBRANCH   8  10
ENDBRANCH   1   8
BRANCH   4  18
ATOM     18  C7  <0> d          -1.162   1.730  -0.724  0.00  0.00     0.177 C 
ATOM     19  O3  <0> d          -1.024   2.823  -1.218  0.00  0.00    -0.648 OA
ATOM     20  O4  <0> d          -2.335   1.086  -0.835  0.00  0.00    -0.648 OA
ENDBRANCH   4  18
TORSDOF 5
