REMARK  2 active torsions:
REMARK  status: ('A' for Active; 'I' for Inactive)
REMARK    1  A    between atoms: C1_1  and  C2_2 
REMARK    2  A    between atoms: C10_11  and  N2_12 
ROOT
ATOM      1  C2  <0> d           1.140   2.106   0.003  0.00  0.00    -0.032 A 
ATOM      2  C3  <0> d          -0.017   1.388   0.010  0.00  0.00    -0.075 A 
ATOM      3  C4  <0> d           0.002  -0.004   0.002  0.00  0.00    -0.081 A 
ATOM      4  C5  <0> d           1.182  -0.686  -0.013  0.00  0.00    -0.069 A 
ATOM      5  C6  <0> d           2.391   0.022  -0.021  0.00  0.00     0.019 A 
ATOM      6  C7  <0> d           2.376   1.437  -0.013  0.00  0.00     0.074 A 
ATOM      7  N1  <0> d           3.528   2.118  -0.020  0.00  0.00    -0.260 NA
ATOM      8  C8  <0> d           4.689   1.506  -0.034  0.00  0.00     0.005 A 
ATOM      9  C9  <0> d           4.789   0.122  -0.043  0.00  0.00    -0.040 A 
ATOM     10  C10 <0> d           3.638  -0.649  -0.037  0.00  0.00     0.039 A 
ATOM     11  H4  <0> d          -0.964   1.907   0.017  0.00  0.00     0.084 H 
ATOM     12  H5  <0> d          -0.930  -0.550   0.008  0.00  0.00     0.083 H 
ATOM     13  H6  <0> d           1.185  -1.766  -0.019  0.00  0.00     0.085 H 
ATOM     14  H7  <0> d           5.593   2.098  -0.039  0.00  0.00     0.114 H 
ATOM     15  H8  <0> d           5.760  -0.352  -0.055  0.00  0.00     0.089 H 
ENDROOT
BRANCH   1  16
ATOM     16  C1  <0> d           1.096   3.612   0.011  0.00  0.00    -0.049 C 
ATOM     17  H1  <0> d           1.095   3.970   1.040  0.00  0.00     0.033 H 
ATOM     18  H2  <0> d           1.970   4.004  -0.510  0.00  0.00     0.033 H 
ATOM     19  H3  <0> d           0.191   3.952  -0.493  0.00  0.00     0.033 H 
ENDBRANCH   1  16
BRANCH  10  20
ATOM     20  N2  <0> d           3.704  -2.034  -0.046  0.00  0.00    -0.398 N 
ATOM     21  H9  <0> d           2.889  -2.559  -0.041  0.00  0.00     0.156 HD
ATOM     22  H10 <0> d           4.567  -2.478  -0.056  0.00  0.00     0.156 HD
ENDBRANCH  10  20
TORSDOF 2
