REMARK  1 active torsions:
REMARK  status: ('A' for Active; 'I' for Inactive)
REMARK    1  A    between atoms: C3_4  and  C5_8 
ROOT
ATOM      1  C1  <0> d          -2.114   1.095  -1.194  0.00  0.00     0.136 C 
ATOM      2  C2  <0> d          -2.831   1.589   0.064  0.00  0.00     0.137 C 
ATOM      3  N1  <0> d          -2.120   1.101   1.254  0.00  0.00     0.100 N 
ATOM      4  C3  <0> d          -0.730   1.580   1.267  0.00  0.00     0.249 C 
ATOM      5  H1  <0> d          -0.761   2.679   1.289  0.00  0.00     0.105 H 
ATOM      6  C4  <0> d          -0.013   1.086   0.008  0.00  0.00     0.148 C 
ATOM      7  N2  <0> d          -0.724   1.573  -1.182  0.00  0.00     0.087 N 
ATOM      8  H2  <0> d          -2.627   1.482  -2.086  0.00  0.00     0.082 H 
ATOM      9  H3  <0> d          -2.123  -0.005  -1.214  0.00  0.00     0.082 H 
ATOM     10  H4  <0> d          -2.847   2.688   0.070  0.00  0.00     0.082 H 
ATOM     11  H5  <0> d          -3.863   1.208   0.071  0.00  0.00     0.082 H 
ATOM     12  H6  <0> d          -2.627   1.466   2.160  0.00  0.00     0.316 HD
ATOM     13  H7  <0> d           1.019   1.467   0.001  0.00  0.00     0.083 H 
ATOM     14  H8  <0> d           0.003  -0.014   0.002  0.00  0.00     0.083 H 
ATOM     15  H9  <0> d          -0.203   1.209  -2.080  0.00  0.00     0.316 HD
ENDROOT
BRANCH   4  16
ATOM     16  C5  <0> d          -0.015   1.040   2.507  0.00  0.00     0.419 C 
ATOM     17  F1  <0> d           1.309   1.494   2.516  0.00  0.00    -0.169 F 
ATOM     18  F2  <0> d          -0.670   1.492   3.657  0.00  0.00    -0.169 F 
ATOM     19  F3  <0> d          -0.028  -0.358   2.481  0.00  0.00    -0.169 F 
ENDBRANCH   4  16
TORSDOF 1
