REMARK  2 active torsions:
REMARK  status: ('A' for Active; 'I' for Inactive)
REMARK    1  A    between atoms: C1_1  and  C2_2 
REMARK    2  A    between atoms: C4_4  and  C10_11 
ROOT
ATOM      1  C2  <0> d           2.395   0.034  -0.021  0.00  0.00    -0.061 A 
ATOM      2  C3  <0> d           1.206  -0.674  -0.013  0.00  0.00    -0.071 A 
ATOM      3  C4  <0> d           0.002  -0.004   0.002  0.00  0.00    -0.047 A 
ATOM      4  C5  <0> d          -0.017   1.398   0.010  0.00  0.00     0.023 A 
ATOM      5  C6  <0> d           1.185   2.104   0.002  0.00  0.00    -0.036 A 
ATOM      6  C7  <0> d           2.385   1.417  -0.014  0.00  0.00    -0.070 A 
ATOM      7  C8  <0> d           0.469   3.429   0.016  0.00  0.00     0.020 A 
ATOM      8  C9  <0> d          -0.807   2.637   0.029  0.00  0.00     0.164 A 
ATOM      9  O1  <0> d          -1.989   2.907   0.050  0.00  0.00    -0.292 OA
ATOM     10  H4  <0> d           1.222  -1.754  -0.019  0.00  0.00     0.085 H 
ATOM     11  H5  <0> d           3.318   1.962  -0.019  0.00  0.00     0.085 H 
ATOM     12  H6  <0> d           0.767   3.961   0.808  0.00  0.00     0.052 H 
ATOM     13  H7  <0> d           0.616   4.016  -0.890  0.00  0.00     0.052 H 
ENDROOT
BRANCH   1  14
ATOM     14  C1  <0> d           3.708  -0.706  -0.038  0.00  0.00    -0.051 C 
ATOM     15  H1  <0> d           4.015  -0.879  -1.069  0.00  0.00     0.033 H 
ATOM     16  H2  <0> d           4.467  -0.111   0.472  0.00  0.00     0.033 H 
ATOM     17  H3  <0> d           3.593  -1.662   0.473  0.00  0.00     0.033 H 
ENDBRANCH   1  14
BRANCH   3  18
ATOM     18  C10 <0> d          -1.292  -0.777   0.010  0.00  0.00    -0.050 C 
ATOM     19  H8  <0> d          -1.613  -0.958  -1.016  0.00  0.00     0.033 H 
ATOM     20  H9  <0> d          -1.143  -1.730   0.517  0.00  0.00     0.033 H 
ATOM     21  H10 <0> d          -2.055  -0.202   0.534  0.00  0.00     0.033 H 
ENDBRANCH   3  18
TORSDOF 2
