REMARK  4 active torsions:
REMARK  status: ('A' for Active; 'I' for Inactive)
REMARK    1  A    between atoms: C1_1  and  O1_2 
REMARK    2  A    between atoms: O1_2  and  C2_3 
REMARK    3  A    between atoms: C2_3  and  C3_4 
REMARK    4  A    between atoms: C4_6  and  N3_9 
ROOT
ATOM      1  C3  <0> d          -1.156  -2.103   0.002  0.00  0.00     0.213 A 
ATOM      2  N1  <0> d          -1.081  -2.868   1.054  0.00  0.00    -0.036 NA
ATOM      3  C4  <0> d          -0.963  -4.153   0.682  0.00  0.00     0.745 A 
ATOM      4  N2  <0> d          -0.963  -4.213  -0.626  0.00  0.00     0.070 NA
ATOM      5  O2  <0> d          -1.094  -2.877  -1.089  0.00  0.00    -0.180 OA
ENDROOT
BRANCH   1   6
ATOM      6  C2  <0> d          -1.295  -0.603   0.011  0.00  0.00     0.082 C 
ATOM      7  H4  <0> d          -1.832  -0.294   0.908  0.00  0.00     0.087 H 
ATOM      8  H5  <0> d          -1.849  -0.284  -0.872  0.00  0.00     0.087 H 
BRANCH   6   9
ATOM      9  O1  <0> d           0.002  -0.004   0.002  0.00  0.00    -0.388 OA
BRANCH   9  10
ATOM     10  C1  <0> d          -0.017   1.425   0.010  0.00  0.00     0.004 C 
ATOM     11  H1  <0> d           1.005   1.802   0.002  0.00  0.00     0.066 H 
ATOM     12  H2  <0> d          -0.544   1.786  -0.873  0.00  0.00     0.066 H 
ATOM     13  H3  <0> d          -0.527   1.776   0.907  0.00  0.00     0.066 H 
ENDBRANCH   9  10
ENDBRANCH   6   9
ENDBRANCH   1   6
BRANCH   3  14
ATOM     14  N3  <0> d          -0.859  -5.239   1.541  0.00  0.00    -0.229 N 
ATOM     15  H6  <0> d          -0.867  -5.100   2.501  0.00  0.00     0.174 HD
ATOM     16  H7  <0> d          -0.777  -6.136   1.182  0.00  0.00     0.174 HD
ENDBRANCH   3  14
TORSDOF 4
