REMARK  1 active torsions:
REMARK  status: ('A' for Active; 'I' for Inactive)
REMARK    1  A    between atoms: C1_1  and  C2_2 
ROOT
ATOM      1  C2  <0> d           2.284   1.441  -0.012  0.00  0.00     0.038 A 
ATOM      2  C3  <0> d           2.352   0.056  -0.020  0.00  0.00    -0.021 A 
ATOM      3  C4  <0> d           1.157  -0.667  -0.013  0.00  0.00     0.143 A 
ATOM      4  N1  <0> d           0.002  -0.004   0.002  0.00  0.00    -0.194 NA
ATOM      5  C5  <0> d          -0.016   1.317   0.009  0.00  0.00     0.301 A 
ATOM      6  N2  <0> d           1.100   2.029   0.003  0.00  0.00    -0.210 NA
ATOM      7  O1  <0> d          -1.208   1.960   0.018  0.00  0.00    -0.147 OA
ATOM      8  C6  <0> d           1.174  -2.099  -0.020  0.00  0.00     0.120 C 
ATOM      9  N3  <0> d           1.187  -3.235  -0.026  0.00  0.00    -0.190 NA
ATOM     10  H4  <0> d           3.306  -0.451  -0.032  0.00  0.00     0.091 H 
ENDROOT
BRANCH   1  11
ATOM     11  C1  <0> d           3.545   2.265  -0.019  0.00  0.00    -0.035 C 
ATOM     12  H1  <0> d           4.420   1.598  -0.031  0.00  0.00     0.035 H 
ATOM     13  H2  <0> d           3.577   2.895   0.882  0.00  0.00     0.035 H 
ATOM     14  H3  <0> d           3.560   2.905  -0.914  0.00  0.00     0.035 H 
ENDBRANCH   1  11
TORSDOF 1
