REMARK  1 active torsions:
REMARK  status: ('A' for Active; 'I' for Inactive)
REMARK    1  A    between atoms: C1_1  and  N1_2 
ROOT
ATOM      1  N1  <0> d          -2.521   1.868   0.246  0.00  0.00    -0.313 N 
ATOM      2  C2  <0> d          -1.134   1.804   0.016  0.00  0.00     0.121 C 
ATOM      3  H1  <0> d          -1.087   2.222  -0.989  0.00  0.00     0.113 H 
ATOM      4  C3  <0> d          -0.613   3.012   0.893  0.00  0.00     0.120 C 
ATOM      5  H2  <0> d          -0.550   2.796   1.960  0.00  0.00     0.113 H 
ATOM      6  N2  <0> d           0.698   3.110   0.259  0.00  0.00    -0.318 N 
ATOM      7  C4  <0> d           1.066   1.816   0.002  0.00  0.00     0.319 C 
ATOM      8  O1  <0> d           2.211   1.463  -0.206  0.00  0.00    -0.247 OA
ATOM      9  N3  <0> d          -0.011   0.966   0.007  0.00  0.00    -0.318 N 
ATOM     10  N4  <0> d          -1.678   3.953   0.572  0.00  0.00    -0.318 N 
ATOM     11  C5  <0> d          -2.806   3.201   0.409  0.00  0.00     0.321 C 
ATOM     12  O2  <0> d          -3.933   3.658   0.408  0.00  0.00    -0.247 OA
ATOM     13  H6  <0> d           1.199   3.917   0.062  0.00  0.00     0.166 HD
ATOM     14  H7  <0> d           0.002  -0.004   0.002  0.00  0.00     0.166 HD
ATOM     15  H8  <0> d          -1.601   4.916   0.489  0.00  0.00     0.166 HD
ENDROOT
BRANCH   1  16
ATOM     16  C1  <0> d          -3.454   0.742   0.312  0.00  0.00    -0.012 C 
ATOM     17  H3  <0> d          -4.458   1.113   0.517  0.00  0.00     0.056 H 
ATOM     18  H4  <0> d          -3.450   0.210  -0.640  0.00  0.00     0.056 H 
ATOM     19  H5  <0> d          -3.149   0.062   1.108  0.00  0.00     0.056 H 
ENDBRANCH   1  16
TORSDOF 1
