REMARK  2 active torsions:
REMARK  status: ('A' for Active; 'I' for Inactive)
REMARK    1  A    between atoms: C4_4  and  C7_7 
REMARK    2  A    between atoms: C7_7  and  C8_8 
ROOT
ATOM      1  C7  <0> d           3.711  -0.707  -0.038  0.00  0.00    -0.035 C 
ATOM      2  H7  <0> d           3.588  -1.659  -0.555  0.00  0.00     0.041 H 
ATOM      3  H8  <0> d           4.457  -0.105  -0.556  0.00  0.00     0.041 H 
ENDROOT
BRANCH   1   4
ATOM      4  C4  <0> d           2.396   0.029  -0.020  0.00  0.00    -0.058 A 
ATOM      5  C3  <0> d           2.377   1.411  -0.013  0.00  0.00    -0.077 A 
ATOM      6  C2  <0> d           1.171   2.086   0.002  0.00  0.00    -0.082 A 
ATOM      7  H4  <0> d           3.305   1.963  -0.020  0.00  0.00     0.084 H 
ATOM      8  C1  <0> d          -0.017   1.378   0.010  0.00  0.00    -0.083 A 
ATOM      9  H3  <0> d           1.156   3.165   0.008  0.00  0.00     0.083 H 
ATOM     10  C6  <0> d           0.002  -0.004   0.002  0.00  0.00    -0.082 A 
ATOM     11  H2  <0> d          -0.959   1.905   0.026  0.00  0.00     0.083 H 
ATOM     12  C5  <0> d           1.208  -0.679  -0.012  0.00  0.00    -0.077 A 
ATOM     13  H6  <0> d          -0.926  -0.557   0.008  0.00  0.00     0.083 H 
ATOM     14  H5  <0> d           1.223  -1.759  -0.018  0.00  0.00     0.084 H 
ENDBRANCH   1   4
BRANCH   1  15
ATOM     15  C8  <0> d           4.171  -0.963   1.399  0.00  0.00    -0.034 C 
ATOM     16  H1  <0> d           3.392  -1.478   1.961  0.00  0.00     0.046 H 
ATOM     17  C12 <0> d           4.536   0.338   2.075  0.00  0.00    -0.102 C 
ATOM     18  C11 <0> d           5.660   0.225   2.732  0.00  0.00    -0.106 C 
ATOM     19  H14 <0> d           3.946   1.241   2.020  0.00  0.00     0.076 H 
ATOM     20  C10 <0> d           6.228  -1.169   2.606  0.00  0.00    -0.049 C 
ATOM     21  H13 <0> d           6.121   1.024   3.294  0.00  0.00     0.076 H 
ATOM     22  C9  <0> d           5.477  -1.792   1.407  0.00  0.00    -0.056 C 
ATOM     23  H11 <0> d           6.034  -1.741   3.514  0.00  0.00     0.038 H 
ATOM     24  H12 <0> d           7.298  -1.127   2.404  0.00  0.00     0.038 H 
ATOM     25  H9  <0> d           5.269  -2.848   1.581  0.00  0.00     0.034 H 
ATOM     26  H10 <0> d           6.034  -1.653   0.481  0.00  0.00     0.034 H 
ENDBRANCH   1  15
TORSDOF 2
