REMARK  1 active torsions:
REMARK  status: ('A' for Active; 'I' for Inactive)
REMARK    1  A    between atoms: C3_3  and  N3_9 
ROOT
ATOM      1  C1  <0> d          -0.016   1.360   0.009  0.00  0.00     0.023 A 
ATOM      2  C2  <0> d           1.157   2.038   0.002  0.00  0.00     0.177 A 
ATOM      3  C3  <0> d           2.366   1.311  -0.013  0.00  0.00     0.167 A 
ATOM      4  N1  <0> d           2.333  -0.015  -0.020  0.00  0.00    -0.174 NA
ATOM      5  C4  <0> d           1.173  -0.668  -0.013  0.00  0.00     0.347 A 
ATOM      6  O1  <0> d           1.170  -1.888  -0.019  0.00  0.00    -0.245 OA
ATOM      7  N2  <0> d           0.002  -0.004   0.002  0.00  0.00    -0.314 N 
ATOM      8  H1  <0> d          -0.833  -0.498   0.008  0.00  0.00     0.170 HD
ATOM      9  F1  <0> d           1.169   3.389   0.009  0.00  0.00    -0.201 F 
ATOM     10  H2  <0> d          -0.955   1.894   0.026  0.00  0.00     0.116 H 
ENDROOT
BRANCH   3  11
ATOM     11  N3  <0> d           3.572   1.973  -0.022  0.00  0.00    -0.381 N 
ATOM     12  H3  <0> d           3.593   2.943  -0.017  0.00  0.00     0.157 HD
ATOM     13  H4  <0> d           4.402   1.470  -0.033  0.00  0.00     0.157 HD
ENDBRANCH   3  11
TORSDOF 1
