REMARK  3 active torsions:
REMARK  status: ('A' for Active; 'I' for Inactive)
REMARK    1  A    between atoms: C1_1  and  O1_2 
REMARK    2  A    between atoms: O1_2  and  C2_3 
REMARK    3  A    between atoms: C4_5  and  N1_10 
ROOT
ATOM      1  C2  <0> d          -3.631   1.618   0.029  0.00  0.00     0.092 A 
ATOM      2  C3  <0> d          -2.424   0.939   0.019  0.00  0.00    -0.024 A 
ATOM      3  C4  <0> d          -1.231   1.648   0.017  0.00  0.00     0.028 A 
ATOM      4  C5  <0> d          -1.250   3.037   0.030  0.00  0.00    -0.056 A 
ATOM      5  C6  <0> d          -2.456   3.712   0.035  0.00  0.00    -0.057 A 
ATOM      6  C7  <0> d          -3.645   3.007   0.037  0.00  0.00     0.067 A 
ATOM      7 Cl1  <0> d          -5.158   3.858   0.049  0.00  0.00    -0.081 Cl
ATOM      8  H4  <0> d          -2.411  -0.141   0.013  0.00  0.00     0.091 H 
ATOM      9  H5  <0> d          -0.323   3.590   0.033  0.00  0.00     0.087 H 
ATOM     10  H6  <0> d          -2.469   4.792   0.042  0.00  0.00     0.086 H 
ENDROOT
BRANCH   1  11
ATOM     11  O1  <0> d          -4.801   0.926   0.030  0.00  0.00    -0.354 OA
BRANCH  11  12
ATOM     12  C1  <0> d          -4.711  -0.500   0.021  0.00  0.00     0.010 C 
ATOM     13  H1  <0> d          -5.714  -0.927   0.023  0.00  0.00     0.066 H 
ATOM     14  H2  <0> d          -4.180  -0.825  -0.874  0.00  0.00     0.066 H 
ATOM     15  H3  <0> d          -4.171  -0.836   0.906  0.00  0.00     0.066 H 
ENDBRANCH  11  12
ENDBRANCH   1  11
BRANCH   3  16
ATOM     16  N1  <0> d          -0.011   0.966   0.007  0.00  0.00    -0.399 N 
ATOM     17  H7  <0> d           0.002  -0.004   0.002  0.00  0.00     0.156 HD
ATOM     18  H8  <0> d           0.822   1.462   0.002  0.00  0.00     0.156 HD
ENDBRANCH   3  16
TORSDOF 3
