REMARK  2 active torsions:
REMARK  status: ('A' for Active; 'I' for Inactive)
REMARK    1  A    between atoms: C1_1  and  C2_2 
REMARK    2  A    between atoms: C2_2  and  C3_3 
ROOT
ATOM      1  C3  <0> d           1.203  -0.683  -0.011  0.00  0.00    -0.032 A 
ATOM      2  C4  <0> d           0.002  -0.004   0.002  0.00  0.00    -0.075 A 
ATOM      3  C5  <0> d          -0.017   1.378   0.010  0.00  0.00    -0.082 A 
ATOM      4  C6  <0> d           1.173   2.084   0.002  0.00  0.00    -0.075 A 
ATOM      5  C7  <0> d           2.376   1.410  -0.013  0.00  0.00    -0.030 A 
ATOM      6  C8  <0> d           2.406   0.020  -0.016  0.00  0.00     0.040 A 
ATOM      7  N1  <0> d           3.724  -0.452  -0.016  0.00  0.00    -0.389 N 
ATOM      8  C9  <0> d           4.603   0.653  -0.458  0.00  0.00    -0.004 C 
ATOM      9  C10 <0> d           3.808   1.908  -0.031  0.00  0.00    -0.024 C 
ATOM     10  H6  <0> d          -0.927  -0.555   0.006  0.00  0.00     0.084 H 
ATOM     11  H7  <0> d          -0.959   1.907   0.017  0.00  0.00     0.083 H 
ATOM     12  H8  <0> d           1.160   3.164   0.008  0.00  0.00     0.084 H 
ATOM     13  H9  <0> d           4.157  -1.430   0.240  0.00  0.00     0.159 HD
ATOM     14  H10 <0> d           5.576   0.572   0.049  0.00  0.00     0.064 H 
ATOM     15  H11 <0> d           4.750   0.591  -1.546  0.00  0.00     0.064 H 
ATOM     16  H12 <0> d           3.900   2.734  -0.752  0.00  0.00     0.042 H 
ATOM     17  H13 <0> d           4.084   2.265   0.972  0.00  0.00     0.042 H 
ENDROOT
BRANCH   1  18
ATOM     18  C2  <0> d           1.214  -2.190  -0.019  0.00  0.00    -0.042 C 
ATOM     19  H4  <0> d           2.062  -2.547  -0.622  0.00  0.00     0.039 H 
ATOM     20  H5  <0> d           0.273  -2.561  -0.452  0.00  0.00     0.039 H 
BRANCH  18  21
ATOM     21  C1  <0> d           1.354  -2.707   1.415  0.00  0.00    -0.073 C 
ATOM     22  H1  <0> d           1.362  -3.807   1.409  0.00  0.00     0.028 H 
ATOM     23  H2  <0> d           0.506  -2.349   2.018  0.00  0.00     0.028 H 
ATOM     24  H3  <0> d           2.294  -2.336   1.848  0.00  0.00     0.028 H 
ENDBRANCH  18  21
ENDBRANCH   1  18
TORSDOF 2
