REMARK  4 active torsions:
REMARK  status: ('A' for Active; 'I' for Inactive)
REMARK    1  A    between atoms: C1_1  and  C2_2 
REMARK    2  A    between atoms: C2_2  and  C3_3 
REMARK    3  A    between atoms: C3_3  and  C6_7 
REMARK    4  A    between atoms: C6_7  and  O2_8 
ROOT
ATOM      1  C3  <0> d          -0.973   1.702  -1.027  0.00  0.00     0.024 C 
ATOM      2  C4  <0> d          -0.013   1.086   0.008  0.00  0.00     0.030 C 
ATOM      3  O1  <0> d          -0.893   1.652   1.000  0.00  0.00    -0.389 OA
ATOM      4  C5  <0> d          -1.387   2.667   0.100  0.00  0.00     0.030 C 
ATOM      5  H6  <0> d           0.002  -0.004   0.002  0.00  0.00     0.075 H 
ATOM      6  H7  <0> d           0.985   1.526   0.001  0.00  0.00     0.075 H 
ATOM      7  H8  <0> d          -0.810   3.592   0.122  0.00  0.00     0.075 H 
ATOM      8  H9  <0> d          -2.462   2.834   0.165  0.00  0.00     0.075 H 
ENDROOT
BRANCH   1   9
ATOM      9  C2  <0> d          -0.264   2.386  -2.197  0.00  0.00    -0.056 C 
ATOM     10  H4  <0> d           0.365   3.192  -1.820  0.00  0.00     0.033 H 
ATOM     11  H5  <0> d           0.354   1.658  -2.723  0.00  0.00     0.033 H 
BRANCH   9  12
ATOM     12  C1  <0> d          -1.306   2.959  -3.160  0.00  0.00    -0.076 C 
ATOM     13  H1  <0> d          -1.924   3.687  -2.634  0.00  0.00     0.027 H 
ATOM     14  H2  <0> d          -0.801   3.447  -3.994  0.00  0.00     0.027 H 
ATOM     15  H3  <0> d          -1.935   2.153  -3.537  0.00  0.00     0.027 H 
ENDBRANCH   9  12
ENDBRANCH   1   9
BRANCH   1  16
ATOM     16  C6  <0> d          -2.089   0.755  -1.474  0.00  0.00     0.028 C 
ATOM     17  H10 <0> d          -2.819   1.308  -2.066  0.00  0.00     0.075 H 
ATOM     18  H11 <0> d          -1.665  -0.047  -2.078  0.00  0.00     0.075 H 
BRANCH  16  19
ATOM     19  O2  <0> d          -2.731   0.199  -0.325  0.00  0.00    -0.400 OA
ATOM     20  H12 <0> d          -3.450  -0.412  -0.534  0.00  0.00     0.209 HD
ENDBRANCH  16  19
ENDBRANCH   1  16
TORSDOF 4
