REMARK  4 active torsions:
REMARK  status: ('A' for Active; 'I' for Inactive)
REMARK    1  A    between atoms: C1_1  and  C2_2 
REMARK    2  A    between atoms: C2_2  and  C10_11 
REMARK    3  A    between atoms: C3_3  and  C4_4 
REMARK    4  A    between atoms: C7_7  and  O1_10 
ROOT
ATOM      1  C4  <0> d           1.563  -0.768   0.473  0.00  0.00    -0.036 A 
ATOM      2  C5  <0> d           0.481   0.105   0.597  0.00  0.00    -0.070 A 
ATOM      3  C6  <0> d           0.698   1.423   0.939  0.00  0.00    -0.050 A 
ATOM      4  C7  <0> d           1.989   1.882   1.162  0.00  0.00     0.065 A 
ATOM      5  C8  <0> d           3.068   1.016   1.040  0.00  0.00    -0.050 A 
ATOM      6  C9  <0> d           2.860  -0.303   0.698  0.00  0.00    -0.070 A 
ATOM      7  H5  <0> d          -0.524  -0.250   0.424  0.00  0.00     0.084 H 
ATOM      8  H6  <0> d          -0.138   2.101   1.031  0.00  0.00     0.087 H 
ATOM      9  H7  <0> d           4.071   1.376   1.214  0.00  0.00     0.087 H 
ATOM     10  H8  <0> d           3.699  -0.977   0.604  0.00  0.00     0.084 H 
ENDROOT
BRANCH   1  11
ATOM     11  C3  <0> d           1.335  -2.181   0.107  0.00  0.00    -0.071 C 
ATOM     12  C2  <0> d           2.191  -2.805  -0.692  0.00  0.00    -0.087 C 
ATOM     13  H4  <0> d           0.473  -2.707   0.489  0.00  0.00     0.085 H 
BRANCH  12  14
ATOM     14  C1  <0> d           3.304  -2.034  -1.353  0.00  0.00    -0.055 C 
ATOM     15  H1  <0> d           4.166  -1.997  -0.687  0.00  0.00     0.033 H 
ATOM     16  H2  <0> d           3.585  -2.527  -2.284  0.00  0.00     0.033 H 
ATOM     17  H3  <0> d           2.966  -1.020  -1.567  0.00  0.00     0.033 H 
ENDBRANCH  12  14
BRANCH  12  18
ATOM     18  C10 <0> d           2.049  -4.285  -0.939  0.00  0.00    -0.055 C 
ATOM     19  H10 <0> d           1.194  -4.666  -0.381  0.00  0.00     0.033 H 
ATOM     20  H11 <0> d           1.897  -4.463  -2.003  0.00  0.00     0.033 H 
ATOM     21  H12 <0> d           2.955  -4.796  -0.611  0.00  0.00     0.033 H 
ENDBRANCH  12  18
ENDBRANCH   1  11
BRANCH   4  22
ATOM     22  O1  <0> d           2.198   3.181   1.499  0.00  0.00    -0.361 OA
ATOM     23  H9  <0> d           2.186   3.347   2.451  0.00  0.00     0.217 HD
ENDBRANCH   4  22
TORSDOF 4
