REMARK  3 active torsions:
REMARK  status: ('A' for Active; 'I' for Inactive)
REMARK    1  A    between atoms: C2_2  and  O3_9 
REMARK    2  A    between atoms: C4_4  and  O2_8 
REMARK    3  A    between atoms: C6_6  and  O1_7 
ROOT
ATOM      1  C1  <0> d          -0.013   1.086   0.008  0.00  0.00    -0.017 C 
ATOM      2  C2  <0> d          -0.729   1.579   1.267  0.00  0.00     0.040 C 
ATOM      3  C3  <0> d          -0.750   3.109   1.275  0.00  0.00    -0.017 C 
ATOM      4  C4  <0> d          -1.490   3.616   0.036  0.00  0.00     0.040 C 
ATOM      5  C5  <0> d          -0.773   3.123  -1.223  0.00  0.00    -0.017 C 
ATOM      6  C6  <0> d          -0.753   1.593  -1.232  0.00  0.00     0.040 C 
ATOM      7  H1  <0> d           0.002  -0.014   0.002  0.00  0.00     0.040 H 
ATOM      8  H2  <0> d           1.019   1.466   0.000  0.00  0.00     0.040 H 
ATOM      9  H3  <0> d          -0.255   1.182   2.177  0.00  0.00     0.083 H 
ATOM     10  H4  <0> d          -1.264   3.464   2.180  0.00  0.00     0.040 H 
ATOM     11  H5  <0> d           0.282   3.490   1.267  0.00  0.00     0.040 H 
ATOM     12  H6  <0> d          -2.544   3.301   0.044  0.00  0.00     0.083 H 
ATOM     13  H7  <0> d          -1.305   3.487  -2.114  0.00  0.00     0.040 H 
ATOM     14  H8  <0> d           0.259   3.503  -1.231  0.00  0.00     0.040 H 
ATOM     15  H9  <0> d          -1.771   1.180  -1.284  0.00  0.00     0.083 H 
ENDROOT
BRANCH   2  16
ATOM     16  O3  <0> d          -2.070   1.085   1.277  0.00  0.00    -0.395 OA
ATOM     17  H12 <0> d          -2.742   1.337   2.110  0.00  0.00     0.210 HD
ENDBRANCH   2  16
BRANCH   6  18
ATOM     18  O1  <0> d          -0.084   1.132  -2.407  0.00  0.00    -0.395 OA
ATOM     19  H10 <0> d          -0.473   1.398  -3.401  0.00  0.00     0.210 HD
ENDBRANCH   6  18
BRANCH   4  20
ATOM     20  O2  <0> d          -1.509   5.045   0.044  0.00  0.00    -0.395 OA
ATOM     21  H11 <0> d          -2.001   5.593  -0.774  0.00  0.00     0.210 HD
ENDBRANCH   4  20
TORSDOF 3
