REMARK  3 active torsions:
REMARK  status: ('A' for Active; 'I' for Inactive)
REMARK    1  A    between atoms: C1_1  and  C2_2 
REMARK    2  A    between atoms: C2_2  and  N1_3 
REMARK    3  A    between atoms: N1_3  and  C3_4 
ROOT
ATOM      1  C3  <0> d          -1.231   1.648   0.017  0.00  0.00     0.031 A 
ATOM      2  C4  <0> d          -1.251   3.037   0.030  0.00  0.00    -0.054 A 
ATOM      3  C5  <0> d          -2.457   3.711   0.034  0.00  0.00    -0.041 A 
ATOM      4  C6  <0> d          -3.647   3.003   0.036  0.00  0.00     0.154 A 
ATOM      5  C7  <0> d          -3.631   1.616   0.029  0.00  0.00     0.157 A 
ATOM      6  C8  <0> d          -2.425   0.939   0.019  0.00  0.00    -0.017 A 
ATOM      7  F1  <0> d          -4.793   0.927   0.030  0.00  0.00    -0.203 F 
ATOM      8  F2  <0> d          -4.825   3.664   0.045  0.00  0.00    -0.203 F 
ATOM      9  H7  <0> d          -0.324   3.590   0.033  0.00  0.00     0.087 H 
ATOM     10  H8  <0> d          -2.472   4.790   0.040  0.00  0.00     0.088 H 
ATOM     11  H9  <0> d          -2.411  -0.141   0.013  0.00  0.00     0.091 H 
ENDROOT
BRANCH   1  12
ATOM     12  N1  <0> d          -0.011   0.966   0.007  0.00  0.00    -0.390 N 
ATOM     13  H6  <0> d           0.004  -0.134   0.006  0.00  0.00     0.159 HD
BRANCH  12  14
ATOM     14  C2  <0> d           1.248   1.716  -0.001  0.00  0.00    -0.011 C 
ATOM     15  H4  <0> d           1.306   2.344   0.900  0.00  0.00     0.063 H 
ATOM     16  H5  <0> d           1.289   2.353  -0.896  0.00  0.00     0.063 H 
BRANCH  14  17
ATOM     17  C1  <0> d           2.424   0.737  -0.017  0.00  0.00    -0.061 C 
ATOM     18  H1  <0> d           3.369   1.300  -0.023  0.00  0.00     0.029 H 
ATOM     19  H2  <0> d           2.365   0.109  -0.918  0.00  0.00     0.029 H 
ATOM     20  H3  <0> d           2.383   0.099   0.878  0.00  0.00     0.029 H 
ENDBRANCH  14  17
ENDBRANCH  12  14
ENDBRANCH   1  12
TORSDOF 3
