REMARK  9 active torsions:
REMARK  status: ('A' for Active; 'I' for Inactive)
REMARK    1  A    between atoms: C1_1  and  C2_2 
REMARK    2  A    between atoms: C2_2  and  C3_3 
REMARK    3  A    between atoms: C3_3  and  C4_4 
REMARK    4  A    between atoms: C4_4  and  C5_5 
REMARK    5  A    between atoms: C5_5  and  C6_7 
REMARK    6  A    between atoms: C5_5  and  O2_12 
REMARK    7  A    between atoms: C6_7  and  C7_8 
REMARK    8  A    between atoms: C7_8  and  C8_10 
REMARK    9  A    between atoms: C7_8  and  O1_11 
ROOT
ATOM      1  C5  <0> d           0.011   1.072   2.506  0.00  0.00     0.038 C 
ATOM      2  H1  <0> d           1.057   1.375   2.454  0.00  0.00     0.083 H 
ENDROOT
BRANCH   1   3
ATOM      3  C4  <0> d          -0.729   1.579   1.267  0.00  0.00    -0.041 C 
ATOM      4  H10 <0> d          -0.744   2.669   1.273  0.00  0.00     0.036 H 
ATOM      5  H11 <0> d          -1.751   1.202   1.275  0.00  0.00     0.036 H 
BRANCH   3   6
ATOM      6  C3  <0> d          -0.013   1.086   0.008  0.00  0.00    -0.063 C 
ATOM      7  H8  <0> d           0.002  -0.004   0.002  0.00  0.00     0.033 H 
ATOM      8  H9  <0> d           1.010   1.463   0.000  0.00  0.00     0.033 H 
BRANCH   6   9
ATOM      9  C2  <0> d          -0.753   1.593  -1.232  0.00  0.00    -0.068 C 
ATOM     10  H6  <0> d          -1.775   1.215  -1.224  0.00  0.00     0.032 H 
ATOM     11  H7  <0> d          -0.767   2.683  -1.226  0.00  0.00     0.032 H 
BRANCH   9  12
ATOM     12  C1  <0> d          -0.037   1.099  -2.490  0.00  0.00    -0.077 C 
ATOM     13  H3  <0> d           0.986   1.476  -2.498  0.00  0.00     0.027 H 
ATOM     14  H4  <0> d          -0.022   0.009  -2.496  0.00  0.00     0.027 H 
ATOM     15  H5  <0> d          -0.564   1.460  -3.373  0.00  0.00     0.027 H 
ENDBRANCH   9  12
ENDBRANCH   6   9
ENDBRANCH   3   6
ENDBRANCH   1   3
BRANCH   1  16
ATOM     16  C6  <0> d          -0.630   1.667   3.762  0.00  0.00    -0.018 C 
ATOM     17  H12 <0> d          -0.648   2.754   3.681  0.00  0.00     0.040 H 
ATOM     18  H13 <0> d          -1.649   1.293   3.861  0.00  0.00     0.040 H 
BRANCH  16  19
ATOM     19  C7  <0> d           0.184   1.261   4.992  0.00  0.00     0.034 C 
ATOM     20  H2  <0> d           1.224   1.557   4.853  0.00  0.00     0.082 H 
BRANCH  19  21
ATOM     21  C8  <0> d          -0.383   1.956   6.231  0.00  0.00    -0.052 C 
ATOM     22  H14 <0> d          -1.422   1.660   6.370  0.00  0.00     0.030 H 
ATOM     23  H15 <0> d           0.198   1.667   7.107  0.00  0.00     0.030 H 
ATOM     24  H16 <0> d          -0.327   3.037   6.099  0.00  0.00     0.030 H 
ENDBRANCH  19  21
BRANCH  19  25
ATOM     25  O1  <0> d           0.112  -0.156   5.165  0.00  0.00    -0.396 OA
ATOM     26  H17 <0> d          -0.786  -0.491   5.294  0.00  0.00     0.210 HD
ENDBRANCH  19  25
ENDBRANCH  16  19
ENDBRANCH   1  16
BRANCH   1  27
ATOM     27  O2  <0> d          -0.070  -0.353   2.560  0.00  0.00    -0.395 OA
ATOM     28  H18 <0> d          -0.973  -0.695   2.607  0.00  0.00     0.210 HD
ENDBRANCH   1  27
TORSDOF 9
