REMARK  2 active torsions:
REMARK  status: ('A' for Active; 'I' for Inactive)
REMARK    1  A    between atoms: N2_4  and  C3_6 
REMARK    2  A    between atoms: C3_6  and  O1_7 
ROOT
ATOM      1  C1  <0> d          -1.209   1.910   3.301  0.00  0.00     0.107 A 
ATOM      2  N1  <0> d          -2.101   2.522   2.523  0.00  0.00    -0.234 NA
ATOM      3  C2  <0> d          -1.806   2.319   1.265  0.00  0.00     0.086 A 
ATOM      4  N2  <0> d          -0.698   1.558   1.213  0.00  0.00    -0.239 N 
ATOM      5  N3  <0> d          -0.333   1.301   2.545  0.00  0.00    -0.163 NA
ATOM      6  H1  <0> d          -1.212   1.912   4.381  0.00  0.00     0.149 H 
ATOM      7  H2  <0> d          -2.355   2.697   0.415  0.00  0.00     0.146 H 
ENDROOT
BRANCH   4   8
ATOM      8  C3  <0> d          -0.013   1.086   0.008  0.00  0.00     0.098 C 
ATOM      9  H3  <0> d           0.002  -0.004   0.002  0.00  0.00     0.109 H 
ATOM     10  H4  <0> d           1.010   1.463   0.000  0.00  0.00     0.109 H 
BRANCH   8  11
ATOM     11  O1  <0> d          -0.704   1.559  -1.150  0.00  0.00    -0.380 OA
ATOM     12  H5  <0> d          -0.304   1.284  -1.986  0.00  0.00     0.211 HD
ENDBRANCH   8  11
ENDBRANCH   4   8
TORSDOF 2
