REMARK  0 active torsions:
REMARK  status: ('A' for Active; 'I' for Inactive)
ROOT
ATOM      1  C1  <0> d          -5.197   3.001   0.065  0.00  0.00    -0.082 A 
ATOM      2  C2  <0> d          -5.264   4.382   0.078  0.00  0.00    -0.081 A 
ATOM      3  C3  <0> d          -4.108   5.132   0.073  0.00  0.00    -0.057 A 
ATOM      4  C4  <0> d          -2.861   4.506   0.056  0.00  0.00     0.035 A 
ATOM      5  C5  <0> d          -2.804   3.118   0.044  0.00  0.00    -0.021 A 
ATOM      6  C6  <0> d          -3.966   2.372   0.048  0.00  0.00    -0.074 A 
ATOM      7  C7  <0> d          -1.356   2.711   0.028  0.00  0.00     0.005 A 
ATOM      8  C8  <0> d          -0.959   1.695  -1.043  0.00  0.00    -0.052 C 
ATOM      9  C9  <0> d          -0.013   1.086   0.008  0.00  0.00    -0.063 C 
ATOM     10  C10 <0> d          -0.938   1.683   1.083  0.00  0.00    -0.052 C 
ATOM     11  C11 <0> d          -0.564   4.019   0.029  0.00  0.00     0.004 A 
ATOM     12  N1  <0> d          -1.585   5.074   0.048  0.00  0.00    -0.388 N 
ATOM     13  H1  <0> d          -6.104   2.415   0.069  0.00  0.00     0.083 H 
ATOM     14  H2  <0> d          -6.225   4.874   0.093  0.00  0.00     0.083 H 
ATOM     15  H3  <0> d          -4.168   6.211   0.084  0.00  0.00     0.086 H 
ATOM     16  H4  <0> d          -3.913   1.293   0.038  0.00  0.00     0.084 H 
ATOM     17  H5  <0> d          -0.441   2.136  -1.894  0.00  0.00     0.034 H 
ATOM     18  H6  <0> d          -1.771   1.030  -1.338  0.00  0.00     0.034 H 
ATOM     19  H7  <0> d           0.002  -0.004   0.002  0.00  0.00     0.033 H 
ATOM     20  H8  <0> d           0.986   1.522   0.001  0.00  0.00     0.033 H 
ATOM     21  H9  <0> d          -1.745   1.016   1.386  0.00  0.00     0.034 H 
ATOM     22  H10 <0> d          -0.404   2.116   1.929  0.00  0.00     0.034 H 
ATOM     23  H11 <0> d           0.064   4.082   0.918  0.00  0.00     0.065 H 
ATOM     24  H12 <0> d           0.044   4.096  -0.872  0.00  0.00     0.065 H 
ATOM     25  H13 <0> d          -1.400   6.027   0.054  0.00  0.00     0.159 HD
ENDROOT
TORSDOF 0
