REMARK  5 active torsions:
REMARK  status: ('A' for Active; 'I' for Inactive)
REMARK    1  A    between atoms: C1_1  and  C2_2 
REMARK    2  A    between atoms: C2_2  and  C3_3 
REMARK    3  A    between atoms: C5_5  and  C10_11 
REMARK    4  A    between atoms: C7_7  and  C8_9 
REMARK    5  A    between atoms: C8_9  and  C9_10 
ROOT
ATOM      1  C3  <0> d           1.199   2.047   0.002  0.00  0.00     0.053 A 
ATOM      2  C4  <0> d          -0.017   1.390   0.010  0.00  0.00    -0.049 A 
ATOM      3  C5  <0> d           0.002  -0.004   0.002  0.00  0.00    -0.057 A 
ATOM      4  C6  <0> d           1.265  -0.595  -0.013  0.00  0.00    -0.049 A 
ATOM      5  C7  <0> d           2.364   0.243  -0.019  0.00  0.00     0.053 A 
ATOM      6  O1  <0> d           2.248   1.446  -0.012  0.00  0.00    -0.319 OA
ATOM      7  H6  <0> d          -0.948   1.937   0.017  0.00  0.00     0.088 H 
ATOM      8  H7  <0> d           1.379  -1.669  -0.020  0.00  0.00     0.088 H 
ENDROOT
BRANCH   1   9
ATOM      9  C2  <0> d           1.218   3.554   0.009  0.00  0.00    -0.024 C 
ATOM     10  H4  <0> d           2.034   3.880  -0.468  0.00  0.00     0.042 H 
ATOM     11  H5  <0> d           0.328   3.931  -0.494  0.00  0.00     0.042 H 
BRANCH   9  12
ATOM     12  C1  <0> d           1.238   4.056   1.455  0.00  0.00    -0.071 C 
ATOM     13  H1  <0> d           1.252   5.146   1.460  0.00  0.00     0.028 H 
ATOM     14  H2  <0> d           0.348   3.701   1.975  0.00  0.00     0.028 H 
ATOM     15  H3  <0> d           2.128   3.679   1.958  0.00  0.00     0.028 H 
ENDBRANCH   9  12
ENDBRANCH   1   9
BRANCH   5  16
ATOM     16  C8  <0> d           3.745  -0.360  -0.036  0.00  0.00    -0.024 C 
ATOM     17  H8  <0> d           4.439   0.307   0.475  0.00  0.00     0.042 H 
ATOM     18  H9  <0> d           3.726  -1.324   0.472  0.00  0.00     0.042 H 
BRANCH  16  19
ATOM     19  C9  <0> d           4.198  -0.556  -1.484  0.00  0.00    -0.071 C 
ATOM     20  H10 <0> d           3.504  -1.224  -1.995  0.00  0.00     0.028 H 
ATOM     21  H11 <0> d           4.216   0.407  -1.993  0.00  0.00     0.028 H 
ATOM     22  H12 <0> d           5.197  -0.993  -1.496  0.00  0.00     0.028 H 
ENDBRANCH  16  19
ENDBRANCH   5  16
BRANCH   3  23
ATOM     23  C10 <0> d          -1.264  -0.822   0.010  0.00  0.00    -0.051 C 
ATOM     24  H13 <0> d          -1.579  -1.013  -1.015  0.00  0.00     0.033 H 
ATOM     25  H14 <0> d          -1.081  -1.769   0.517  0.00  0.00     0.033 H 
ATOM     26  H15 <0> d          -2.047  -0.274   0.535  0.00  0.00     0.033 H 
ENDBRANCH   3  23
TORSDOF 5
