REMARK  5 active torsions:
REMARK  status: ('A' for Active; 'I' for Inactive)
REMARK    1  A    between atoms: C1_1  and  C2_2 
REMARK    2  A    between atoms: C2_2  and  C3_3 
REMARK    3  A    between atoms: C3_3  and  C4_4 
REMARK    4  A    between atoms: C8_9  and  C9_10 
REMARK    5  A    between atoms: C9_10  and  O1_11 
ROOT
ATOM      1  C4  <0> d          -1.188   3.148   0.031  0.00  0.00    -0.031 A 
ATOM      2  C5  <0> d          -1.217   1.761   0.017  0.00  0.00    -0.073 A 
ATOM      3  C6  <0> d          -0.013   1.076   0.008  0.00  0.00    -0.066 A 
ATOM      4  C7  <0> d           1.170   1.792   0.001  0.00  0.00     0.003 A 
ATOM      5  N1  <0> d           1.160   3.110   0.007  0.00  0.00    -0.263 NA
ATOM      6  C8  <0> d           0.033   3.795   0.022  0.00  0.00     0.064 A 
ATOM      7  H8  <0> d          -2.157   1.228   0.019  0.00  0.00     0.084 H 
ATOM      8  H9  <0> d           0.002  -0.004   0.002  0.00  0.00     0.085 H 
ATOM      9  H10 <0> d           2.113   1.265  -0.011  0.00  0.00     0.114 H 
ENDROOT
BRANCH   1  10
ATOM     10  C3  <0> d          -2.471   3.938   0.048  0.00  0.00    -0.039 C 
ATOM     11  H6  <0> d          -2.331   4.851   0.647  0.00  0.00     0.040 H 
ATOM     12  H7  <0> d          -3.272   3.328   0.492  0.00  0.00     0.040 H 
BRANCH  10  13
ATOM     13  C2  <0> d          -2.854   4.321  -1.383  0.00  0.00    -0.065 C 
ATOM     14  H4  <0> d          -2.993   3.408  -1.981  0.00  0.00     0.032 H 
ATOM     15  H5  <0> d          -2.053   4.931  -1.826  0.00  0.00     0.032 H 
BRANCH  13  16
ATOM     16  C1  <0> d          -4.156   5.123  -1.365  0.00  0.00    -0.076 C 
ATOM     17  H1  <0> d          -4.432   5.398  -2.394  0.00  0.00     0.027 H 
ATOM     18  H2  <0> d          -4.017   6.035  -0.766  0.00  0.00     0.027 H 
ATOM     19  H3  <0> d          -4.957   4.513  -0.922  0.00  0.00     0.027 H 
ENDBRANCH  13  16
ENDBRANCH  10  13
ENDBRANCH   1  10
BRANCH   6  20
ATOM     20  C9  <0> d           0.077   5.302   0.029  0.00  0.00     0.057 C 
ATOM     21  H11 <0> d          -0.805   5.692   0.558  0.00  0.00     0.083 H 
ATOM     22  H12 <0> d           0.990   5.639   0.540  0.00  0.00     0.083 H 
BRANCH  20  23
ATOM     23  O1  <0> d           0.078   5.785  -1.316  0.00  0.00    -0.395 OA
ATOM     24  H13 <0> d           0.107   6.867  -1.512  0.00  0.00     0.209 HD
ENDBRANCH  20  23
ENDBRANCH   6  20
TORSDOF 5
