REMARK  3 active torsions:
REMARK  status: ('A' for Active; 'I' for Inactive)
REMARK    1  A    between atoms: C1_1  and  C2_2 
REMARK    2  A    between atoms: C5_7  and  O1_9 
REMARK    3  A    between atoms: O1_9  and  C7_10 
ROOT
ATOM      1  C2  <0> d          -0.556   1.492   1.363  0.00  0.00    -0.059 A 
ATOM      2  C3  <0> d          -1.613   2.280   1.581  0.00  0.00     0.006 A 
ATOM      3  N1  <0> d          -2.420   2.878   0.672  0.00  0.00    -0.254 NA
ATOM      4  C4  <0> d          -2.417   2.874  -0.627  0.00  0.00     0.088 A 
ATOM      5  N2  <0> d          -1.621   2.280  -1.526  0.00  0.00    -0.222 NA
ATOM      6  C5  <0> d          -0.582   1.506  -1.331  0.00  0.00     0.144 A 
ATOM      7  C6  <0> d          -0.013   1.086   0.008  0.00  0.00     0.018 A 
ATOM      8  H4  <0> d          -1.856   2.463   2.617  0.00  0.00     0.115 H 
ATOM      9  H5  <0> d          -3.209   3.462  -1.067  0.00  0.00     0.146 H 
ATOM     10  H6  <0> d           0.002  -0.004   0.002  0.00  0.00     0.052 H 
ATOM     11  H7  <0> d           1.035   1.386  -0.000  0.00  0.00     0.052 H 
ENDROOT
BRANCH   6  12
ATOM     12  O1  <0> d           0.041   1.040  -2.429  0.00  0.00    -0.342 OA
BRANCH  12  13
ATOM     13  C7  <0> d          -0.501   1.441  -3.715  0.00  0.00     0.012 C 
ATOM     14  H8  <0> d          -0.470   2.527  -3.800  0.00  0.00     0.067 H 
ATOM     15  H9  <0> d           0.093   0.997  -4.514  0.00  0.00     0.067 H 
ATOM     16  H10 <0> d          -1.533   1.100  -3.796  0.00  0.00     0.067 H 
ENDBRANCH  12  13
ENDBRANCH   6  12
BRANCH   1  17
ATOM     17  C1  <0> d           0.161   0.960   2.577  0.00  0.00    -0.053 C 
ATOM     18  H1  <0> d           0.948   1.655   2.869  0.00  0.00     0.033 H 
ATOM     19  H2  <0> d          -0.548   0.848   3.398  0.00  0.00     0.033 H 
ATOM     20  H3  <0> d           0.602  -0.009   2.342  0.00  0.00     0.033 H 
ENDBRANCH   1  17
TORSDOF 3
