REMARK  5 active torsions:
REMARK  status: ('A' for Active; 'I' for Inactive)
REMARK    1  A    between atoms: C1_1  and  C2_2 
REMARK    2  A    between atoms: C2_2  and  C3_4 
REMARK    3  A    between atoms: C2_2  and  O2_10 
REMARK    4  A    between atoms: C3_4  and  O1_5 
REMARK    5  A    between atoms: O1_5  and  C4_6 
ROOT
ATOM      1  C2  <0> d          -0.013   1.086   0.008  0.00  0.00     0.053 C 
ATOM      2  H1  <0> d           0.002  -0.004   0.002  0.00  0.00     0.085 H 
ENDROOT
BRANCH   1   3
ATOM      3  C1  <0> d          -0.729   1.579   1.267  0.00  0.00    -0.051 C 
ATOM      4  H2  <0> d          -0.744   2.669   1.273  0.00  0.00     0.031 H 
ATOM      5  H3  <0> d          -1.751   1.202   1.275  0.00  0.00     0.031 H 
ATOM      6  H4  <0> d          -0.202   1.218   2.150  0.00  0.00     0.031 H 
ENDBRANCH   1   3
BRANCH   1   7
ATOM      7  C3  <0> d           1.423   1.615  -0.003  0.00  0.00     0.052 C 
ATOM      8  H5  <0> d           1.408   2.702  -0.086  0.00  0.00     0.078 H 
ATOM      9  H6  <0> d           1.923   1.329   0.922  0.00  0.00     0.078 H 
BRANCH   7  10
ATOM     10  O1  <0> d           2.126   1.061  -1.116  0.00  0.00    -0.295 OA
BRANCH  10  11
ATOM     11  C4  <0> d           3.484   1.494  -1.219  0.00  0.00     0.524 C 
ATOM     12  F1  <0> d           4.181   1.123  -0.064  0.00  0.00    -0.144 F 
ATOM     13  F2  <0> d           4.081   0.897  -2.336  0.00  0.00    -0.144 F 
ATOM     14  F3  <0> d           3.521   2.886  -1.359  0.00  0.00    -0.144 F 
ENDBRANCH  10  11
ENDBRANCH   7  10
ENDBRANCH   1   7
BRANCH   1  15
ATOM     15  O2  <0> d          -0.704   1.559  -1.150  0.00  0.00    -0.394 OA
ATOM     16  H7  <0> d          -0.756   2.523  -1.210  0.00  0.00     0.210 HD
ENDBRANCH   1  15
TORSDOF 5
