REMARK  1 active torsions:
REMARK  status: ('A' for Active; 'I' for Inactive)
REMARK    1  A    between atoms: C2_2  and  C4_7 
ROOT
ATOM      1  C1  <0> d          -0.018   1.438   0.010  0.00  0.00     0.049 C 
ATOM      2  C2  <0> d           1.486   1.809  -0.002  0.00  0.00     0.088 C 
ATOM      3  H1  <0> d           1.907   1.769   1.003  0.00  0.00     0.090 H 
ATOM      4  O1  <0> d           2.040   0.764  -0.838  0.00  0.00    -0.357 OA
ATOM      5  C3  <0> d           1.277  -0.410  -0.513  0.00  0.00     0.103 C 
ATOM      6  O2  <0> d           0.002  -0.004   0.002  0.00  0.00    -0.364 OA
ATOM      7  H3  <0> d          -0.516   1.821  -0.880  0.00  0.00     0.078 H 
ATOM      8  H4  <0> d          -0.499   1.811   0.914  0.00  0.00     0.078 H 
ATOM      9  H5  <0> d           1.807  -0.994   0.240  0.00  0.00     0.117 H 
ATOM     10  H6  <0> d           1.135  -1.012  -1.410  0.00  0.00     0.117 H 
ENDROOT
BRANCH   2  11
ATOM     11  C4  <0> d           1.706   3.186  -0.631  0.00  0.00     0.088 C 
ATOM     12  H2  <0> d           1.211   3.956  -0.038  0.00  0.00     0.090 H 
ATOM     13  O4  <0> d           1.215   3.203  -1.988  0.00  0.00    -0.357 OA
ATOM     14  C6  <0> d           2.164   4.018  -2.708  0.00  0.00     0.103 C 
ATOM     15  O3  <0> d           3.450   3.649  -2.164  0.00  0.00    -0.364 OA
ATOM     16  H9  <0> d           1.966   5.076  -2.534  0.00  0.00     0.117 H 
ATOM     17  H10 <0> d           2.125   3.796  -3.775  0.00  0.00     0.117 H 
ATOM     18  C5  <0> d           3.213   3.488  -0.750  0.00  0.00     0.049 C 
ATOM     19  H7  <0> d           3.459   4.406  -0.217  0.00  0.00     0.078 H 
ATOM     20  H8  <0> d           3.798   2.654  -0.361  0.00  0.00     0.078 H 
ENDBRANCH   2  11
TORSDOF 1
