REMARK  1 active torsions:
REMARK  status: ('A' for Active; 'I' for Inactive)
REMARK    1  A    between atoms: C5_6  and  C6_8 
ROOT
ATOM      1  C1  <0> d           1.370  -0.519  -0.451  0.00  0.00    -0.035 C 
ATOM      2  C2  <0> d           0.002  -0.004   0.002  0.00  0.00     0.015 C 
ATOM      3  N1  <0> d          -0.018   1.452   0.010  0.00  0.00    -0.306 NA
ATOM      4  C3  <0> d           1.003   2.193   0.004  0.00  0.00    -0.023 C 
ATOM      5  C4  <0> d           2.417   1.691  -0.026  0.00  0.00    -0.022 C 
ATOM      6  C5  <0> d           2.453   0.209   0.357  0.00  0.00     0.036 C 
ATOM      7  H1  <0> d           2.285   0.084   1.438  0.00  0.00     0.057 H 
ATOM      8  H2  <0> d           1.513  -0.316  -1.522  0.00  0.00     0.036 H 
ATOM      9  H3  <0> d           1.443  -1.602  -0.270  0.00  0.00     0.036 H 
ATOM     10  H4  <0> d          -0.773  -0.368  -0.688  0.00  0.00     0.067 H 
ATOM     11  H5  <0> d          -0.210  -0.370   1.018  0.00  0.00     0.067 H 
ATOM     12  H6  <0> d           0.889   3.287   0.022  0.00  0.00     0.107 H 
ATOM     13  H7  <0> d           2.829   1.814  -1.038  0.00  0.00     0.042 H 
ATOM     14  H8  <0> d           3.025   2.265   0.689  0.00  0.00     0.042 H 
ENDROOT
BRANCH   6  15
ATOM     15  C6  <0> d           3.805  -0.370   0.032  0.00  0.00     0.177 C 
ATOM     16  O1  <0> d           3.900  -1.273  -0.765  0.00  0.00    -0.648 OA
ATOM     17  O2  <0> d           4.905   0.118   0.627  0.00  0.00    -0.648 OA
ENDBRANCH   6  15
TORSDOF 1
