REMARK  1 active torsions:
REMARK  status: ('A' for Active; 'I' for Inactive)
REMARK    1  A    between atoms: C1_1  and  C2_2 
ROOT
ATOM      1  C2  <0> d          -0.017   1.384   0.010  0.00  0.00    -0.061 A 
ATOM      2  C3  <0> d           0.002  -0.004   0.002  0.00  0.00    -0.075 A 
ATOM      3  C4  <0> d           1.170  -0.702  -0.013  0.00  0.00    -0.053 A 
ATOM      4  C5  <0> d           2.412  -0.029  -0.022  0.00  0.00     0.074 A 
ATOM      5  C6  <0> d           2.362   1.383  -0.013  0.00  0.00     0.035 A 
ATOM      6  C7  <0> d           1.178   2.079   0.002  0.00  0.00    -0.058 A 
ATOM      7  S1  <0> d           4.084   1.816  -0.028  0.00  0.00    -0.081 SA
ATOM      8  C8  <0> d           4.726   0.203  -0.044  0.00  0.00     0.041 A 
ATOM      9  N1  <0> d           3.659  -0.545  -0.038  0.00  0.00    -0.253 NA
ATOM     10  H4  <0> d          -0.934  -0.543   0.008  0.00  0.00     0.084 H 
ATOM     11  H5  <0> d           1.147  -1.782  -0.019  0.00  0.00     0.087 H 
ATOM     12  H6  <0> d           1.180   3.159   0.007  0.00  0.00     0.086 H 
ATOM     13  H7  <0> d           5.761  -0.106  -0.057  0.00  0.00     0.126 H 
ENDROOT
BRANCH   1  14
ATOM     14  C1  <0> d          -1.328   2.126   0.020  0.00  0.00    -0.051 C 
ATOM     15  H1  <0> d          -1.639   2.300   1.050  0.00  0.00     0.033 H 
ATOM     16  H2  <0> d          -1.208   3.082  -0.489  0.00  0.00     0.033 H 
ATOM     17  H3  <0> d          -2.085   1.533  -0.494  0.00  0.00     0.033 H 
ENDBRANCH   1  14
TORSDOF 1
