REMARK  5 active torsions:
REMARK  status: ('A' for Active; 'I' for Inactive)
REMARK    1  A    between atoms: C1_1  and  C2_2 
REMARK    2  A    between atoms: C2_2  and  C3_3 
REMARK    3  A    between atoms: C2_2  and  C4_4 
REMARK    4  A    between atoms: C2_2  and  C5_5 
REMARK    5  A    between atoms: C7_9  and  N4_11 
ROOT
ATOM      1  C2  <0> d           0.002  -0.004   0.002  0.00  0.00    -0.004 C 
ENDROOT
BRANCH   1   2
ATOM      2  C1  <0> d          -0.019   1.526   0.010  0.00  0.00    -0.064 C 
ATOM      3  H1  <0> d           1.004   1.903   0.003  0.00  0.00     0.028 H 
ATOM      4  H2  <0> d          -0.546   1.887  -0.873  0.00  0.00     0.028 H 
ATOM      5  H3  <0> d          -0.529   1.877   0.907  0.00  0.00     0.028 H 
ENDBRANCH   1   2
BRANCH   1   6
ATOM      6  C3  <0> d           0.742  -0.511   1.242  0.00  0.00    -0.064 C 
ATOM      7  H4  <0> d           0.232  -0.159   2.138  0.00  0.00     0.028 H 
ATOM      8  H5  <0> d           0.757  -1.601   1.236  0.00  0.00     0.028 H 
ATOM      9  H6  <0> d           1.765  -0.134   1.234  0.00  0.00     0.028 H 
ENDBRANCH   1   6
BRANCH   1  10
ATOM     10  C4  <0> d          -1.433  -0.534   0.013  0.00  0.00    -0.064 C 
ATOM     11  H7  <0> d          -1.960  -0.173  -0.870  0.00  0.00     0.028 H 
ATOM     12  H8  <0> d          -1.419  -1.623   0.007  0.00  0.00     0.028 H 
ATOM     13  H9  <0> d          -1.944  -0.182   0.910  0.00  0.00     0.028 H 
ENDBRANCH   1  10
BRANCH   1  14
ATOM     14  C5  <0> d           0.707  -0.490  -1.238  0.00  0.00     0.080 A 
ATOM     15  N3  <0> d           0.020  -0.997  -2.249  0.00  0.00    -0.064 NA
ATOM     16  C7  <0> d           0.663  -1.413  -3.333  0.00  0.00     0.739 A 
ATOM     17  N2  <0> d           1.986  -1.336  -3.406  0.00  0.00     0.043 NA
ATOM     18  N1  <0> d           2.682  -0.853  -2.436  0.00  0.00    -0.144 NA
ATOM     19  C6  <0> d           2.090  -0.420  -1.337  0.00  0.00     0.049 A 
ATOM     20  H10 <0> d           2.675  -0.015  -0.525  0.00  0.00     0.120 H 
BRANCH  16  21
ATOM     21  N4  <0> d          -0.052  -1.937  -4.395  0.00  0.00    -0.230 N 
ATOM     22  H11 <0> d           0.414  -2.247  -5.188  0.00  0.00     0.174 HD
ATOM     23  H12 <0> d          -1.019  -1.996  -4.347  0.00  0.00     0.174 HD
ENDBRANCH  16  21
ENDBRANCH   1  14
TORSDOF 5
