REMARK  2 active torsions:
REMARK  status: ('A' for Active; 'I' for Inactive)
REMARK    1  A    between atoms: C1_1  and  N1_2 
REMARK    2  A    between atoms: C4_5  and  O1_11 
ROOT
ATOM      1  N1  <0> d           2.091   0.730  -0.014  0.00  0.00    -0.274 N 
ATOM      2  C2  <0> d           1.328   1.869  -0.001  0.00  0.00     0.066 A 
ATOM      3  C3  <0> d           1.628   3.229   0.004  0.00  0.00    -0.023 A 
ATOM      4  C4  <0> d           0.604   4.154   0.019  0.00  0.00     0.068 A 
ATOM      5  C5  <0> d          -0.727   3.739   0.029  0.00  0.00    -0.050 A 
ATOM      6  C6  <0> d          -1.040   2.412   0.030  0.00  0.00    -0.067 A 
ATOM      7  C7  <0> d          -0.018   1.456   0.010  0.00  0.00     0.011 A 
ATOM      8  C8  <0> d           0.002  -0.004   0.002  0.00  0.00     0.034 A 
ATOM      9  N2  <0> d           1.247  -0.385  -0.012  0.00  0.00    -0.184 NA
ATOM     10  H4  <0> d           2.657   3.558  -0.004  0.00  0.00     0.091 H 
ATOM     11  H5  <0> d          -1.518   4.475   0.041  0.00  0.00     0.087 H 
ATOM     12  H6  <0> d          -2.073   2.099   0.042  0.00  0.00     0.085 H 
ATOM     13  H7  <0> d          -0.862  -0.652   0.006  0.00  0.00     0.118 H 
ENDROOT
BRANCH   1  14
ATOM     14  C1  <0> d           3.555   0.688  -0.029  0.00  0.00     0.003 C 
ATOM     15  H1  <0> d           3.908   0.683  -1.060  0.00  0.00     0.059 H 
ATOM     16  H2  <0> d           3.949   1.565   0.486  0.00  0.00     0.059 H 
ATOM     17  H3  <0> d           3.898  -0.215   0.477  0.00  0.00     0.059 H 
ENDBRANCH   1  14
BRANCH   4  18
ATOM     18  O1  <0> d           0.895   5.482   0.023  0.00  0.00    -0.361 OA
ATOM     19  H8  <0> d           0.971   5.871  -0.859  0.00  0.00     0.217 HD
ENDBRANCH   4  18
TORSDOF 2
