REMARK  2 active torsions:
REMARK  status: ('A' for Active; 'I' for Inactive)
REMARK    1  A    between atoms: C1_1  and  C2_2 
REMARK    2  A    between atoms: C6_6  and  C9_10 
ROOT
ATOM      1  C2  <0> d          -1.234   2.113   0.019  0.00  0.00    -0.041 A 
ATOM      2  C3  <0> d          -1.246   3.492   0.032  0.00  0.00    -0.076 A 
ATOM      3  C4  <0> d          -0.055   4.197   0.025  0.00  0.00    -0.082 A 
ATOM      4  C5  <0> d           1.154   3.525   0.009  0.00  0.00    -0.076 A 
ATOM      5  C6  <0> d           1.180   2.146   0.002  0.00  0.00    -0.041 A 
ATOM      6  C7  <0> d          -0.017   1.428   0.010  0.00  0.00     0.056 A 
ATOM      7  C8  <0> d           0.002  -0.004   0.002  0.00  0.00     0.100 C 
ATOM      8  N1  <0> d           0.018  -1.140  -0.004  0.00  0.00    -0.191 NA
ATOM      9  H4  <0> d          -2.186   4.023   0.044  0.00  0.00     0.084 H 
ATOM     10  H5  <0> d          -0.070   5.277   0.030  0.00  0.00     0.083 H 
ATOM     11  H6  <0> d           2.080   4.081   0.004  0.00  0.00     0.084 H 
ENDROOT
BRANCH   1  12
ATOM     12  C1  <0> d          -2.532   1.347   0.021  0.00  0.00    -0.050 C 
ATOM     13  H1  <0> d          -2.840   1.156   1.049  0.00  0.00     0.033 H 
ATOM     14  H2  <0> d          -3.300   1.931  -0.486  0.00  0.00     0.033 H 
ATOM     15  H3  <0> d          -2.395   0.398  -0.498  0.00  0.00     0.033 H 
ENDBRANCH   1  12
BRANCH   5  16
ATOM     16  C9  <0> d           2.498   1.415  -0.013  0.00  0.00    -0.050 C 
ATOM     17  H7  <0> d           2.807   1.244  -1.044  0.00  0.00     0.033 H 
ATOM     18  H8  <0> d           3.252   2.015   0.497  0.00  0.00     0.033 H 
ATOM     19  H9  <0> d           2.389   0.458   0.497  0.00  0.00     0.033 H 
ENDBRANCH   5  16
TORSDOF 2
