REMARK  3 active torsions:
REMARK  status: ('A' for Active; 'I' for Inactive)
REMARK    1  A    between atoms: C1_1  and  C2_2 
REMARK    2  A    between atoms: C4_5  and  C5_7 
REMARK    3  A    between atoms: C7_9  and  N3_13 
ROOT
ATOM      1  C2  <0> d           0.002  -0.004   0.002  0.00  0.00    -0.048 A 
ATOM      2  H1  <0> d          -0.882  -0.484  -0.417  0.00  0.00     0.040 H 
ATOM      3  C3  <0> d           1.351  -0.691  -0.221  0.00  0.00    -0.052 A 
ATOM      4  C4  <0> d           0.703  -0.708   1.166  0.00  0.00    -0.006 A 
ATOM      5  H2  <0> d           1.150  -0.080   1.938  0.00  0.00     0.050 H 
ATOM      6  H7  <0> d           1.354  -1.623  -0.786  0.00  0.00     0.034 H 
ATOM      7  H8  <0> d           2.223  -0.053  -0.362  0.00  0.00     0.034 H 
ENDROOT
BRANCH   4   8
ATOM      8  C5  <0> d           0.118  -2.011   1.645  0.00  0.00     0.062 A 
ATOM      9  N2  <0> d          -0.722  -2.155   2.638  0.00  0.00    -0.177 NA
ATOM     10  N1  <0> d          -1.028  -3.515   2.764  0.00  0.00    -0.263 N 
ATOM     11  C7  <0> d          -0.335  -4.188   1.817  0.00  0.00     0.117 A 
ATOM     12  H3  <0> d          -1.629  -3.907   3.418  0.00  0.00     0.190 HD
ATOM     13  C6  <0> d           0.385  -3.274   1.109  0.00  0.00    -0.014 A 
ATOM     14  H9  <0> d           1.045  -3.487   0.281  0.00  0.00     0.092 H 
BRANCH  11  15
ATOM     15  N3  <0> d          -0.354  -5.563   1.604  0.00  0.00    -0.384 N 
ATOM     16  H10 <0> d           0.181  -5.952   0.895  0.00  0.00     0.157 HD
ATOM     17  H11 <0> d          -0.903  -6.133   2.166  0.00  0.00     0.157 HD
ENDBRANCH  11  15
ENDBRANCH   4   8
BRANCH   1  18
ATOM     18  C1  <0> d          -0.019   1.526   0.010  0.00  0.00    -0.072 C 
ATOM     19  H4  <0> d           1.004   1.903   0.003  0.00  0.00     0.028 H 
ATOM     20  H5  <0> d          -0.546   1.887  -0.873  0.00  0.00     0.028 H 
ATOM     21  H6  <0> d          -0.529   1.877   0.907  0.00  0.00     0.028 H 
ENDBRANCH   1  18
TORSDOF 3
