REMARK  0 active torsions:
REMARK  status: ('A' for Active; 'I' for Inactive)
ROOT
ATOM      1  C1  <0> d          -0.017   1.432   0.010  0.00  0.00     0.032 C 
ATOM      2  C2  <0> d           1.501   1.401  -0.005  0.00  0.00     0.045 C 
ATOM      3  C3  <0> d           1.278   0.047  -0.655  0.00  0.00     0.032 C 
ATOM      4  O1  <0> d           0.002  -0.004   0.002  0.00  0.00    -0.389 OA
ATOM      5  C4  <0> d           2.344   1.585   1.253  0.00  0.00     0.032 C 
ATOM      6  O2  <0> d           2.636   2.892   0.712  0.00  0.00    -0.389 OA
ATOM      7  C5  <0> d           2.344   2.498  -0.647  0.00  0.00     0.032 C 
ATOM      8  H1  <0> d          -0.434   1.855   0.924  0.00  0.00     0.075 H 
ATOM      9  H2  <0> d          -0.451   1.865  -0.891  0.00  0.00     0.075 H 
ATOM     10  H3  <0> d           1.205   0.094  -1.742  0.00  0.00     0.075 H 
ATOM     11  H4  <0> d           1.974  -0.719  -0.312  0.00  0.00     0.075 H 
ATOM     12  H5  <0> d           1.763   1.608   2.176  0.00  0.00     0.075 H 
ATOM     13  H6  <0> d           3.209   0.924   1.307  0.00  0.00     0.075 H 
ATOM     14  H7  <0> d           3.209   2.127  -1.196  0.00  0.00     0.075 H 
ATOM     15  H8  <0> d           1.764   3.232  -1.206  0.00  0.00     0.075 H 
ENDROOT
TORSDOF 0
