REMARK  4 active torsions:
REMARK  status: ('A' for Active; 'I' for Inactive)
REMARK    1  A    between atoms: C1_1  and  C2_2 
REMARK    2  A    between atoms: C2_2  and  C3_3 
REMARK    3  A    between atoms: C3_3  and  C4_5 
REMARK    4  A    between atoms: C3_3  and  N1_6 
ROOT
ATOM      1  C3  <0> d          -0.735   2.019   1.269  0.00  0.00     0.030 C 
ATOM      2  H1  <0> d          -1.727   1.571   1.322  0.00  0.00     0.075 H 
ENDROOT
BRANCH   1   3
ATOM      3  C2  <0> d          -0.019   1.526   0.010  0.00  0.00    -0.048 C 
ATOM      4  H5  <0> d           1.004   1.903   0.003  0.00  0.00     0.035 H 
ATOM      5  H6  <0> d          -0.546   1.887  -0.873  0.00  0.00     0.035 H 
BRANCH   3   6
ATOM      6  C1  <0> d           0.002  -0.004   0.002  0.00  0.00    -0.075 C 
ATOM      7  H2  <0> d          -1.020  -0.381   0.010  0.00  0.00     0.027 H 
ATOM      8  H3  <0> d           0.512  -0.356  -0.895  0.00  0.00     0.027 H 
ATOM      9  H4  <0> d           0.529  -0.365   0.885  0.00  0.00     0.027 H 
ENDBRANCH   3   6
ENDBRANCH   1   3
BRANCH   1  10
ATOM     10  C4  <0> d           0.073   1.619   2.506  0.00  0.00    -0.055 C 
ATOM     11  H7  <0> d           1.065   2.067   2.453  0.00  0.00     0.030 H 
ATOM     12  H8  <0> d          -0.438   1.970   3.402  0.00  0.00     0.030 H 
ATOM     13  H9  <0> d           0.166   0.533   2.542  0.00  0.00     0.030 H 
ENDBRANCH   1  10
BRANCH   1  14
ATOM     14  N1  <0> d          -0.860   3.478   1.220  0.00  0.00    -0.277 N 
ATOM     15  N2  <0> d          -1.971   4.194   0.755  0.00  0.00    -0.185 NA
ATOM     16  C7  <0> d          -1.710   5.471   0.867  0.00  0.00     0.023 A 
ATOM     17  C6  <0> d          -0.426   5.609   1.406  0.00  0.00    -0.048 A 
ATOM     18  H12 <0> d          -2.371   6.280   0.591  0.00  0.00     0.117 H 
ATOM     19  C5  <0> d           0.071   4.369   1.619  0.00  0.00     0.000 A 
ATOM     20  H11 <0> d           0.076   6.541   1.619  0.00  0.00     0.087 H 
ATOM     21  H10 <0> d           1.041   4.134   2.032  0.00  0.00     0.114 H 
ENDBRANCH   1  14
TORSDOF 4
