REMARK  2 active torsions:
REMARK  status: ('A' for Active; 'I' for Inactive)
REMARK    1  A    between atoms: C1_1  and  C2_2 
REMARK    2  A    between atoms: C2_2  and  C3_4 
ROOT
ATOM      1  C3  <0> d          -0.050   3.849   0.023  0.00  0.00     0.015 A 
ATOM      2  C4  <0> d           1.168   3.163   0.008  0.00  0.00    -0.032 A 
ATOM      3  C5  <0> d           1.180   1.782   0.000  0.00  0.00     0.120 A 
ATOM      4  C6  <0> d          -0.013   1.076   0.008  0.00  0.00    -0.009 A 
ATOM      5  C7  <0> d          -1.224   1.749   0.017  0.00  0.00     0.120 A 
ATOM      6  C8  <0> d          -1.250   3.130   0.031  0.00  0.00    -0.032 A 
ATOM      7  F1  <0> d          -2.382   1.053   0.019  0.00  0.00    -0.206 F 
ATOM      8  F2  <0> d           2.356   1.118  -0.015  0.00  0.00    -0.206 F 
ATOM      9  H4  <0> d           2.098   3.712   0.002  0.00  0.00     0.089 H 
ATOM     10  H5  <0> d           0.002  -0.004   0.002  0.00  0.00     0.092 H 
ATOM     11  H6  <0> d          -2.194   3.654   0.043  0.00  0.00     0.089 H 
ENDROOT
BRANCH   1  12
ATOM     12  C2  <0> d          -0.070   5.321   0.031  0.00  0.00     0.155 C 
ATOM     13  O1  <0> d           0.972   5.941   0.024  0.00  0.00    -0.293 OA
BRANCH  12  14
ATOM     14  C1  <0> d          -1.385   6.056   0.047  0.00  0.00    -0.017 C 
ATOM     15  H1  <0> d          -1.898   5.803   0.868  0.00  0.00     0.038 H 
ATOM     16  H2  <0> d          -1.201   7.130   0.051  0.00  0.00     0.038 H 
ATOM     17  H3  <0> d          -1.962   5.790  -0.838  0.00  0.00     0.038 H 
ENDBRANCH  12  14
ENDBRANCH   1  12
TORSDOF 2
