REMARK  3 active torsions:
REMARK  status: ('A' for Active; 'I' for Inactive)
REMARK    1  A    between atoms: C1_1  and  C2_2 
REMARK    2  A    between atoms: C3_5  and  N5_8 
REMARK    3  A    between atoms: N3_6  and  N4_7 
ROOT
ATOM      1  C2  <0> d          -2.745   3.197   0.034  0.00  0.00     0.157 A 
ATOM      2  N1  <0> d          -3.312   2.024   0.030  0.00  0.00    -0.119 NA
ATOM      3  N2  <0> d          -2.416   1.102   0.020  0.00  0.00     0.044 NA
ATOM      4  C3  <0> d          -1.220   1.642   0.017  0.00  0.00     0.734 A 
ATOM      5  N3  <0> d          -1.393   2.996   0.030  0.00  0.00    -0.093 N 
ENDROOT
BRANCH   1   6
ATOM      6  C1  <0> d          -3.450   4.530   0.045  0.00  0.00    -0.018 C 
ATOM      7  H1  <0> d          -3.614   4.845   1.076  0.00  0.00     0.038 H 
ATOM      8  H2  <0> d          -2.836   5.270  -0.467  0.00  0.00     0.038 H 
ATOM      9  H3  <0> d          -4.409   4.438  -0.464  0.00  0.00     0.038 H 
ENDBRANCH   1   6
BRANCH   5  10
ATOM     10  N4  <0> d          -0.416   3.951   0.037  0.00  0.00    -0.226 NA
ATOM     11  H4  <0> d          -0.161   4.214  -0.903  0.00  0.00     0.144 HD
ATOM     12  H5  <0> d          -0.703   4.757   0.572  0.00  0.00     0.144 HD
ENDBRANCH   5  10
BRANCH   4  13
ATOM     13  N5  <0> d          -0.011   0.966   0.007  0.00  0.00    -0.230 N 
ATOM     14  H6  <0> d           0.002  -0.004   0.002  0.00  0.00     0.174 HD
ATOM     15  H7  <0> d           0.822   1.462   0.002  0.00  0.00     0.174 HD
ENDBRANCH   4  13
TORSDOF 3
