REMARK  0 active torsions:
REMARK  status: ('A' for Active; 'I' for Inactive)
ROOT
ATOM      1  C1  <0> d          -0.017   1.380   0.010  0.00  0.00    -0.082 A 
ATOM      2  C2  <0> d           1.169   2.094   0.002  0.00  0.00    -0.081 A 
ATOM      3  C3  <0> d           2.380   1.431  -0.013  0.00  0.00    -0.057 A 
ATOM      4  C4  <0> d           2.406   0.037  -0.021  0.00  0.00     0.041 A 
ATOM      5  C5  <0> d           1.204  -0.674  -0.013  0.00  0.00    -0.014 A 
ATOM      6  C6  <0> d           0.002  -0.004   0.002  0.00  0.00    -0.073 A 
ATOM      7  C7  <0> d           1.248  -2.183  -0.019  0.00  0.00     0.019 C 
ATOM      8  N1  <0> d           2.513  -2.592  -0.649  0.00  0.00    -0.382 N 
ATOM      9  C8  <0> d           3.655  -1.900  -0.341  0.00  0.00     0.037 C 
ATOM     10  N2  <0> d           3.599  -0.636  -0.039  0.00  0.00    -0.352 N 
ATOM     11  H1  <0> d          -0.960   1.905   0.026  0.00  0.00     0.083 H 
ATOM     12  H2  <0> d           1.147   3.173   0.009  0.00  0.00     0.083 H 
ATOM     13  H3  <0> d           3.303   1.991  -0.019  0.00  0.00     0.086 H 
ATOM     14  H4  <0> d          -0.925  -0.557   0.008  0.00  0.00     0.084 H 
ATOM     15  H5  <0> d           1.207  -2.558   1.004  0.00  0.00     0.071 H 
ATOM     16  H6  <0> d           0.407  -2.575  -0.590  0.00  0.00     0.071 H 
ATOM     17  H7  <0> d           2.538  -3.337  -1.270  0.00  0.00     0.160 HD
ATOM     18  H8  <0> d           4.608  -2.407  -0.349  0.00  0.00     0.139 H 
ATOM     19  H9  <0> d           4.417  -0.161   0.177  0.00  0.00     0.166 HD
ENDROOT
TORSDOF 0
