REMARK  2 active torsions:
REMARK  status: ('A' for Active; 'I' for Inactive)
REMARK    1  A    between atoms: C1_1  and  N1_2 
REMARK    2  A    between atoms: N3_5  and  C4_8 
ROOT
ATOM      1  N1  <0> d          -0.698   1.558   1.213  0.00  0.00    -0.295 N 
ATOM      2  C2  <0> d          -1.243   0.763   2.193  0.00  0.00     0.089 A 
ATOM      3  N2  <0> d          -1.764   1.521   3.103  0.00  0.00    -0.164 NA
ATOM      4  N3  <0> d          -1.566   2.856   2.726  0.00  0.00    -0.223 N 
ATOM      5  C3  <0> d          -0.898   2.847   1.554  0.00  0.00     0.345 A 
ATOM      6  O1  <0> d          -0.543   3.824   0.918  0.00  0.00    -0.245 OA
ATOM      7  H4  <0> d          -1.236  -0.316   2.201  0.00  0.00     0.146 H 
ENDROOT
BRANCH   1   8
ATOM      8  C1  <0> d          -0.013   1.086   0.008  0.00  0.00    -0.009 C 
ATOM      9  H1  <0> d           0.002  -0.004   0.002  0.00  0.00     0.057 H 
ATOM     10  H2  <0> d           1.010   1.463   0.000  0.00  0.00     0.057 H 
ATOM     11  H3  <0> d          -0.540   1.447  -0.875  0.00  0.00     0.057 H 
ENDBRANCH   1   8
BRANCH   4  12
ATOM     12  C4  <0> d          -1.998   4.042   3.470  0.00  0.00     0.007 C 
ATOM     13  H5  <0> d          -2.509   3.732   4.382  0.00  0.00     0.059 H 
ATOM     14  H6  <0> d          -1.129   4.646   3.728  0.00  0.00     0.059 H 
ATOM     15  H7  <0> d          -2.679   4.629   2.854  0.00  0.00     0.059 H 
ENDBRANCH   4  12
TORSDOF 2
