REMARK  5 active torsions:
REMARK  status: ('A' for Active; 'I' for Inactive)
REMARK    1  A    between atoms: C1_1  and  C2_2 
REMARK    2  A    between atoms: C4_4  and  C5_8 
REMARK    3  A    between atoms: C5_8  and  C6_9 
REMARK    4  A    between atoms: C6_9  and  O2_11 
REMARK    5  A    between atoms: O2_11  and  C7_12 
ROOT
ATOM      1  C2  <0> d           0.002  -0.004   0.002  0.00  0.00     0.026 A 
ATOM      2  C3  <0> d           0.008  -0.796  -1.095  0.00  0.00    -0.034 A 
ATOM      3  C4  <0> d           0.028  -2.127  -0.666  0.00  0.00     0.066 A 
ATOM      4  N1  <0> d           0.035  -2.134   0.643  0.00  0.00    -0.179 NA
ATOM      5  N2  <0> d           0.024  -0.805   1.088  0.00  0.00    -0.282 N 
ATOM      6  H1  <0> d           0.029  -0.513   2.013  0.00  0.00     0.189 HD
ATOM      7  H5  <0> d          -0.002  -0.460  -2.122  0.00  0.00     0.089 H 
ENDROOT
BRANCH   3   8
ATOM      8  C5  <0> d           0.040  -3.343  -1.556  0.00  0.00     0.057 C 
ATOM      9  H6  <0> d          -0.883  -3.905  -1.415  0.00  0.00     0.057 H 
ATOM     10  H7  <0> d           0.120  -3.030  -2.597  0.00  0.00     0.057 H 
BRANCH   8  11
ATOM     11  C6  <0> d           1.218  -4.213  -1.201  0.00  0.00     0.264 C 
ATOM     12  O1  <0> d           1.971  -3.881  -0.316  0.00  0.00    -0.265 OA
BRANCH  11  13
ATOM     13  O2  <0> d           1.431  -5.358  -1.868  0.00  0.00    -0.326 OA
BRANCH  13  14
ATOM     14  C7  <0> d           2.567  -6.134  -1.480  0.00  0.00     0.013 C 
ATOM     15  H8  <0> d           3.473  -5.544  -1.614  0.00  0.00     0.067 H 
ATOM     16  H9  <0> d           2.470  -6.419  -0.432  0.00  0.00     0.067 H 
ATOM     17  H10 <0> d           2.622  -7.031  -2.096  0.00  0.00     0.067 H 
ENDBRANCH  13  14
ENDBRANCH  11  13
ENDBRANCH   8  11
ENDBRANCH   3   8
BRANCH   1  18
ATOM     18  C1  <0> d          -0.018   1.503   0.010  0.00  0.00    -0.036 C 
ATOM     19  H2  <0> d           1.004   1.880   0.003  0.00  0.00     0.035 H 
ATOM     20  H3  <0> d          -0.545   1.864  -0.873  0.00  0.00     0.035 H 
ATOM     21  H4  <0> d          -0.529   1.854   0.907  0.00  0.00     0.035 H 
ENDBRANCH   1  18
TORSDOF 5
