REMARK  8 active torsions:
REMARK  status: ('A' for Active; 'I' for Inactive)
REMARK    1  A    between atoms: C1_1  and  C2_2 
REMARK    2  A    between atoms: C2_2  and  C3_3 
REMARK    3  A    between atoms: C3_3  and  C4_4 
REMARK    4  A    between atoms: C4_4  and  C5_6 
REMARK    5  A    between atoms: C4_4  and  O2_12 
REMARK    6  A    between atoms: C5_6  and  C6_7 
REMARK    7  A    between atoms: C6_7  and  C7_8 
REMARK       I    between atoms: C7_8  and  N1_10 
REMARK    8  A    between atoms: N1_10  and  C8_11 
ROOT
ATOM      1  C4  <0> d          -1.413  -2.063   0.004  0.00  0.00     0.036 C 
ATOM      2  H1  <0> d          -0.810  -2.423   0.839  0.00  0.00     0.082 H 
ENDROOT
BRANCH   1   3
ATOM      3  C3  <0> d          -1.433  -0.534   0.013  0.00  0.00    -0.041 C 
ATOM      4  H7  <0> d          -1.944  -0.182   0.910  0.00  0.00     0.036 H 
ATOM      5  H8  <0> d          -1.960  -0.173  -0.870  0.00  0.00     0.036 H 
BRANCH   3   6
ATOM      6  C2  <0> d           0.002  -0.004   0.002  0.00  0.00    -0.066 C 
ATOM      7  H5  <0> d           0.512  -0.356  -0.895  0.00  0.00     0.032 H 
ATOM      8  H6  <0> d           0.529  -0.365   0.885  0.00  0.00     0.032 H 
BRANCH   6   9
ATOM      9  C1  <0> d          -0.019   1.526   0.010  0.00  0.00    -0.076 C 
ATOM     10  H2  <0> d           1.004   1.903   0.003  0.00  0.00     0.027 H 
ATOM     11  H3  <0> d          -0.546   1.887  -0.873  0.00  0.00     0.027 H 
ATOM     12  H4  <0> d          -0.529   1.877   0.907  0.00  0.00     0.027 H 
ENDBRANCH   6   9
ENDBRANCH   3   6
ENDBRANCH   1   3
BRANCH   1  13
ATOM     13  C5  <0> d          -2.841  -2.594   0.141  0.00  0.00    -0.033 C 
ATOM     14  H9  <0> d          -3.302  -2.170   1.033  0.00  0.00     0.037 H 
ATOM     15  H10 <0> d          -3.420  -2.308  -0.737  0.00  0.00     0.037 H 
BRANCH  13  16
ATOM     16  C6  <0> d          -2.810  -4.119   0.258  0.00  0.00     0.011 C 
ATOM     17  H11 <0> d          -2.349  -4.542  -0.634  0.00  0.00     0.047 H 
ATOM     18  H12 <0> d          -2.231  -4.404   1.136  0.00  0.00     0.047 H 
BRANCH  16  19
ATOM     19  C7  <0> d          -4.218  -4.641   0.392  0.00  0.00     0.217 C 
ATOM     20  O1  <0> d          -5.153  -3.869   0.395  0.00  0.00    -0.274 OA
ATOM     21  N1  <0> d          -4.436  -5.966   0.510  0.00  0.00    -0.365 N 
ATOM     22  H13 <0> d          -3.688  -6.583   0.509  0.00  0.00     0.161 HD
BRANCH  21  23
ATOM     23  C8  <0> d          -5.804  -6.473   0.641  0.00  0.00    -0.018 C 
ATOM     24  H14 <0> d          -5.782  -7.560   0.724  0.00  0.00     0.056 H 
ATOM     25  H15 <0> d          -6.265  -6.050   1.533  0.00  0.00     0.056 H 
ATOM     26  H16 <0> d          -6.383  -6.188  -0.237  0.00  0.00     0.056 H 
ENDBRANCH  21  23
ENDBRANCH  16  19
ENDBRANCH  13  16
ENDBRANCH   1  13
BRANCH   1  27
ATOM     27  O2  <0> d          -0.849  -2.526  -1.224  0.00  0.00    -0.396 OA
ATOM     28  H17 <0> d          -1.334  -2.242  -2.011  0.00  0.00     0.210 HD
ENDBRANCH   1  27
TORSDOF 8
