REMARK  5 active torsions:
REMARK  status: ('A' for Active; 'I' for Inactive)
REMARK    1  A    between atoms: C1_1  and  C2_2 
REMARK    2  A    between atoms: C3_3  and  C4_4 
REMARK    3  A    between atoms: C4_4  and  C5_5 
REMARK       I    between atoms: C5_5  and  N1_7 
REMARK    4  A    between atoms: N1_7  and  C6_8 
REMARK    5  A    between atoms: C6_8  and  C7_9 
REMARK       I    between atoms: C7_9  and  N2_11 
ROOT
ATOM      1  C5  <0> d           0.673  -0.370   3.418  0.00  0.00     0.221 C 
ATOM      2  O1  <0> d          -0.179  -1.234   3.437  0.00  0.00    -0.273 OA
ATOM      3  N1  <0> d           1.111   0.170   4.573  0.00  0.00    -0.352 N 
ATOM      4  H8  <0> d           1.792   0.861   4.558  0.00  0.00     0.162 HD
ENDROOT
BRANCH   1   5
ATOM      5  C4  <0> d           1.240   0.100   2.104  0.00  0.00     0.024 C 
ATOM      6  H6  <0> d           2.316  -0.080   2.087  0.00  0.00     0.053 H 
ATOM      7  H7  <0> d           1.049   1.166   1.985  0.00  0.00     0.053 H 
BRANCH   5   8
ATOM      8  C3  <0> d           0.588  -0.657   0.976  0.00  0.00    -0.099 C 
ATOM      9  C2  <0> d           0.002  -0.004   0.002  0.00  0.00    -0.110 C 
ATOM     10  H4  <0> d          -0.466  -0.546  -0.806  0.00  0.00     0.075 H 
ATOM     11  H5  <0> d           0.602  -1.736   0.970  0.00  0.00     0.077 H 
BRANCH   9  12
ATOM     12  C1  <0> d          -0.018   1.503   0.010  0.00  0.00    -0.060 C 
ATOM     13  H1  <0> d           1.004   1.880   0.003  0.00  0.00     0.032 H 
ATOM     14  H2  <0> d          -0.545   1.864  -0.873  0.00  0.00     0.032 H 
ATOM     15  H3  <0> d          -0.529   1.854   0.907  0.00  0.00     0.032 H 
ENDBRANCH   9  12
ENDBRANCH   5   8
ENDBRANCH   1   5
BRANCH   3  16
ATOM     16  C6  <0> d           0.559  -0.286   5.851  0.00  0.00     0.068 C 
ATOM     17  H9  <0> d          -0.516  -0.107   5.867  0.00  0.00     0.078 H 
ATOM     18  H10 <0> d           0.750  -1.353   5.969  0.00  0.00     0.078 H 
BRANCH  16  19
ATOM     19  C7  <0> d           1.212   0.470   6.979  0.00  0.00     0.233 C 
ATOM     20  O2  <0> d           2.055   1.308   6.739  0.00  0.00    -0.272 OA
ATOM     21  N2  <0> d           0.858   0.215   8.254  0.00  0.00    -0.369 N 
ATOM     22  H11 <0> d           0.184  -0.455   8.446  0.00  0.00     0.159 HD
ATOM     23  H12 <0> d           1.279   0.702   8.980  0.00  0.00     0.159 HD
ENDBRANCH  16  19
ENDBRANCH   3  16
TORSDOF 5
