REMARK  8 active torsions:
REMARK  status: ('A' for Active; 'I' for Inactive)
REMARK    1  A    between atoms: C1_1  and  C2_2 
REMARK    2  A    between atoms: C2_2  and  C3_4 
REMARK    3  A    between atoms: C2_2  and  O3_11 
REMARK    4  A    between atoms: C4_5  and  C5_6 
REMARK    5  A    between atoms: C5_6  and  O1_7 
REMARK    6  A    between atoms: O1_7  and  C6_8 
REMARK    7  A    between atoms: C6_8  and  C7_9 
REMARK    8  A    between atoms: C7_9  and  O2_10 
ROOT
ATOM      1  C5  <0> d           0.038  -2.650  -0.013  0.00  0.00     0.074 C 
ATOM      2  H5  <0> d           0.548  -3.001  -0.909  0.00  0.00     0.093 H 
ATOM      3  H6  <0> d           0.565  -3.011   0.871  0.00  0.00     0.093 H 
ENDROOT
BRANCH   1   4
ATOM      4  C4  <0> d           0.018  -1.178  -0.004  0.00  0.00    -0.078 C 
ATOM      5  C3  <0> d           0.002  -0.004   0.002  0.00  0.00    -0.073 C 
BRANCH   5   6
ATOM      6  C2  <0> d          -0.018   1.468   0.010  0.00  0.00     0.090 C 
ATOM      7  H1  <0> d          -0.528   1.819   0.907  0.00  0.00     0.102 H 
BRANCH   6   8
ATOM      8  C1  <0> d           1.417   1.997  -0.001  0.00  0.00    -0.043 C 
ATOM      9  H2  <0> d           1.928   1.646  -0.897  0.00  0.00     0.032 H 
ATOM     10  H3  <0> d           1.403   3.087   0.005  0.00  0.00     0.032 H 
ATOM     11  H4  <0> d           1.945   1.636   0.882  0.00  0.00     0.032 H 
ENDBRANCH   6   8
BRANCH   6  12
ATOM     12  O3  <0> d          -0.709   1.941  -1.148  0.00  0.00    -0.384 OA
ATOM     13  H12 <0> d          -0.310   1.666  -1.984  0.00  0.00     0.211 HD
ENDBRANCH   6  12
ENDBRANCH   5   6
ENDBRANCH   1   4
BRANCH   1  14
ATOM     14  O1  <0> d          -1.303  -3.144  -0.002  0.00  0.00    -0.377 OA
BRANCH  14  15
ATOM     15  C6  <0> d          -1.396  -4.570  -0.009  0.00  0.00     0.040 C 
ATOM     16  H7  <0> d          -0.916  -4.962  -0.906  0.00  0.00     0.077 H 
ATOM     17  H8  <0> d          -0.899  -4.971   0.874  0.00  0.00     0.077 H 
BRANCH  15  18
ATOM     18  C7  <0> d          -2.869  -4.985   0.003  0.00  0.00     0.036 C 
ATOM     19  H9  <0> d          -2.940  -6.069   0.087  0.00  0.00     0.077 H 
ATOM     20  H10 <0> d          -3.370  -4.521   0.852  0.00  0.00     0.077 H 
BRANCH  18  21
ATOM     21  O2  <0> d          -3.493  -4.559  -1.210  0.00  0.00    -0.399 OA
ATOM     22  H11 <0> d          -4.431  -4.789  -1.272  0.00  0.00     0.209 HD
ENDBRANCH  18  21
ENDBRANCH  15  18
ENDBRANCH  14  15
ENDBRANCH   1  14
TORSDOF 8
