REMARK  1 active torsions:
REMARK  status: ('A' for Active; 'I' for Inactive)
REMARK    1  A    between atoms: C2_2  and  N1_3 
ROOT
ATOM      1  C1  <0> d           0.018  -1.178  -0.004  0.00  0.00    -0.137 C 
ATOM      2  C2  <0> d           0.002  -0.004   0.002  0.00  0.00    -0.028 C 
ATOM      3  H1  <0> d           0.032  -2.228  -0.010  0.00  0.00     0.168 H 
ENDROOT
BRANCH   2   4
ATOM      4  N1  <0> d          -0.017   1.426   0.010  0.00  0.00    -0.240 NA
ATOM      5  C6  <0> d           1.348   1.971  -0.000  0.00  0.00     0.011 C 
ATOM      6  C5  <0> d           1.282   3.499   0.069  0.00  0.00     0.031 C 
ATOM      7  H8  <0> d           1.898   1.591   0.861  0.00  0.00     0.060 H 
ATOM      8  H9  <0> d           1.853   1.670  -0.918  0.00  0.00     0.060 H 
ATOM      9  O1  <0> d           0.495   3.987  -1.022  0.00  0.00    -0.389 OA
ATOM     10  H6  <0> d           2.289   3.910   0.004  0.00  0.00     0.076 H 
ATOM     11  H7  <0> d           0.824   3.801   1.011  0.00  0.00     0.076 H 
ATOM     12  C4  <0> d          -0.840   3.477  -1.042  0.00  0.00     0.031 C 
ATOM     13  C3  <0> d          -0.795   1.948  -1.123  0.00  0.00     0.011 C 
ATOM     14  H4  <0> d          -1.367   3.872  -1.911  0.00  0.00     0.076 H 
ATOM     15  H5  <0> d          -1.359   3.778  -0.132  0.00  0.00     0.076 H 
ATOM     16  H2  <0> d          -0.324   1.647  -2.058  0.00  0.00     0.060 H 
ATOM     17  H3  <0> d          -1.810   1.552  -1.081  0.00  0.00     0.060 H 
ENDBRANCH   2   4
TORSDOF 1
