REMARK  1 active torsions:
REMARK  status: ('A' for Active; 'I' for Inactive)
REMARK    1  A    between atoms: C4_5  and  N3_7 
ROOT
ATOM      1  C1  <0> d          -0.016   1.313   0.009  0.00  0.00     0.089 A 
ATOM      2  N1  <0> d           1.093   2.025   0.003  0.00  0.00    -0.246 NA
ATOM      3  C2  <0> d           2.283   1.437  -0.012  0.00  0.00     0.046 A 
ATOM      4  C3  <0> d           2.349   0.059  -0.020  0.00  0.00     0.012 A 
ATOM      5  C4  <0> d           1.156  -0.666  -0.013  0.00  0.00     0.131 A 
ATOM      6  N2  <0> d           0.002  -0.004   0.002  0.00  0.00    -0.224 NA
ATOM      7  C5  <0> d           3.791  -0.388  -0.037  0.00  0.00    -0.035 C 
ATOM      8  C6  <0> d           4.594   0.856  -0.474  0.00  0.00    -0.056 C 
ATOM      9  C7  <0> d           3.679   2.015  -0.022  0.00  0.00    -0.024 C 
ATOM     10  H1  <0> d          -0.967   1.825   0.026  0.00  0.00     0.146 H 
ATOM     11  H4  <0> d           4.100  -0.708   0.959  0.00  0.00     0.040 H 
ATOM     12  H5  <0> d           3.928  -1.198  -0.754  0.00  0.00     0.040 H 
ATOM     13  H6  <0> d           5.555   0.898   0.040  0.00  0.00     0.034 H 
ATOM     14  H7  <0> d           4.731   0.870  -1.555  0.00  0.00     0.034 H 
ATOM     15  H8  <0> d           3.741   2.843  -0.728  0.00  0.00     0.042 H 
ATOM     16  H9  <0> d           3.958   2.349   0.978  0.00  0.00     0.042 H 
ENDROOT
BRANCH   5  17
ATOM     17  N3  <0> d           1.173  -2.051  -0.021  0.00  0.00    -0.383 N 
ATOM     18  H2  <0> d           2.019  -2.526  -0.032  0.00  0.00     0.157 HD
ATOM     19  H3  <0> d           0.339  -2.547  -0.016  0.00  0.00     0.157 HD
ENDBRANCH   5  17
TORSDOF 1
