REMARK  1 active torsions:
REMARK  status: ('A' for Active; 'I' for Inactive)
REMARK    1  A    between atoms: C5_5  and  N1_7 
ROOT
ATOM      1  C1  <0> d           1.231  -2.059  -0.020  0.00  0.00    -0.080 A 
ATOM      2  C2  <0> d           0.044  -2.764  -0.009  0.00  0.00    -0.075 A 
ATOM      3  C3  <0> d          -1.173  -2.099   0.009  0.00  0.00    -0.035 A 
ATOM      4  C4  <0> d          -1.204  -0.718   0.015  0.00  0.00     0.041 A 
ATOM      5  C5  <0> d           0.002  -0.004   0.002  0.00  0.00     0.047 A 
ATOM      6  C6  <0> d           1.212  -0.676  -0.013  0.00  0.00    -0.056 A 
ATOM      7  N2  <0> d          -2.393   0.016   0.020  0.00  0.00    -0.291 NA
ATOM      8  C7  <0> d          -3.543  -0.756   0.494  0.00  0.00    -0.018 C 
ATOM      9  C8  <0> d          -3.634  -2.051  -0.322  0.00  0.00    -0.050 C 
ATOM     10  C9  <0> d          -2.434  -2.926   0.035  0.00  0.00    -0.038 C 
ATOM     11  H1  <0> d           2.173  -2.587  -0.035  0.00  0.00     0.083 H 
ATOM     12  H2  <0> d           0.064  -3.844  -0.014  0.00  0.00     0.084 H 
ATOM     13  H3  <0> d           2.139  -0.122  -0.020  0.00  0.00     0.087 H 
ATOM     14  H6  <0> d          -2.575   0.415  -0.888  0.00  0.00     0.127 HD
ATOM     15  H7  <0> d          -3.413  -0.997   1.549  0.00  0.00     0.056 H 
ATOM     16  H8  <0> d          -4.455  -0.174   0.359  0.00  0.00     0.056 H 
ATOM     17  H9  <0> d          -4.560  -2.575  -0.081  0.00  0.00     0.035 H 
ATOM     18  H10 <0> d          -3.609  -1.819  -1.386  0.00  0.00     0.035 H 
ATOM     19  H11 <0> d          -2.346  -3.745  -0.680  0.00  0.00     0.040 H 
ATOM     20  H12 <0> d          -2.581  -3.333   1.035  0.00  0.00     0.040 H 
ENDROOT
BRANCH   5  21
ATOM     21  N1  <0> d          -0.017   1.396   0.010  0.00  0.00    -0.398 N 
ATOM     22  H4  <0> d           0.816   1.892   0.004  0.00  0.00     0.156 HD
ATOM     23  H5  <0> d          -0.863   1.869   0.016  0.00  0.00     0.156 HD
ENDBRANCH   5  21
TORSDOF 1
