REMARK  5 active torsions:
REMARK  status: ('A' for Active; 'I' for Inactive)
REMARK    1  A    between atoms: C1_1  and  C2_2 
REMARK    2  A    between atoms: C2_2  and  C3_3 
REMARK    3  A    between atoms: C2_2  and  O1_4 
REMARK    4  A    between atoms: O1_4  and  C4_5 
REMARK    5  A    between atoms: C4_5  and  C5_7 
ROOT
ATOM      1  O1  <0> d          -0.016   1.338   0.009  0.00  0.00    -0.317 OA
ENDROOT
BRANCH   1   2
ATOM      2  C2  <0> d           1.268   2.015   0.001  0.00  0.00     0.041 C 
ATOM      3  H4  <0> d           1.978   1.352   0.517  0.00  0.00     0.083 H 
BRANCH   2   4
ATOM      4  C1  <0> d           1.706   2.260  -1.445  0.00  0.00    -0.052 C 
ATOM      5  H1  <0> d           1.795   1.298  -1.969  0.00  0.00     0.030 H 
ATOM      6  H2  <0> d           2.679   2.773  -1.451  0.00  0.00     0.030 H 
ATOM      7  H3  <0> d           0.958   2.887  -1.953  0.00  0.00     0.030 H 
ENDBRANCH   2   4
BRANCH   2   8
ATOM      8  C3  <0> d           1.144   3.354   0.730  0.00  0.00    -0.052 C 
ATOM      9  H5  <0> d           0.830   3.178   1.770  0.00  0.00     0.030 H 
ATOM     10  H6  <0> d           0.397   3.980   0.222  0.00  0.00     0.030 H 
ATOM     11  H7  <0> d           2.118   3.867   0.724  0.00  0.00     0.030 H 
ENDBRANCH   2   8
ENDBRANCH   1   2
BRANCH   1  12
ATOM     12  C4  <0> d           0.002  -0.004   0.002  0.00  0.00     0.263 C 
ATOM     13  O2  <0> d           1.056  -0.594  -0.011  0.00  0.00    -0.265 OA
BRANCH  12  14
ATOM     14  C5  <0> d          -1.293  -0.775   0.010  0.00  0.00     0.030 A 
ATOM     15  C7  <0> d          -1.205  -2.303   0.003  0.00  0.00    -0.052 A 
ATOM     16  C6  <0> d          -1.636  -1.566   1.274  0.00  0.00    -0.052 A 
ATOM     17  H11 <0> d          -1.890  -2.706  -0.757  0.00  0.00     0.034 H 
ATOM     18  H12 <0> d          -0.175  -2.610  -0.231  0.00  0.00     0.034 H 
ATOM     19  H9  <0> d          -0.962  -1.265   2.090  0.00  0.00     0.034 H 
ATOM     20  H10 <0> d          -2.677  -1.361   1.564  0.00  0.00     0.034 H 
ATOM     21  H8  <0> d          -1.802  -0.017  -0.602  0.00  0.00     0.055 H 
ENDBRANCH  12  14
ENDBRANCH   1  12
TORSDOF 5
