REMARK  4 active torsions:
REMARK  status: ('A' for Active; 'I' for Inactive)
REMARK    1  A    between atoms: C4_4  and  O1_7 
REMARK    2  A    between atoms: O1_7  and  C7_8 
REMARK    3  A    between atoms: C7_8  and  C8_9 
REMARK    4  A    between atoms: C8_9  and  O2_10 
ROOT
ATOM      1  C1  <0> d          -0.260   0.387   5.232  0.00  0.00    -0.065 C 
ATOM      2  C2  <0> d           0.338   1.726   4.795  0.00  0.00    -0.063 C 
ATOM      3  C3  <0> d          -0.319   2.176   3.489  0.00  0.00    -0.041 C 
ATOM      4  C4  <0> d          -0.068   1.127   2.404  0.00  0.00     0.038 C 
ATOM      5  C5  <0> d          -0.666  -0.212   2.841  0.00  0.00    -0.041 C 
ATOM      6  C6  <0> d          -0.009  -0.662   4.147  0.00  0.00    -0.063 C 
ATOM      7  H1  <0> d          -1.343   0.502   5.387  0.00  0.00     0.033 H 
ATOM      8  H2  <0> d           0.212   0.064   6.172  0.00  0.00     0.033 H 
ATOM      9  H3  <0> d           0.157   2.480   5.575  0.00  0.00     0.033 H 
ATOM     10  H4  <0> d           1.421   1.611   4.641  0.00  0.00     0.033 H 
ATOM     11  H5  <0> d          -1.402   2.291   3.644  0.00  0.00     0.036 H 
ATOM     12  H6  <0> d           0.110   3.138   3.175  0.00  0.00     0.036 H 
ATOM     13  H7  <0> d           1.005   1.031   2.183  0.00  0.00     0.083 H 
ATOM     14  H8  <0> d          -1.749  -0.097   2.996  0.00  0.00     0.036 H 
ATOM     15  H9  <0> d          -0.485  -0.967   2.061  0.00  0.00     0.036 H 
ATOM     16  H10 <0> d           1.074  -0.777   3.992  0.00  0.00     0.033 H 
ATOM     17  H11 <0> d          -0.438  -1.625   4.461  0.00  0.00     0.033 H 
ENDROOT
BRANCH   4  18
ATOM     18  O1  <0> d          -0.682   1.547   1.184  0.00  0.00    -0.384 OA
BRANCH  18  19
ATOM     19  C7  <0> d          -0.013   1.086   0.008  0.00  0.00     0.039 C 
ATOM     20  H12 <0> d           1.019   1.466   0.000  0.00  0.00     0.077 H 
ATOM     21  H13 <0> d           0.002  -0.014   0.002  0.00  0.00     0.077 H 
BRANCH  19  22
ATOM     22  C8  <0> d          -0.753   1.593  -1.232  0.00  0.00     0.036 C 
ATOM     23  H14 <0> d          -0.292   1.165  -2.134  0.00  0.00     0.077 H 
ATOM     24  H15 <0> d          -1.808   1.287  -1.179  0.00  0.00     0.077 H 
BRANCH  22  25
ATOM     25  O2  <0> d          -0.672   3.018  -1.285  0.00  0.00    -0.399 OA
ATOM     26  H16 <0> d          -1.148   3.566  -2.111  0.00  0.00     0.209 HD
ENDBRANCH  22  25
ENDBRANCH  19  22
ENDBRANCH  18  19
ENDBRANCH   4  18
TORSDOF 4
