REMARK  5 active torsions:
REMARK  status: ('A' for Active; 'I' for Inactive)
REMARK    1  A    between atoms: C1_1  and  C2_2 
REMARK    2  A    between atoms: C2_2  and  C3_4 
REMARK    3  A    between atoms: C2_2  and  O1_12 
REMARK    4  A    between atoms: C3_4  and  N1_5 
REMARK    5  A    between atoms: N1_5  and  C4_6 
ROOT
ATOM      1  N1  <0> d           3.620  -0.649  -0.036  0.00  0.00    -0.387 N 
ATOM      2  H7  <0> d           3.634  -1.619  -0.041  0.00  0.00     0.159 HD
ENDROOT
BRANCH   1   3
ATOM      3  C3  <0> d           4.877   0.102  -0.044  0.00  0.00     0.016 C 
ATOM      4  H5  <0> d           4.917   0.734  -0.931  0.00  0.00     0.067 H 
ATOM      5  H6  <0> d           4.934   0.725   0.849  0.00  0.00     0.067 H 
BRANCH   3   6
ATOM      6  C2  <0> d           6.055  -0.875  -0.060  0.00  0.00     0.047 C 
ATOM      7  H1  <0> d           5.966  -1.565   0.779  0.00  0.00     0.084 H 
BRANCH   6   8
ATOM      8  C1  <0> d           7.366  -0.095   0.058  0.00  0.00    -0.051 C 
ATOM      9  H2  <0> d           7.455   0.595  -0.781  0.00  0.00     0.030 H 
ATOM     10  H3  <0> d           7.372   0.467   0.992  0.00  0.00     0.030 H 
ATOM     11  H4  <0> d           8.205  -0.791   0.046  0.00  0.00     0.030 H 
ENDBRANCH   6   8
BRANCH   6  12
ATOM     12  O1  <0> d           6.046  -1.611  -1.284  0.00  0.00    -0.394 OA
ATOM     13  H13 <0> d           6.767  -2.251  -1.364  0.00  0.00     0.210 HD
ENDBRANCH   6  12
ENDBRANCH   3   6
ENDBRANCH   1   3
BRANCH   1  14
ATOM     14  C4  <0> d           2.400   0.031  -0.021  0.00  0.00     0.028 A 
ATOM     15  C9  <0> d           2.377   1.420  -0.013  0.00  0.00    -0.058 A 
ATOM     16  C8  <0> d           1.169   2.089   0.002  0.00  0.00    -0.081 A 
ATOM     17  H12 <0> d           3.303   1.976  -0.019  0.00  0.00     0.086 H 
ATOM     18  C7  <0> d          -0.017   1.379   0.010  0.00  0.00    -0.083 A 
ATOM     19  H11 <0> d           1.151   3.169   0.008  0.00  0.00     0.083 H 
ATOM     20  C6  <0> d           0.002  -0.004   0.002  0.00  0.00    -0.081 A 
ATOM     21  H10 <0> d          -0.960   1.905   0.017  0.00  0.00     0.083 H 
ATOM     22  C5  <0> d           1.206  -0.680  -0.013  0.00  0.00    -0.058 A 
ATOM     23  H9  <0> d          -0.926  -0.556   0.008  0.00  0.00     0.083 H 
ATOM     24  H8  <0> d           1.220  -1.760  -0.019  0.00  0.00     0.086 H 
ENDBRANCH   1  14
TORSDOF 5
