REMARK  8 active torsions:
REMARK  status: ('A' for Active; 'I' for Inactive)
REMARK    1  A    between atoms: C1_1  and  C2_2 
REMARK    2  A    between atoms: C2_2  and  C3_4 
REMARK    3  A    between atoms: C2_2  and  O1_10 
REMARK    4  A    between atoms: C3_4  and  C4_5 
REMARK    5  A    between atoms: C4_5  and  C5_6 
REMARK    6  A    between atoms: C5_6  and  C6_7 
REMARK    7  A    between atoms: C6_7  and  C7_8 
REMARK    8  A    between atoms: C6_7  and  C8_9 
ROOT
ATOM      1  C4  <0> d          -0.013   1.076   0.008  0.00  0.00     0.010 C 
ATOM      2  H7  <0> d           0.002  -0.004   0.002  0.00  0.00     0.060 H 
ENDROOT
BRANCH   1   3
ATOM      3  C3  <0> d          -1.328   1.812   0.018  0.00  0.00    -0.028 C 
ATOM      4  H5  <0> d          -1.853   1.605   0.951  0.00  0.00     0.038 H 
ATOM      5  H6  <0> d          -1.145   2.883  -0.066  0.00  0.00     0.038 H 
BRANCH   3   6
ATOM      6  C2  <0> d          -2.182   1.345  -1.162  0.00  0.00     0.033 C 
ATOM      7  H1  <0> d          -2.291   0.261  -1.126  0.00  0.00     0.082 H 
BRANCH   6   8
ATOM      8  C1  <0> d          -3.564   1.998  -1.081  0.00  0.00    -0.052 C 
ATOM      9  H2  <0> d          -3.455   3.082  -1.117  0.00  0.00     0.030 H 
ATOM     10  H3  <0> d          -4.172   1.665  -1.922  0.00  0.00     0.030 H 
ATOM     11  H4  <0> d          -4.047   1.712  -0.147  0.00  0.00     0.030 H 
ENDBRANCH   6   8
BRANCH   6  12
ATOM     12  O1  <0> d          -1.549   1.720  -2.387  0.00  0.00    -0.396 OA
ATOM     13  H14 <0> d          -1.420   2.673  -2.487  0.00  0.00     0.210 HD
ENDBRANCH   6  12
ENDBRANCH   3   6
ENDBRANCH   1   3
BRANCH   1  14
ATOM     14  C5  <0> d           1.110   1.745   0.001  0.00  0.00    -0.166 C 
BRANCH  14  15
ATOM     15  C6  <0> d           2.233   2.413  -0.006  0.00  0.00     0.022 C 
BRANCH  15  16
ATOM     16  C7  <0> d           2.893   2.792   1.295  0.00  0.00    -0.058 C 
ATOM     17  H8  <0> d           3.578   2.001   1.599  0.00  0.00     0.029 H 
ATOM     18  H9  <0> d           3.447   3.722   1.164  0.00  0.00     0.029 H 
ATOM     19  H10 <0> d           2.131   2.928   2.062  0.00  0.00     0.029 H 
ENDBRANCH  15  16
BRANCH  15  20
ATOM     20  C8  <0> d           2.868   2.806  -1.315  0.00  0.00    -0.058 C 
ATOM     21  H11 <0> d           2.181   3.439  -1.877  0.00  0.00     0.029 H 
ATOM     22  H12 <0> d           3.791   3.353  -1.122  0.00  0.00     0.029 H 
ATOM     23  H13 <0> d           3.092   1.910  -1.894  0.00  0.00     0.029 H 
ENDBRANCH  15  20
ENDBRANCH  14  15
ENDBRANCH   1  14
TORSDOF 8
