REMARK  1 active torsions:
REMARK  status: ('A' for Active; 'I' for Inactive)
REMARK    1  A    between atoms: C2_3  and  C3_7 
REMARK       I    between atoms: C3_7  and  N4_9 
ROOT
ATOM      1  C1  <0> d          -0.013   1.076   0.008  0.00  0.00     0.108 A 
ATOM      2  N1  <0> d           1.056   1.867   0.002  0.00  0.00    -0.216 NA
ATOM      3  C2  <0> d           0.621   3.115   0.012  0.00  0.00     0.213 A 
ATOM      4  H1  <0> d          -1.329   3.829   0.034  0.00  0.00     0.191 HD
ATOM      5  N2  <0> d          -0.730   3.065   0.025  0.00  0.00    -0.255 N 
ATOM      6  N3  <0> d          -1.085   1.827   0.017  0.00  0.00    -0.166 NA
ATOM      7  H2  <0> d           0.002  -0.004   0.002  0.00  0.00     0.149 H 
ENDROOT
BRANCH   3   8
ATOM      8  C3  <0> d           1.454   4.335   0.011  0.00  0.00     0.286 C 
ATOM      9  O1  <0> d           0.927   5.431   0.022  0.00  0.00    -0.264 OA
ATOM     10  N4  <0> d           2.798   4.234  -0.002  0.00  0.00    -0.363 N 
ATOM     11  H3  <0> d           3.218   3.360  -0.011  0.00  0.00     0.159 HD
ATOM     12  H4  <0> d           3.345   5.035  -0.003  0.00  0.00     0.159 HD
ENDBRANCH   3   8
TORSDOF 1
