REMARK  2 active torsions:
REMARK  status: ('A' for Active; 'I' for Inactive)
REMARK    1  A    between atoms: C1_1  and  C2_2 
REMARK    2  A    between atoms: C7_7  and  O1_9 
ROOT
ATOM      1  C2  <0> d          -2.210   1.290   1.151  0.00  0.00    -0.059 C 
ATOM      2  C3  <0> d          -2.813   0.999   0.043  0.00  0.00    -0.099 C 
ATOM      3  C4  <0> d          -2.126   0.905  -1.288  0.00  0.00    -0.049 C 
ATOM      4  C5  <0> d          -0.763   1.598  -1.228  0.00  0.00    -0.060 C 
ATOM      5  C6  <0> d          -0.013   1.086   0.008  0.00  0.00    -0.037 C 
ATOM      6  C7  <0> d          -0.737   1.583   1.260  0.00  0.00     0.057 C 
ATOM      7  H1  <0> d          -0.590   2.659   1.360  0.00  0.00     0.090 H 
ATOM      8  H5  <0> d          -3.876   0.812   0.079  0.00  0.00     0.077 H 
ATOM      9  H6  <0> d          -2.743   1.387  -2.047  0.00  0.00     0.038 H 
ATOM     10  H7  <0> d          -1.987  -0.143  -1.550  0.00  0.00     0.038 H 
ATOM     11  H8  <0> d          -0.903   2.676  -1.151  0.00  0.00     0.033 H 
ATOM     12  H9  <0> d          -0.193   1.363  -2.127  0.00  0.00     0.033 H 
ATOM     13  H10 <0> d           0.002  -0.004   0.002  0.00  0.00     0.037 H 
ATOM     14  H11 <0> d           1.009   1.466   0.000  0.00  0.00     0.037 H 
ENDROOT
BRANCH   1  15
ATOM     15  C1  <0> d          -3.033   1.336   2.412  0.00  0.00    -0.052 C 
ATOM     16  H2  <0> d          -4.072   1.103   2.177  0.00  0.00     0.033 H 
ATOM     17  H3  <0> d          -2.649   0.605   3.124  0.00  0.00     0.033 H 
ATOM     18  H4  <0> d          -2.975   2.333   2.848  0.00  0.00     0.033 H 
ENDBRANCH   1  15
BRANCH   6  19
ATOM     19  O1  <0> d          -0.201   0.927   2.411  0.00  0.00    -0.391 OA
ATOM     20  H12 <0> d          -0.613   1.193   3.244  0.00  0.00     0.210 HD
ENDBRANCH   6  19
TORSDOF 2
