REMARK  2 active torsions:
REMARK  status: ('A' for Active; 'I' for Inactive)
REMARK    1  A    between atoms: C3_3  and  O2_9 
REMARK    2  A    between atoms: C4_6  and  C5_7 
ROOT
ATOM      1  C1  <0> d          -2.509   1.218   0.021  0.00  0.00    -0.043 A 
ATOM      2  C2  <0> d          -3.691   1.939   0.031  0.00  0.00    -0.028 A 
ATOM      3  C3  <0> d          -3.610   3.330   0.038  0.00  0.00     0.183 A 
ATOM      4  N1  <0> d          -2.423   3.925   0.036  0.00  0.00    -0.124 NA
ATOM      5  N2  <0> d          -1.325   3.260   0.032  0.00  0.00    -0.141 NA
ATOM      6  C4  <0> d          -1.304   1.932   0.019  0.00  0.00     0.155 A 
ATOM      7  H1  <0> d          -2.515   0.138   0.014  0.00  0.00     0.087 H 
ATOM      8  H2  <0> d          -4.647   1.438   0.032  0.00  0.00     0.090 H 
ENDROOT
BRANCH   6   9
ATOM      9  C5  <0> d          -0.014   1.210   0.009  0.00  0.00     0.230 C 
ATOM     10  O1  <0> d           0.002  -0.004   0.002  0.00  0.00    -0.643 OA
ATOM     11  O3  <0> d           1.143   1.900   0.001  0.00  0.00    -0.643 OA
ENDBRANCH   6   9
BRANCH   3  12
ATOM     12  O2  <0> d          -4.742   4.075   0.048  0.00  0.00    -0.344 OA
ATOM     13  H3  <0> d          -5.066   4.286   0.934  0.00  0.00     0.219 HD
ENDBRANCH   3  12
TORSDOF 2
