REMARK  5 active torsions:
REMARK  status: ('A' for Active; 'I' for Inactive)
REMARK    1  A    between atoms: C1_1  and  C2_2 
REMARK    2  A    between atoms: C6_6  and  O2_10 
REMARK    3  A    between atoms: C7_7  and  O1_8 
REMARK    4  A    between atoms: O1_8  and  C8_9 
REMARK    5  A    between atoms: O2_10  and  C9_11 
ROOT
ATOM      1  C2  <0> d           1.170   2.089   0.002  0.00  0.00    -0.026 A 
ATOM      2  C3  <0> d          -0.017   1.378   0.010  0.00  0.00    -0.074 A 
ATOM      3  C4  <0> d           0.002  -0.004   0.002  0.00  0.00    -0.080 A 
ATOM      4  C5  <0> d           1.207  -0.682  -0.013  0.00  0.00    -0.048 A 
ATOM      5  C6  <0> d           2.399   0.024  -0.020  0.00  0.00     0.102 A 
ATOM      6  C7  <0> d           2.380   1.415  -0.013  0.00  0.00     0.107 A 
ATOM      7  H4  <0> d          -0.960   1.904   0.017  0.00  0.00     0.084 H 
ATOM      8  H5  <0> d          -0.926  -0.556   0.008  0.00  0.00     0.083 H 
ATOM      9  H6  <0> d           1.219  -1.762  -0.019  0.00  0.00     0.087 H 
ENDROOT
BRANCH   5  10
ATOM     10  O2  <0> d           3.585  -0.642  -0.034  0.00  0.00    -0.353 OA
BRANCH  10  11
ATOM     11  C9  <0> d           3.528  -2.070  -0.041  0.00  0.00     0.010 C 
ATOM     12  H10 <0> d           3.008  -2.416   0.853  0.00  0.00     0.066 H 
ATOM     13  H11 <0> d           2.992  -2.408  -0.927  0.00  0.00     0.066 H 
ATOM     14  H12 <0> d           4.540  -2.474  -0.052  0.00  0.00     0.066 H 
ENDBRANCH  10  11
ENDBRANCH   5  10
BRANCH   6  15
ATOM     15  O1  <0> d           3.548   2.113  -0.020  0.00  0.00    -0.353 OA
BRANCH  15  16
ATOM     16  C8  <0> d           4.093   2.452  -1.297  0.00  0.00     0.011 C 
ATOM     17  H7  <0> d           3.380   3.069  -1.844  0.00  0.00     0.067 H 
ATOM     18  H8  <0> d           5.022   3.005  -1.159  0.00  0.00     0.067 H 
ATOM     19  H9  <0> d           4.293   1.541  -1.860  0.00  0.00     0.067 H 
ENDBRANCH  15  16
ENDBRANCH   6  15
BRANCH   1  20
ATOM     20  C1  <0> d           1.145   3.595   0.010  0.00  0.00    -0.049 C 
ATOM     21  H1  <0> d           1.149   3.953   1.040  0.00  0.00     0.033 H 
ATOM     22  H2  <0> d           2.024   3.976  -0.510  0.00  0.00     0.033 H 
ATOM     23  H3  <0> d           0.245   3.947  -0.494  0.00  0.00     0.033 H 
ENDBRANCH   1  20
TORSDOF 5
