REMARK  7 active torsions:
REMARK  status: ('A' for Active; 'I' for Inactive)
REMARK    1  A    between atoms: C1_1  and  C2_2 
REMARK    2  A    between atoms: C2_2  and  N1_3 
REMARK    3  A    between atoms: N1_3  and  C3_4 
REMARK    4  A    between atoms: N1_3  and  C5_6 
REMARK    5  A    between atoms: C3_4  and  C4_5 
REMARK    6  A    between atoms: C5_6  and  C6_8 
REMARK    7  A    between atoms: C5_6  and  O1_9 
ROOT
ATOM      1  N1  <0> d           0.178   1.288   2.699  0.00  0.00     0.115 N 
ENDROOT
BRANCH   1   2
ATOM      2  C2  <0> d          -0.525   1.656   3.936  0.00  0.00     0.113 C 
ATOM      3  H5  <0> d          -1.599   1.680   3.749  0.00  0.00     0.079 H 
ATOM      4  H6  <0> d          -0.307   0.921   4.710  0.00  0.00     0.079 H 
BRANCH   2   5
ATOM      5  C1  <0> d          -0.056   3.038   4.397  0.00  0.00    -0.051 C 
ATOM      6  H2  <0> d          -0.501   3.267   5.366  0.00  0.00     0.029 H 
ATOM      7  H3  <0> d           1.030   3.042   4.486  0.00  0.00     0.029 H 
ATOM      8  H4  <0> d          -0.364   3.788   3.669  0.00  0.00     0.029 H 
ENDBRANCH   2   5
ENDBRANCH   1   2
BRANCH   1   9
ATOM      9  C3  <0> d           0.121  -0.162   2.473  0.00  0.00     0.113 C 
ATOM     10  H7  <0> d           0.355  -0.684   3.401  0.00  0.00     0.079 H 
ATOM     11  H8  <0> d          -0.880  -0.439   2.142  0.00  0.00     0.079 H 
BRANCH   9  12
ATOM     12  C4  <0> d           1.139  -0.551   1.399  0.00  0.00    -0.051 C 
ATOM     13  H9  <0> d           0.823  -0.148   0.436  0.00  0.00     0.029 H 
ATOM     14  H10 <0> d           2.116  -0.145   1.660  0.00  0.00     0.029 H 
ATOM     15  H11 <0> d           1.202  -1.637   1.334  0.00  0.00     0.029 H 
ENDBRANCH   9  12
ENDBRANCH   1   9
BRANCH   1  16
ATOM     16  C5  <0> d          -0.362   2.023   1.548  0.00  0.00     0.220 C 
ATOM     17  H1  <0> d          -0.479   3.074   1.810  0.00  0.00     0.132 H 
BRANCH  16  18
ATOM     18  C6  <0> d          -1.723   1.438   1.163  0.00  0.00    -0.026 C 
ATOM     19  H12 <0> d          -2.374   1.429   2.037  0.00  0.00     0.033 H 
ATOM     20  H13 <0> d          -1.591   0.420   0.798  0.00  0.00     0.033 H 
ATOM     21  H14 <0> d          -2.173   2.049   0.381  0.00  0.00     0.033 H 
ENDBRANCH  16  18
BRANCH  16  22
ATOM     22  O1  <0> d           0.536   1.904   0.443  0.00  0.00    -0.368 OA
ATOM     23  H15 <0> d           1.424   2.244   0.620  0.00  0.00     0.212 HD
ENDBRANCH  16  22
ENDBRANCH   1  16
TORSDOF 7
