REMARK  2 active torsions:
REMARK  status: ('A' for Active; 'I' for Inactive)
REMARK    1  A    between atoms: C4_4  and  N2_8 
REMARK    2  A    between atoms: C5_5  and  N1_7 
ROOT
ATOM      1  C1  <0> d          -0.017   1.378   0.010  0.00  0.00    -0.081 A 
ATOM      2  C2  <0> d           1.169   2.089   0.002  0.00  0.00    -0.081 A 
ATOM      3  C3  <0> d           2.380   1.423  -0.013  0.00  0.00    -0.054 A 
ATOM      4  C4  <0> d           2.408   0.037  -0.021  0.00  0.00     0.064 A 
ATOM      5  C5  <0> d           1.213  -0.681  -0.014  0.00  0.00     0.053 A 
ATOM      6  C6  <0> d           0.002  -0.004   0.002  0.00  0.00    -0.055 A 
ATOM      7  H1  <0> d          -0.960   1.903   0.026  0.00  0.00     0.083 H 
ATOM      8  H2  <0> d           1.149   3.169   0.008  0.00  0.00     0.083 H 
ATOM      9  H3  <0> d           3.304   1.982  -0.019  0.00  0.00     0.087 H 
ATOM     10  H4  <0> d          -0.926  -0.557   0.008  0.00  0.00     0.087 H 
ENDROOT
BRANCH   4  11
ATOM     11  N2  <0> d           3.637  -0.642  -0.038  0.00  0.00    -0.331 N 
ATOM     12  C10 <0> d           4.670  -0.398  -0.896  0.00  0.00    -0.015 A 
ATOM     13  C9  <0> d           5.674  -1.248  -0.600  0.00  0.00    -0.066 A 
ATOM     14  H10 <0> d           4.681   0.348  -1.677  0.00  0.00     0.112 H 
ATOM     15  C8  <0> d           5.245  -2.051   0.475  0.00  0.00    -0.066 A 
ATOM     16  H9  <0> d           6.631  -1.304  -1.097  0.00  0.00     0.085 H 
ATOM     17  C7  <0> d           3.995  -1.660   0.799  0.00  0.00    -0.015 A 
ATOM     18  H8  <0> d           5.812  -2.837   0.952  0.00  0.00     0.085 H 
ATOM     19  H7  <0> d           3.384  -2.079   1.585  0.00  0.00     0.112 H 
ENDBRANCH   4  11
BRANCH   5  20
ATOM     20  N1  <0> d           1.235  -2.079  -0.022  0.00  0.00    -0.397 N 
ATOM     21  H5  <0> d           2.082  -2.551  -0.034  0.00  0.00     0.156 HD
ATOM     22  H6  <0> d           0.402  -2.577  -0.017  0.00  0.00     0.156 HD
ENDBRANCH   5  20
TORSDOF 2
