REMARK  1 active torsions:
REMARK  status: ('A' for Active; 'I' for Inactive)
REMARK    1  A    between atoms: C4_4  and  N4_10 
ROOT
ATOM      1  C1  <0> d          -4.150  -0.501   0.019  0.00  0.00    -0.064 A 
ATOM      2  C2  <0> d          -2.757  -0.418   0.013  0.00  0.00    -0.050 A 
ATOM      3  C3  <0> d          -2.436   0.925   0.019  0.00  0.00     0.103 A 
ATOM      4  C4  <0> d          -1.216   1.640   0.017  0.00  0.00     0.151 A 
ATOM      5  N1  <0> d          -1.243   2.962   0.030  0.00  0.00    -0.221 NA
ATOM      6  C5  <0> d          -2.392   3.636   0.035  0.00  0.00     0.108 A 
ATOM      7  N2  <0> d          -3.551   3.038   0.037  0.00  0.00    -0.161 NA
ATOM      8  N3  <0> d          -3.619   1.638   0.029  0.00  0.00    -0.240 N 
ATOM      9  C6  <0> d          -4.644   0.766   0.029  0.00  0.00     0.004 A 
ATOM     10  H1  <0> d          -4.733  -1.410   0.017  0.00  0.00     0.085 H 
ATOM     11  H2  <0> d          -2.063  -1.246   0.004  0.00  0.00     0.087 H 
ATOM     12  H3  <0> d          -2.362   4.716   0.041  0.00  0.00     0.149 H 
ATOM     13  H4  <0> d          -5.691   1.030   0.035  0.00  0.00     0.114 H 
ENDROOT
BRANCH   4  14
ATOM     14  N4  <0> d          -0.011   0.966   0.007  0.00  0.00    -0.382 N 
ATOM     15  H5  <0> d           0.002  -0.004   0.002  0.00  0.00     0.157 HD
ATOM     16  H6  <0> d           0.822   1.462   0.002  0.00  0.00     0.157 HD
ENDBRANCH   4  14
TORSDOF 1
