REMARK  0 active torsions:
REMARK  status: ('A' for Active; 'I' for Inactive)
ROOT
ATOM      1  C1  <0> d          -0.019   1.528   0.010  0.00  0.00    -0.065 C 
ATOM      2  C2  <0> d           1.410   2.072  -0.000  0.00  0.00    -0.064 C 
ATOM      3  C3  <0> d           2.156   1.566  -1.240  0.00  0.00    -0.058 C 
ATOM      4  C4  <0> d           2.174   0.040  -1.213  0.00  0.00    -0.034 C 
ATOM      5  H1  <0> d           2.642  -0.290  -0.286  0.00  0.00     0.046 H 
ATOM      6  C5  <0> d           2.935  -0.530  -2.369  0.00  0.00    -0.102 C 
ATOM      7  C6  <0> d           2.566  -1.604  -2.997  0.00  0.00    -0.106 C 
ATOM      8  C7  <0> d           1.338  -2.402  -2.673  0.00  0.00    -0.050 C 
ATOM      9  C8  <0> d           0.774  -2.005  -1.305  0.00  0.00    -0.058 C 
ATOM     10  C9  <0> d           0.735  -0.478  -1.251  0.00  0.00    -0.047 C 
ATOM     11  H2  <0> d           0.231  -0.086  -2.135  0.00  0.00     0.041 H 
ATOM     12  C10 <0> d           0.002  -0.004   0.002  0.00  0.00    -0.061 C 
ATOM     13  H3  <0> d          -0.532   1.878   0.906  0.00  0.00     0.033 H 
ATOM     14  H4  <0> d          -0.549   1.887  -0.872  0.00  0.00     0.033 H 
ATOM     15  H5  <0> d           1.382   3.162  -0.015  0.00  0.00     0.033 H 
ATOM     16  H6  <0> d           1.931   1.738   0.897  0.00  0.00     0.033 H 
ATOM     17  H7  <0> d           1.645   1.910  -2.139  0.00  0.00     0.033 H 
ATOM     18  H8  <0> d           3.178   1.944  -1.230  0.00  0.00     0.033 H 
ATOM     19  H9  <0> d           3.832  -0.025  -2.695  0.00  0.00     0.076 H 
ATOM     20  H10 <0> d           3.187  -1.948  -3.810  0.00  0.00     0.076 H 
ATOM     21  H11 <0> d           0.582  -2.222  -3.438  0.00  0.00     0.038 H 
ATOM     22  H12 <0> d           1.591  -3.462  -2.662  0.00  0.00     0.038 H 
ATOM     23  H13 <0> d          -0.233  -2.405  -1.192  0.00  0.00     0.033 H 
ATOM     24  H14 <0> d           1.417  -2.394  -0.515  0.00  0.00     0.033 H 
ATOM     25  H15 <0> d           0.522  -0.367   0.889  0.00  0.00     0.033 H 
ATOM     26  H16 <0> d          -1.020  -0.383  -0.006  0.00  0.00     0.033 H 
ENDROOT
TORSDOF 0
