REMARK  0 active torsions:
REMARK  status: ('A' for Active; 'I' for Inactive)
ROOT
ATOM      1  C1  <0> d          -0.016   1.316   0.009  0.00  0.00     0.090 A 
ATOM      2  N1  <0> d           1.102   2.021   0.002  0.00  0.00    -0.213 NA
ATOM      3  C2  <0> d           2.296   1.454  -0.012  0.00  0.00     0.235 A 
ATOM      4  O1  <0> d           3.417   2.213  -0.018  0.00  0.00    -0.167 OA
ATOM      5  C3  <0> d           2.385   0.038  -0.021  0.00  0.00     0.172 A 
ATOM      6  N2  <0> d           3.444  -0.776  -0.035  0.00  0.00    -0.135 NA
ATOM      7  N3  <0> d           3.336  -2.058  -0.041  0.00  0.00    -0.108 NA
ATOM      8  S1  <0> d           1.679  -2.339  -0.027  0.00  0.00     0.057 SA
ATOM      9  C4  <0> d           1.146  -0.648  -0.012  0.00  0.00     0.153 A 
ATOM     10  N4  <0> d           0.002  -0.004   0.002  0.00  0.00    -0.231 NA
ATOM     11  H1  <0> d          -0.965   1.831   0.026  0.00  0.00     0.146 H 
ENDROOT
TORSDOF 0
