REMARK  2 active torsions:
REMARK  status: ('A' for Active; 'I' for Inactive)
REMARK    1  A    between atoms: C1_1  and  C2_2 
REMARK    2  A    between atoms: C4_4  and  N2_12 
ROOT
ATOM      1  C2  <0> d           0.710  -2.686  -0.020  0.00  0.00    -0.058 A 
ATOM      2  C3  <0> d          -0.630  -2.326  -0.004  0.00  0.00    -0.051 A 
ATOM      3  C4  <0> d          -0.994  -0.991   0.006  0.00  0.00     0.038 A 
ATOM      4  C5  <0> d           0.002  -0.004   0.002  0.00  0.00     0.018 A 
ATOM      5  C6  <0> d          -0.018   1.460   0.010  0.00  0.00    -0.054 A 
ATOM      6  C7  <0> d           1.260   1.870   0.000  0.00  0.00    -0.022 A 
ATOM      7  N1  <0> d           2.097   0.786  -0.014  0.00  0.00    -0.365 N 
ATOM      8  H1  <0> d           3.066   0.829  -0.023  0.00  0.00     0.165 HD
ATOM      9  C8  <0> d           1.357  -0.376  -0.013  0.00  0.00     0.045 A 
ATOM     10  C9  <0> d           1.697  -1.726  -0.023  0.00  0.00    -0.051 A 
ATOM     11  H5  <0> d          -1.393  -3.091  -0.001  0.00  0.00     0.087 H 
ATOM     12  H6  <0> d          -0.894   2.091   0.018  0.00  0.00     0.087 H 
ATOM     13  H7  <0> d           1.581   2.901   0.003  0.00  0.00     0.111 H 
ATOM     14  H8  <0> d           2.736  -2.021  -0.035  0.00  0.00     0.087 H 
ENDROOT
BRANCH   1  15
ATOM     15  C1  <0> d           1.089  -4.145  -0.032  0.00  0.00    -0.051 C 
ATOM     16  H2  <0> d           1.190  -4.502   0.993  0.00  0.00     0.033 H 
ATOM     17  H3  <0> d           0.314  -4.717  -0.541  0.00  0.00     0.033 H 
ATOM     18  H4  <0> d           2.037  -4.269  -0.555  0.00  0.00     0.033 H 
ENDBRANCH   1  15
BRANCH   3  19
ATOM     19  N2  <0> d          -2.342  -0.630   0.021  0.00  0.00    -0.398 N 
ATOM     20  H9  <0> d          -2.592   0.307   0.029  0.00  0.00     0.156 HD
ATOM     21  H10 <0> d          -3.027  -1.316   0.024  0.00  0.00     0.156 HD
ENDBRANCH   3  19
TORSDOF 2
