REMARK  4 active torsions:
REMARK  status: ('A' for Active; 'I' for Inactive)
REMARK    1  A    between atoms: C2_2  and  C3_3 
REMARK    2  A    between atoms: C3_3  and  C4_4 
REMARK    3  A    between atoms: C9_9  and  C10_10 
REMARK    4  A    between atoms: C10_10  and  O1_11 
ROOT
ATOM      1  C4  <0> d          -2.170   1.352  -1.144  0.00  0.00    -0.046 A 
ATOM      2  C5  <0> d          -2.162   2.066  -2.328  0.00  0.00    -0.076 A 
ATOM      3  C6  <0> d          -2.930   1.642  -3.396  0.00  0.00    -0.082 A 
ATOM      4  C7  <0> d          -3.714   0.509  -3.276  0.00  0.00    -0.082 A 
ATOM      5  C8  <0> d          -3.726  -0.202  -2.091  0.00  0.00    -0.074 A 
ATOM      6  C9  <0> d          -2.953   0.220  -1.025  0.00  0.00    -0.028 A 
ATOM      7  H6  <0> d          -1.553   2.953  -2.420  0.00  0.00     0.084 H 
ATOM      8  H7  <0> d          -2.922   2.197  -4.322  0.00  0.00     0.083 H 
ATOM      9  H8  <0> d          -4.318   0.180  -4.109  0.00  0.00     0.083 H 
ATOM     10  H9  <0> d          -4.338  -1.086  -1.998  0.00  0.00     0.084 H 
ENDROOT
BRANCH   1  11
ATOM     11  C3  <0> d          -1.328   1.812   0.018  0.00  0.00    -0.026 C 
ATOM     12  H4  <0> d          -1.853   1.605   0.951  0.00  0.00     0.045 H 
ATOM     13  H5  <0> d          -1.145   2.883  -0.066  0.00  0.00     0.045 H 
BRANCH  11  14
ATOM     14  C2  <0> d          -0.013   1.076   0.008  0.00  0.00    -0.108 C 
ATOM     15  C1  <0> d           1.113   1.746   0.001  0.00  0.00    -0.124 C 
ATOM     16  H1  <0> d           2.055   1.219  -0.011  0.00  0.00     0.066 H 
ATOM     17  H2  <0> d           1.098   2.826   0.007  0.00  0.00     0.066 H 
ATOM     18  H3  <0> d           0.002  -0.004   0.002  0.00  0.00     0.076 H 
ENDBRANCH  11  14
ENDBRANCH   1  11
BRANCH   6  19
ATOM     19  C10 <0> d          -2.966  -0.555   0.268  0.00  0.00     0.041 C 
ATOM     20  H10 <0> d          -1.959  -0.907   0.490  0.00  0.00     0.081 H 
ATOM     21  H11 <0> d          -3.312   0.090   1.075  0.00  0.00     0.081 H 
BRANCH  19  22
ATOM     22  O1  <0> d          -3.845  -1.675   0.143  0.00  0.00    -0.396 OA
ATOM     23  H12 <0> d          -3.903  -2.220   0.940  0.00  0.00     0.209 HD
ENDBRANCH  19  22
ENDBRANCH   6  19
TORSDOF 4
