REMARK  5 active torsions:
REMARK  status: ('A' for Active; 'I' for Inactive)
REMARK    1  A    between atoms: C1_1  and  N1_2 
REMARK    2  A    between atoms: N1_2  and  C2_3 
REMARK       I    between atoms: N1_2  and  C3_4 
REMARK    3  A    between atoms: C3_4  and  O2_6 
REMARK    4  A    between atoms: O2_6  and  C4_7 
REMARK    5  A    between atoms: C4_7  and  C5_8 
ROOT
ATOM      1  N1  <0> d          -5.456   1.435   2.009  0.00  0.00    -0.337 N 
ATOM      2  C3  <0> d          -4.567   0.946   1.122  0.00  0.00     0.362 C 
ATOM      3  O1  <0> d          -4.858  -0.014   0.436  0.00  0.00    -0.238 OA
ENDROOT
BRANCH   2   4
ATOM      4  O2  <0> d          -3.357   1.523   0.994  0.00  0.00    -0.300 OA
BRANCH   4   5
ATOM      5  C4  <0> d          -2.451   0.944   0.019  0.00  0.00     0.045 C 
ATOM      6  H7  <0> d          -2.904   0.992  -0.972  0.00  0.00     0.081 H 
ATOM      7  H8  <0> d          -2.253  -0.096   0.278  0.00  0.00     0.081 H 
BRANCH   5   8
ATOM      8  C5  <0> d          -1.156   1.715   0.017  0.00  0.00    -0.089 C 
ATOM      9  C6  <0> d          -0.013   1.076   0.008  0.00  0.00    -0.123 C 
ATOM     10  H10 <0> d           0.002  -0.004   0.002  0.00  0.00     0.066 H 
ATOM     11  H11 <0> d           0.915   1.629   0.002  0.00  0.00     0.066 H 
ATOM     12  H9  <0> d          -1.171   2.795   0.023  0.00  0.00     0.078 H 
ENDBRANCH   5   8
ENDBRANCH   4   5
ENDBRANCH   2   4
BRANCH   1  13
ATOM     13  C1  <0> d          -6.773   0.807   2.148  0.00  0.00    -0.015 C 
ATOM     14  H1  <0> d          -6.850  -0.032   1.457  0.00  0.00     0.056 H 
ATOM     15  H2  <0> d          -6.899   0.450   3.170  0.00  0.00     0.056 H 
ATOM     16  H3  <0> d          -7.549   1.538   1.920  0.00  0.00     0.056 H 
ENDBRANCH   1  13
BRANCH   1  17
ATOM     17  C2  <0> d          -5.106   2.593   2.835  0.00  0.00    -0.015 C 
ATOM     18  H4  <0> d          -5.394   3.508   2.319  0.00  0.00     0.056 H 
ATOM     19  H5  <0> d          -5.632   2.532   3.788  0.00  0.00     0.056 H 
ATOM     20  H6  <0> d          -4.031   2.599   3.014  0.00  0.00     0.056 H 
ENDBRANCH   1  17
TORSDOF 5
