REMARK  9 active torsions:
REMARK  status: ('A' for Active; 'I' for Inactive)
REMARK    1  A    between atoms: C1_1  and  C2_2 
REMARK    2  A    between atoms: C2_2  and  C3_4 
REMARK    3  A    between atoms: C2_2  and  C4_6 
REMARK    4  A    between atoms: C3_4  and  O1_5 
REMARK    5  A    between atoms: C4_6  and  C5_8 
REMARK    6  A    between atoms: C4_6  and  O2_12 
REMARK    7  A    between atoms: C5_8  and  C6_9 
REMARK    8  A    between atoms: C5_8  and  C7_10 
REMARK    9  A    between atoms: C5_8  and  C8_11 
ROOT
ATOM      1  C4  <0> d           0.939   2.949   0.493  0.00  0.00     0.047 C 
ATOM      2  H2  <0> d           0.905   3.981   0.142  0.00  0.00     0.084 H 
ENDROOT
BRANCH   1   3
ATOM      3  C2  <0> d           1.808   2.118  -0.453  0.00  0.00    -0.012 C 
ATOM      4  H1  <0> d           1.945   1.120  -0.036  0.00  0.00     0.046 H 
BRANCH   3   5
ATOM      5  C1  <0> d           3.171   2.793  -0.618  0.00  0.00    -0.069 C 
ATOM      6  H3  <0> d           3.045   3.875  -0.602  0.00  0.00     0.028 H 
ATOM      7  H4  <0> d           3.827   2.491   0.198  0.00  0.00     0.028 H 
ATOM      8  H5  <0> d           3.612   2.493  -1.569  0.00  0.00     0.028 H 
ENDBRANCH   3   5
BRANCH   3   9
ATOM      9  C3  <0> d           1.122   2.012  -1.816  0.00  0.00     0.022 C 
ATOM     10  H6  <0> d           0.116   1.613  -1.687  0.00  0.00     0.074 H 
ATOM     11  H7  <0> d           1.065   3.001  -2.272  0.00  0.00     0.074 H 
BRANCH   9  12
ATOM     12  O1  <0> d           1.875   1.141  -2.662  0.00  0.00    -0.400 OA
ATOM     13  H8  <0> d           1.498   1.026  -3.545  0.00  0.00     0.209 HD
ENDBRANCH   9  12
ENDBRANCH   3   9
ENDBRANCH   1   3
BRANCH   1  14
ATOM     14  C5  <0> d           1.534   2.908   1.902  0.00  0.00    -0.025 C 
BRANCH  14  15
ATOM     15  C6  <0> d           1.758   1.453   2.318  0.00  0.00    -0.067 C 
ATOM     16  H9  <0> d           2.446   0.978   1.619  0.00  0.00     0.028 H 
ATOM     17  H10 <0> d           2.182   1.424   3.322  0.00  0.00     0.028 H 
ATOM     18  H11 <0> d           0.807   0.922   2.310  0.00  0.00     0.028 H 
ENDBRANCH  14  15
BRANCH  14  19
ATOM     19  C7  <0> d           2.869   3.654   1.913  0.00  0.00    -0.067 C 
ATOM     20  H12 <0> d           2.817   4.504   1.232  0.00  0.00     0.028 H 
ATOM     21  H13 <0> d           3.078   4.010   2.922  0.00  0.00     0.028 H 
ATOM     22  H14 <0> d           3.664   2.981   1.593  0.00  0.00     0.028 H 
ENDBRANCH  14  19
BRANCH  14  23
ATOM     23  C8  <0> d           0.568   3.576   2.883  0.00  0.00    -0.067 C 
ATOM     24  H15 <0> d          -0.384   3.045   2.875  0.00  0.00     0.028 H 
ATOM     25  H16 <0> d           0.992   3.547   3.886  0.00  0.00     0.028 H 
ATOM     26  H17 <0> d           0.408   4.613   2.586  0.00  0.00     0.028 H 
ENDBRANCH  14  23
ENDBRANCH   1  14
BRANCH   1  27
ATOM     27  O2  <0> d          -0.385   2.412   0.519  0.00  0.00    -0.394 OA
ATOM     28  H18 <0> d          -0.431   1.494   0.822  0.00  0.00     0.210 HD
ENDBRANCH   1  27
TORSDOF 9
