REMARK  2 active torsions:
REMARK  status: ('A' for Active; 'I' for Inactive)
REMARK    1  A    between atoms: C1_1  and  C2_2 
REMARK    2  A    between atoms: C7_7  and  O1_12 
ROOT
ATOM      1  C2  <0> d           0.002  -0.004   0.002  0.00  0.00     0.036 A 
ATOM      2  C3  <0> d           0.008  -0.811  -1.120  0.00  0.00     0.021 A 
ATOM      3  C4  <0> d          -0.002  -0.578  -2.513  0.00  0.00    -0.069 A 
ATOM      4  C5  <0> d           0.009  -1.631  -3.369  0.00  0.00    -0.079 A 
ATOM      5  C6  <0> d           0.029  -2.950  -2.912  0.00  0.00    -0.049 A 
ATOM      6  C7  <0> d           0.038  -3.248  -1.584  0.00  0.00     0.097 A 
ATOM      7  C8  <0> d           0.029  -2.199  -0.634  0.00  0.00     0.122 A 
ATOM      8  N1  <0> d           0.034  -2.141   0.685  0.00  0.00    -0.171 NA
ATOM      9  N2  <0> d           0.024  -0.799   1.082  0.00  0.00    -0.281 N 
ATOM     10  H1  <0> d           0.029  -0.490   2.001  0.00  0.00     0.189 HD
ATOM     11  H5  <0> d          -0.017   0.432  -2.895  0.00  0.00     0.085 H 
ATOM     12  H6  <0> d           0.002  -1.443  -4.432  0.00  0.00     0.083 H 
ATOM     13  H7  <0> d           0.036  -3.755  -3.632  0.00  0.00     0.087 H 
ENDROOT
BRANCH   1  14
ATOM     14  C1  <0> d          -0.018   1.503   0.010  0.00  0.00    -0.035 C 
ATOM     15  H2  <0> d           1.004   1.880   0.003  0.00  0.00     0.035 H 
ATOM     16  H3  <0> d          -0.545   1.864  -0.873  0.00  0.00     0.035 H 
ATOM     17  H4  <0> d          -0.529   1.854   0.907  0.00  0.00     0.035 H 
ENDBRANCH   1  14
BRANCH   6  18
ATOM     18  O1  <0> d           0.056  -4.543  -1.173  0.00  0.00    -0.358 OA
ATOM     19  H8  <0> d           0.945  -4.907  -1.058  0.00  0.00     0.217 HD
ENDBRANCH   6  18
TORSDOF 2
