REMARK  8 active torsions:
REMARK  status: ('A' for Active; 'I' for Inactive)
REMARK    1  A    between atoms: C1_1  and  C2_2 
REMARK    2  A    between atoms: C2_2  and  C3_3 
REMARK    3  A    between atoms: C3_3  and  O1_7 
REMARK    4  A    between atoms: O1_7  and  C5_8 
REMARK    5  A    between atoms: C5_8  and  C6_10 
REMARK    6  A    between atoms: C5_8  and  O2_11 
REMARK    7  A    between atoms: O2_11  and  C7_12 
REMARK    8  A    between atoms: C7_12  and  C8_13 
ROOT
ATOM      1  C3  <0> d           2.083   1.556   1.732  0.00  0.00     0.124 C 
ATOM      2  H1  <0> d           2.013   0.551   1.317  0.00  0.00     0.106 H 
ATOM      3  C4  <0> d           1.903   2.545   0.657  0.00  0.00     0.091 C 
ATOM      4  N1  <0> d           1.765   3.309  -0.172  0.00  0.00    -0.195 NA
ENDROOT
BRANCH   1   5
ATOM      5  C2  <0> d           3.458   1.746   2.377  0.00  0.00    -0.032 C 
ATOM      6  H6  <0> d           4.229   1.698   1.608  0.00  0.00     0.037 H 
ATOM      7  H7  <0> d           3.496   2.718   2.870  0.00  0.00     0.037 H 
BRANCH   5   8
ATOM      8  C1  <0> d           3.695   0.641   3.408  0.00  0.00    -0.073 C 
ATOM      9  H3  <0> d           2.924   0.690   4.176  0.00  0.00     0.027 H 
ATOM     10  H4  <0> d           3.656  -0.330   2.915  0.00  0.00     0.027 H 
ATOM     11  H5  <0> d           4.674   0.777   3.867  0.00  0.00     0.027 H 
ENDBRANCH   5   8
ENDBRANCH   1   5
BRANCH   1  12
ATOM     12  O1  <0> d           1.065   1.735   2.720  0.00  0.00    -0.342 OA
BRANCH  12  13
ATOM     13  C5  <0> d           0.324   0.548   3.012  0.00  0.00     0.129 C 
ATOM     14  H2  <0> d           1.008  -0.298   3.085  0.00  0.00     0.128 H 
BRANCH  13  15
ATOM     15  C6  <0> d          -0.415   0.723   4.340  0.00  0.00    -0.031 C 
ATOM     16  H8  <0> d          -0.980  -0.182   4.564  0.00  0.00     0.034 H 
ATOM     17  H9  <0> d           0.307   0.907   5.136  0.00  0.00     0.034 H 
ATOM     18  H10 <0> d          -1.098   1.569   4.267  0.00  0.00     0.034 H 
ENDBRANCH  13  15
BRANCH  13  19
ATOM     19  O2  <0> d          -0.622   0.308   1.969  0.00  0.00    -0.362 OA
BRANCH  19  20
ATOM     20  C7  <0> d          -0.043  -0.204   0.766  0.00  0.00     0.019 C 
ATOM     21  H11 <0> d           0.516  -1.113   0.991  0.00  0.00     0.073 H 
ATOM     22  H12 <0> d           0.629   0.541   0.341  0.00  0.00     0.073 H 
BRANCH  20  23
ATOM     23  C8  <0> d          -1.153  -0.523  -0.238  0.00  0.00    -0.056 C 
ATOM     24  H13 <0> d          -0.712  -0.914  -1.155  0.00  0.00     0.030 H 
ATOM     25  H14 <0> d          -1.825  -1.268   0.188  0.00  0.00     0.030 H 
ATOM     26  H15 <0> d          -1.712   0.385  -0.462  0.00  0.00     0.030 H 
ENDBRANCH  20  23
ENDBRANCH  19  20
ENDBRANCH  13  19
ENDBRANCH  12  13
ENDBRANCH   1  12
TORSDOF 8
