REMARK  3 active torsions:
REMARK  status: ('A' for Active; 'I' for Inactive)
REMARK    1  A    between atoms: C5_6  and  C6_7 
REMARK       I    between atoms: C6_7  and  N2_9 
REMARK    2  A    between atoms: N2_9  and  C7_10 
REMARK    3  A    between atoms: C7_10  and  O2_11 
ROOT
ATOM      1  C1  <0> d          -1.224   1.741   0.017  0.00  0.00    -0.051 A 
ATOM      2  C2  <0> d          -0.013   1.076   0.008  0.00  0.00     0.003 A 
ATOM      3  N1  <0> d           1.125   1.742   0.001  0.00  0.00    -0.273 NA
ATOM      4  C3  <0> d           1.165   3.059   0.007  0.00  0.00     0.003 A 
ATOM      5  C4  <0> d           0.001   3.804   0.022  0.00  0.00    -0.051 A 
ATOM      6  C5  <0> d          -1.229   3.139   0.030  0.00  0.00     0.034 A 
ATOM      7  H1  <0> d          -2.152   1.189   0.019  0.00  0.00     0.087 H 
ATOM      8  H2  <0> d           0.002  -0.004   0.002  0.00  0.00     0.114 H 
ATOM      9  H3  <0> d           2.120   3.563   0.000  0.00  0.00     0.114 H 
ATOM     10  H4  <0> d           0.041   4.883   0.026  0.00  0.00     0.087 H 
ENDROOT
BRANCH   6  11
ATOM     11  C6  <0> d          -2.503   3.895   0.045  0.00  0.00     0.253 C 
ATOM     12  O1  <0> d          -2.488   5.110   0.051  0.00  0.00    -0.268 OA
ATOM     13  N2  <0> d          -3.678   3.235   0.053  0.00  0.00    -0.336 N 
ATOM     14  H5  <0> d          -3.690   2.265   0.048  0.00  0.00     0.164 HD
BRANCH  13  15
ATOM     15  C7  <0> d          -4.938   3.983   0.068  0.00  0.00     0.077 C 
ATOM     16  H6  <0> d          -5.675   3.442   0.661  0.00  0.00     0.106 H 
ATOM     17  H7  <0> d          -4.771   4.968   0.505  0.00  0.00     0.106 H 
BRANCH  15  18
ATOM     18  O2  <0> d          -5.420   4.132  -1.269  0.00  0.00    -0.382 OA
ATOM     19  H8  <0> d          -6.253   4.618  -1.336  0.00  0.00     0.211 HD
ENDBRANCH  15  18
ENDBRANCH  13  15
ENDBRANCH   6  11
TORSDOF 3
