REMARK  2 active torsions:
REMARK  status: ('A' for Active; 'I' for Inactive)
REMARK    1  A    between atoms: C1_1  and  N1_2 
REMARK    2  A    between atoms: N1_2  and  C2_3 
ROOT
ATOM      1  C2  <0> d           2.333   3.934   0.001  0.00  0.00     0.137 A 
ATOM      2  C3  <0> d           1.144   3.164   0.008  0.00  0.00     0.038 A 
ATOM      3  C4  <0> d           1.165   1.765   0.000  0.00  0.00    -0.067 A 
ATOM      4  C5  <0> d          -0.013   1.076   0.008  0.00  0.00    -0.082 A 
ATOM      5  C6  <0> d          -1.233   1.746   0.017  0.00  0.00    -0.081 A 
ATOM      6  C7  <0> d          -1.286   3.108   0.030  0.00  0.00    -0.054 A 
ATOM      7  C8  <0> d          -0.096   3.847   0.023  0.00  0.00     0.072 A 
ATOM      8  N2  <0> d          -0.092   5.189   0.030  0.00  0.00    -0.241 NA
ATOM      9  C9  <0> d           1.040   5.851   0.023  0.00  0.00     0.089 A 
ATOM     10  N3  <0> d           2.223   5.256   0.009  0.00  0.00    -0.224 NA
ATOM     11  H5  <0> d           2.105   1.234  -0.011  0.00  0.00     0.085 H 
ATOM     12  H6  <0> d           0.002  -0.004   0.002  0.00  0.00     0.083 H 
ATOM     13  H7  <0> d          -2.151   1.178   0.019  0.00  0.00     0.083 H 
ATOM     14  H8  <0> d          -2.240   3.614   0.041  0.00  0.00     0.087 H 
ATOM     15  H9  <0> d           1.006   6.930   0.029  0.00  0.00     0.146 H 
ENDROOT
BRANCH   1  16
ATOM     16  N1  <0> d           3.571   3.327  -0.013  0.00  0.00    -0.378 N 
ATOM     17  H4  <0> d           3.636   2.359  -0.019  0.00  0.00     0.160 HD
BRANCH  16  18
ATOM     18  C1  <0> d           4.787   4.143  -0.020  0.00  0.00    -0.020 C 
ATOM     19  H1  <0> d           4.794   4.777  -0.907  0.00  0.00     0.056 H 
ATOM     20  H2  <0> d           4.810   4.768   0.873  0.00  0.00     0.056 H 
ATOM     21  H3  <0> d           5.661   3.492  -0.031  0.00  0.00     0.056 H 
ENDBRANCH  16  18
ENDBRANCH   1  16
TORSDOF 2
