REMARK  2 active torsions:
REMARK  status: ('A' for Active; 'I' for Inactive)
REMARK    1  A    between atoms: C1_1  and  C2_2 
REMARK    2  A    between atoms: C2_2  and  C3_3 
ROOT
ATOM      1  C3  <0> d           1.473  -0.456  -0.014  0.00  0.00     0.024 C 
ATOM      2  C4  <0> d           0.002  -0.004   0.002  0.00  0.00     0.036 C 
ATOM      3  O1  <0> d          -0.017   1.429   0.010  0.00  0.00    -0.338 OA
ATOM      4  C5  <0> d           1.290   2.013   0.001  0.00  0.00     0.234 C 
ATOM      5  O2  <0> d           2.009   1.572   1.158  0.00  0.00    -0.338 OA
ATOM      6  C6  <0> d           2.159   0.148   1.224  0.00  0.00     0.036 C 
ATOM      7  O3  <0> d           1.987   1.585  -1.175  0.00  0.00    -0.338 OA
ATOM      8  C7  <0> d           2.135   0.161  -1.259  0.00  0.00     0.036 C 
ATOM      9  H6  <0> d          -0.491  -0.385   0.897  0.00  0.00     0.076 H 
ATOM     10  H7  <0> d          -0.508  -0.375  -0.887  0.00  0.00     0.076 H 
ATOM     11  H8  <0> d           1.207   3.099   0.013  0.00  0.00     0.179 H 
ATOM     12  H9  <0> d           1.685  -0.231   2.129  0.00  0.00     0.076 H 
ATOM     13  H10 <0> d           3.217  -0.112   1.223  0.00  0.00     0.076 H 
ATOM     14  H11 <0> d           3.193  -0.099  -1.281  0.00  0.00     0.076 H 
ATOM     15  H12 <0> d           1.645  -0.208  -2.159  0.00  0.00     0.076 H 
ENDROOT
BRANCH   1  16
ATOM     16  C2  <0> d           1.579  -1.982  -0.013  0.00  0.00    -0.056 C 
ATOM     17  H4  <0> d           1.103  -2.378   0.884  0.00  0.00     0.033 H 
ATOM     18  H5  <0> d           1.082  -2.382  -0.896  0.00  0.00     0.033 H 
BRANCH  16  19
ATOM     19  C1  <0> d           3.054  -2.390  -0.029  0.00  0.00    -0.076 C 
ATOM     20  H1  <0> d           3.531  -1.993  -0.926  0.00  0.00     0.027 H 
ATOM     21  H2  <0> d           3.551  -1.990   0.854  0.00  0.00     0.027 H 
ATOM     22  H3  <0> d           3.130  -3.477  -0.028  0.00  0.00     0.027 H 
ENDBRANCH  16  19
ENDBRANCH   1  16
TORSDOF 2
