REMARK  3 active torsions:
REMARK  status: ('A' for Active; 'I' for Inactive)
REMARK    1  A    between atoms: C1_1  and  C2_2 
REMARK    2  A    between atoms: C2_2  and  C3_4 
REMARK    3  A    between atoms: C2_2  and  O1_9 
ROOT
ATOM      1  C2  <0> d          -0.013   1.086   0.008  0.00  0.00     0.080 C 
ATOM      2  H1  <0> d          -0.018  -0.012  -0.059  0.00  0.00     0.093 H 
ENDROOT
BRANCH   1   3
ATOM      3  C1  <0> d          -0.729   1.579   1.267  0.00  0.00    -0.047 C 
ATOM      4  H2  <0> d          -1.761   1.198   1.275  0.00  0.00     0.031 H 
ATOM      5  H3  <0> d          -0.744   2.679   1.273  0.00  0.00     0.031 H 
ATOM      6  H4  <0> d          -0.197   1.215   2.158  0.00  0.00     0.031 H 
ENDBRANCH   1   3
BRANCH   1   7
ATOM      7  C3  <0> d           1.401   1.607  -0.003  0.00  0.00     0.102 A 
ATOM      8  S1  <0> d           1.970   3.209  -0.357  0.00  0.00    -0.083 SA
ATOM      9  C5  <0> d           3.713   2.892  -0.126  0.00  0.00    -0.026 A 
ATOM     10  C4  <0> d           3.686   1.573   0.195  0.00  0.00     0.009 A 
ATOM     11  H6  <0> d           4.556   3.561  -0.220  0.00  0.00     0.097 H 
ATOM     12  N1  <0> d           2.519   0.966   0.248  0.00  0.00    -0.255 NA
ATOM     13  H5  <0> d           4.599   1.035   0.403  0.00  0.00     0.115 H 
ENDBRANCH   1   7
BRANCH   1  14
ATOM     14  O1  <0> d          -0.704   1.559  -1.150  0.00  0.00    -0.389 OA
ATOM     15  H7  <0> d          -0.334   1.304  -2.154  0.00  0.00     0.210 HD
ENDBRANCH   1  14
TORSDOF 3
