REMARK  1 active torsions:
REMARK  status: ('A' for Active; 'I' for Inactive)
REMARK    1  A    between atoms: C3_3  and  N2_10 
ROOT
ATOM      1  C1  <0> d          -1.236   2.112   0.019  0.00  0.00    -0.061 A 
ATOM      2  C2  <0> d          -1.252   3.489   0.032  0.00  0.00    -0.055 A 
ATOM      3  C3  <0> d          -0.056   4.200   0.024  0.00  0.00     0.047 A 
ATOM      4  C4  <0> d           1.161   3.522   0.009  0.00  0.00     0.061 A 
ATOM      5  C5  <0> d           1.183   2.145   0.002  0.00  0.00    -0.040 A 
ATOM      6  C6  <0> d          -0.017   1.428   0.010  0.00  0.00     0.046 A 
ATOM      7  C7  <0> d           0.002  -0.004   0.002  0.00  0.00     0.099 C 
ATOM      8  N1  <0> d           0.018  -1.140  -0.004  0.00  0.00    -0.191 NA
ATOM      9 Cl1  <0> d           2.650   4.414   0.001  0.00  0.00    -0.082 Cl
ATOM     10  H1  <0> d          -2.165   1.561   0.021  0.00  0.00     0.086 H 
ATOM     11  H2  <0> d          -2.194   4.017   0.043  0.00  0.00     0.087 H 
ATOM     12  H3  <0> d           2.127   1.620  -0.009  0.00  0.00     0.088 H 
ENDROOT
BRANCH   3  13
ATOM     13  N2  <0> d          -0.076   5.592   0.031  0.00  0.00    -0.398 N 
ATOM     14  H4  <0> d           0.757   6.089   0.025  0.00  0.00     0.156 HD
ATOM     15  H5  <0> d          -0.923   6.065   0.041  0.00  0.00     0.156 HD
ENDBRANCH   3  13
TORSDOF 1
