REMARK  0 active torsions:
REMARK  status: ('A' for Active; 'I' for Inactive)
ROOT
ATOM      1  C1  <0> d           2.404   0.041  -0.021  0.00  0.00    -0.081 A 
ATOM      2  C2  <0> d           2.386   1.425  -0.013  0.00  0.00    -0.081 A 
ATOM      3  C3  <0> d           1.186   2.109   0.002  0.00  0.00    -0.061 A 
ATOM      4  C4  <0> d          -0.017   1.405   0.010  0.00  0.00     0.065 A 
ATOM      5  C5  <0> d           0.002  -0.004   0.002  0.00  0.00     0.065 A 
ATOM      6  C6  <0> d           1.224  -0.675  -0.013  0.00  0.00    -0.061 A 
ATOM      7  C7  <0> d          -1.225  -0.742   0.009  0.00  0.00     0.101 C 
ATOM      8  N1  <0> d          -2.199  -1.327   0.015  0.00  0.00    -0.191 NA
ATOM      9  C8  <0> d          -1.264   2.108   0.019  0.00  0.00     0.101 C 
ATOM     10  N2  <0> d          -2.253   2.667   0.027  0.00  0.00    -0.191 NA
ATOM     11  H1  <0> d           3.349  -0.483  -0.033  0.00  0.00     0.083 H 
ATOM     12  H2  <0> d           3.316   1.974  -0.019  0.00  0.00     0.083 H 
ATOM     13  H3  <0> d           1.180   3.189   0.008  0.00  0.00     0.085 H 
ATOM     14  H4  <0> d           1.247  -1.755  -0.020  0.00  0.00     0.085 H 
ENDROOT
TORSDOF 0
