REMARK  6 active torsions:
REMARK  status: ('A' for Active; 'I' for Inactive)
REMARK    1  A    between atoms: C1_1  and  C2_2 
REMARK    2  A    between atoms: C1_1  and  C3_4 
REMARK    3  A    between atoms: C2_2  and  O1_3 
REMARK    4  A    between atoms: C3_4  and  C4_6 
REMARK    5  A    between atoms: C3_4  and  O3_8 
REMARK    6  A    between atoms: C4_6  and  O2_7 
ROOT
ATOM      1  C3  <0> d           1.417   2.055  -0.000  0.00  0.00     0.058 C 
ATOM      2  H1  <0> d           1.970   1.624   0.834  0.00  0.00     0.086 H 
ENDROOT
BRANCH   1   3
ATOM      3  C1  <0> d          -0.019   1.526   0.010  0.00  0.00    -0.019 C 
ATOM      4  H2  <0> d          -0.546   1.887  -0.873  0.00  0.00     0.040 H 
ATOM      5  H3  <0> d          -0.529   1.877   0.907  0.00  0.00     0.040 H 
BRANCH   3   6
ATOM      6  C2  <0> d           0.002  -0.004   0.002  0.00  0.00     0.019 C 
ATOM      7  H4  <0> d           0.512  -0.356  -0.895  0.00  0.00     0.074 H 
ATOM      8  H5  <0> d           0.529  -0.365   0.885  0.00  0.00     0.074 H 
BRANCH   6   9
ATOM      9  O1  <0> d          -1.339  -0.499   0.012  0.00  0.00    -0.401 OA
ATOM     10  H6  <0> d          -1.402  -1.464   0.008  0.00  0.00     0.209 HD
ENDBRANCH   6   9
ENDBRANCH   3   6
ENDBRANCH   1   3
BRANCH   1  11
ATOM     11  C4  <0> d           1.399   3.579   0.134  0.00  0.00     0.041 C 
ATOM     12  H7  <0> d           0.924   4.016  -0.745  0.00  0.00     0.077 H 
ATOM     13  H8  <0> d           0.839   3.859   1.026  0.00  0.00     0.077 H 
BRANCH  11  14
ATOM     14  O2  <0> d           2.739   4.064   0.241  0.00  0.00    -0.398 OA
ATOM     15  H9  <0> d           2.804   5.024   0.329  0.00  0.00     0.209 HD
ENDBRANCH  11  14
ENDBRANCH   1  11
BRANCH   1  16
ATOM     16  O3  <0> d           2.049   1.693  -1.230  0.00  0.00    -0.393 OA
ATOM     17  H10 <0> d           1.609   2.043  -2.016  0.00  0.00     0.210 HD
ENDBRANCH   1  16
TORSDOF 6
