REMARK  5 active torsions:
REMARK  status: ('A' for Active; 'I' for Inactive)
REMARK    1  A    between atoms: C1_1  and  C2_2 
REMARK    2  A    between atoms: C3_3  and  C6_8 
REMARK    3  A    between atoms: N2_6  and  C5_7 
REMARK    4  A    between atoms: C6_8  and  C7_10 
REMARK    5  A    between atoms: C6_8  and  O1_11 
ROOT
ATOM      1  C2  <0> d          -2.204  -0.701  -1.070  0.00  0.00     0.036 A 
ATOM      2  C3  <0> d          -1.412  -0.526   0.013  0.00  0.00     0.013 A 
ATOM      3  C4  <0> d          -2.139  -0.909   1.144  0.00  0.00     0.032 A 
ATOM      4  N1  <0> d          -3.324  -1.304   0.754  0.00  0.00    -0.184 NA
ATOM      5  N2  <0> d          -3.387  -1.186  -0.640  0.00  0.00    -0.278 N 
ATOM      6  H5  <0> d          -1.784  -0.882   2.164  0.00  0.00     0.118 H 
ENDROOT
BRANCH   2   7
ATOM      7  C6  <0> d           0.002  -0.004   0.002  0.00  0.00     0.060 C 
ATOM      8  H1  <0> d           0.550  -0.399  -0.866  0.00  0.00     0.090 H 
BRANCH   7   9
ATOM      9  C7  <0> d          -0.019   1.526   0.010  0.00  0.00    -0.049 C 
ATOM     10  H9  <0> d           1.013   1.907   0.003  0.00  0.00     0.031 H 
ATOM     11  H10 <0> d          -0.534   1.881   0.915  0.00  0.00     0.031 H 
ATOM     12  H11 <0> d          -0.551   1.890  -0.881  0.00  0.00     0.031 H 
ENDBRANCH   7   9
BRANCH   7  13
ATOM     13  O1  <0> d           0.693  -0.477   1.160  0.00  0.00    -0.391 OA
ATOM     14  H12 <0> d           1.744  -0.198   1.325  0.00  0.00     0.210 HD
ENDBRANCH   7  13
ENDBRANCH   2   7
BRANCH   1  15
ATOM     15  C1  <0> d          -1.830  -0.410  -2.501  0.00  0.00    -0.035 C 
ATOM     16  H2  <0> d          -0.801  -0.024  -2.540  0.00  0.00     0.035 H 
ATOM     17  H3  <0> d          -2.519   0.341  -2.914  0.00  0.00     0.035 H 
ATOM     18  H4  <0> d          -1.897  -1.335  -3.093  0.00  0.00     0.035 H 
ENDBRANCH   1  15
BRANCH   5  19
ATOM     19  C5  <0> d          -4.538  -1.523  -1.482  0.00  0.00     0.002 C 
ATOM     20  H6  <0> d          -5.358  -1.895  -0.850  0.00  0.00     0.059 H 
ATOM     21  H7  <0> d          -4.249  -2.302  -2.203  0.00  0.00     0.059 H 
ATOM     22  H8  <0> d          -4.871  -0.626  -2.025  0.00  0.00     0.059 H 
ENDBRANCH   5  19
TORSDOF 5
