REMARK  4 active torsions:
REMARK  status: ('A' for Active; 'I' for Inactive)
REMARK    1  A    between atoms: C1_1  and  C2_2 
REMARK    2  A    between atoms: C3_3  and  C7_8 
REMARK    3  A    between atoms: C7_8  and  C8_9 
REMARK    4  A    between atoms: C8_9  and  O1_10 
ROOT
ATOM      1  C2  <0> d           0.033   3.795   0.021  0.00  0.00     0.036 A 
ATOM      2  C3  <0> d          -1.188   3.147   0.029  0.00  0.00    -0.032 A 
ATOM      3  C4  <0> d          -1.218   1.762   0.017  0.00  0.00    -0.073 A 
ATOM      4  C5  <0> d          -0.013   1.076   0.008  0.00  0.00    -0.066 A 
ATOM      5  C6  <0> d           1.169   1.792   0.001  0.00  0.00     0.003 A 
ATOM      6  N1  <0> d           1.159   3.110   0.007  0.00  0.00    -0.265 NA
ATOM      7  H4  <0> d          -2.157   1.229   0.019  0.00  0.00     0.084 H 
ATOM      8  H5  <0> d           0.002  -0.004   0.002  0.00  0.00     0.085 H 
ATOM      9  H6  <0> d           2.112   1.265  -0.011  0.00  0.00     0.114 H 
ENDROOT
BRANCH   2  10
ATOM     10  C7  <0> d          -2.471   3.938   0.045  0.00  0.00    -0.019 C 
ATOM     11  H7  <0> d          -3.265   3.334   0.484  0.00  0.00     0.043 H 
ATOM     12  H8  <0> d          -2.333   4.843   0.637  0.00  0.00     0.043 H 
BRANCH  10  13
ATOM     13  C8  <0> d          -2.853   4.319  -1.387  0.00  0.00     0.020 C 
ATOM     14  H9  <0> d          -2.059   4.923  -1.826  0.00  0.00     0.074 H 
ATOM     15  H10 <0> d          -2.991   3.414  -1.979  0.00  0.00     0.074 H 
BRANCH  13  16
ATOM     16  O1  <0> d          -4.069   5.068  -1.372  0.00  0.00    -0.401 OA
ATOM     17  H11 <0> d          -4.372   5.344  -2.248  0.00  0.00     0.209 HD
ENDBRANCH  13  16
ENDBRANCH  10  13
ENDBRANCH   2  10
BRANCH   1  18
ATOM     18  C1  <0> d           0.077   5.302   0.027  0.00  0.00    -0.035 C 
ATOM     19  H1  <0> d           0.078   5.669  -0.999  0.00  0.00     0.035 H 
ATOM     20  H2  <0> d          -0.797   5.689   0.551  0.00  0.00     0.035 H 
ATOM     21  H3  <0> d           0.982   5.636   0.533  0.00  0.00     0.035 H 
ENDBRANCH   1  18
TORSDOF 4
