REMARK  4 active torsions:
REMARK  status: ('A' for Active; 'I' for Inactive)
REMARK    1  A    between atoms: C1_1  and  C2_2 
REMARK    2  A    between atoms: C2_2  and  C3_3 
REMARK    3  A    between atoms: C5_5  and  C9_10 
REMARK    4  A    between atoms: C6_7  and  C8_9 
ROOT
ATOM      1  C3  <0> d           1.170   1.814   0.001  0.00  0.00    -0.054 A 
ATOM      2  C4  <0> d          -0.013   1.076   0.008  0.00  0.00    -0.049 A 
ATOM      3  C5  <0> d          -1.204   1.776   0.017  0.00  0.00     0.050 A 
ATOM      4  O1  <0> d          -1.234   2.984   0.029  0.00  0.00    -0.320 OA
ATOM      5  C6  <0> d          -0.265   3.707   0.024  0.00  0.00     0.050 A 
ATOM      6  C7  <0> d           1.022   3.200   0.009  0.00  0.00    -0.049 A 
ATOM      7  H6  <0> d           0.002  -0.004   0.002  0.00  0.00     0.088 H 
ATOM      8  H7  <0> d           1.881   3.855   0.004  0.00  0.00     0.088 H 
ENDROOT
BRANCH   1   9
ATOM      9  C2  <0> d           2.525   1.155  -0.015  0.00  0.00    -0.044 C 
ATOM     10  H4  <0> d           3.246   1.793   0.495  0.00  0.00     0.039 H 
ATOM     11  H5  <0> d           2.467   0.193   0.495  0.00  0.00     0.039 H 
BRANCH   9  12
ATOM     12  C1  <0> d           2.970   0.938  -1.462  0.00  0.00    -0.073 C 
ATOM     13  H1  <0> d           2.249   0.299  -1.973  0.00  0.00     0.028 H 
ATOM     14  H2  <0> d           3.028   1.900  -1.972  0.00  0.00     0.028 H 
ATOM     15  H3  <0> d           3.950   0.461  -1.474  0.00  0.00     0.028 H 
ENDBRANCH   9  12
ENDBRANCH   1   9
BRANCH   5  16
ATOM     16  C8  <0> d          -0.464   5.200   0.032  0.00  0.00    -0.031 C 
ATOM     17  H8  <0> d          -0.517   5.535  -0.908  0.00  0.00     0.036 H 
ATOM     18  H9  <0> d          -1.389   5.440   0.556  0.00  0.00     0.036 H 
ATOM     19  H10 <0> d           0.375   5.676   0.541  0.00  0.00     0.036 H 
ENDBRANCH   5  16
BRANCH   3  20
ATOM     20  C9  <0> d          -2.503   1.011   0.020  0.00  0.00    -0.031 C 
ATOM     21  H11 <0> d          -2.811   0.822   1.048  0.00  0.00     0.036 H 
ATOM     22  H12 <0> d          -3.270   1.596  -0.488  0.00  0.00     0.036 H 
ATOM     23  H13 <0> d          -2.367   0.062  -0.500  0.00  0.00     0.036 H 
ENDBRANCH   3  20
TORSDOF 4
