REMARK  2 active torsions:
REMARK  status: ('A' for Active; 'I' for Inactive)
REMARK    1  A    between atoms: C1_1  and  C2_2 
REMARK    2  A    between atoms: C6_6  and  N2_8 
ROOT
ATOM      1  C2  <0> d           0.002  -0.004   0.002  0.00  0.00     0.053 A 
ATOM      2  C3  <0> d           1.210  -0.708  -0.013  0.00  0.00     0.070 A 
ATOM      3  C4  <0> d           2.415   0.004  -0.021  0.00  0.00    -0.037 A 
ATOM      4  C5  <0> d           2.357   1.398  -0.013  0.00  0.00     0.091 A 
ATOM      5  C6  <0> d           1.099   2.028   0.003  0.00  0.00     0.142 A 
ATOM      6  N1  <0> d          -0.016   1.312   0.009  0.00  0.00    -0.234 NA
ATOM      7  C7  <0> d           3.560   2.176  -0.020  0.00  0.00     0.103 C 
ATOM      8  N3  <0> d           4.514   2.793  -0.025  0.00  0.00    -0.191 NA
ATOM      9  C8  <0> d           1.214  -2.140  -0.021  0.00  0.00     0.101 C 
ATOM     10  N4  <0> d           1.218  -3.276  -0.026  0.00  0.00    -0.191 NA
ATOM     11  H4  <0> d           3.363  -0.512  -0.033  0.00  0.00     0.088 H 
ENDROOT
BRANCH   5  12
ATOM     12  N2  <0> d           1.025   3.407   0.011  0.00  0.00    -0.383 N 
ATOM     13  H5  <0> d           0.044   3.905   0.023  0.00  0.00     0.157 HD
ATOM     14  H6  <0> d           1.947   4.007   0.005  0.00  0.00     0.157 HD
ENDBRANCH   5  12
BRANCH   1  15
ATOM     15  C1  <0> d          -1.299  -0.764   0.010  0.00  0.00    -0.034 C 
ATOM     16  H1  <0> d          -1.093  -1.844   0.002  0.00  0.00     0.035 H 
ATOM     17  H2  <0> d          -1.886  -0.496  -0.881  0.00  0.00     0.035 H 
ATOM     18  H3  <0> d          -1.869  -0.506   0.915  0.00  0.00     0.035 H 
ENDBRANCH   1  15
TORSDOF 2
