REMARK  0 active torsions:
REMARK  status: ('A' for Active; 'I' for Inactive)
ROOT
ATOM      1  C1  <0> d          -0.018   1.471   0.010  0.00  0.00     0.167 C 
ATOM      2  C2  <0> d           1.494   1.430  -0.004  0.00  0.00     0.182 C 
ATOM      3  O1  <0> d           2.402   2.141  -0.363  0.00  0.00    -0.294 OA
ATOM      4  C3  <0> d           1.328   0.073   0.644  0.00  0.00     0.167 C 
ATOM      5  N1  <0> d           0.002  -0.004   0.002  0.00  0.00     0.097 N 
ATOM      6  H1  <0> d          -0.433   1.896   0.924  0.00  0.00     0.091 H 
ATOM      7  H2  <0> d          -0.450   1.905  -0.891  0.00  0.00     0.091 H 
ATOM      8  H3  <0> d           2.033  -0.674   0.277  0.00  0.00     0.091 H 
ATOM      9  H4  <0> d           1.283   0.113   1.732  0.00  0.00     0.091 H 
ATOM     10  H5  <0> d          -0.686  -0.379   0.638  0.00  0.00     0.316 HD
ENDROOT
TORSDOF 0
