REMARK  1 active torsions:
REMARK  status: ('A' for Active; 'I' for Inactive)
REMARK    1  A    between atoms: C1_1  and  N5_11 
ROOT
ATOM      1  C1  <0> d           2.559   4.065  -0.001  0.00  0.00     0.194 A 
ATOM      2  C2  <0> d           3.159   2.716  -0.013  0.00  0.00     0.314 A 
ATOM      3  O1  <0> d           4.373   2.591  -0.026  0.00  0.00    -0.262 OA
ATOM      4  N1  <0> d           2.380   1.631  -0.012  0.00  0.00    -0.181 NA
ATOM      5  C3  <0> d           1.069   1.769   0.001  0.00  0.00     0.232 A 
ATOM      6  N2  <0> d          -0.011   0.966   0.007  0.00  0.00    -0.081 NA
ATOM      7  O2  <0> d          -1.005   1.664   0.015  0.00  0.00    -0.103 OA
ATOM      8  N3  <0> d          -0.822   2.862   0.025  0.00  0.00    -0.081 NA
ATOM      9  C4  <0> d           0.464   3.118   0.014  0.00  0.00     0.231 A 
ATOM     10  N4  <0> d           1.254   4.210   0.013  0.00  0.00    -0.201 NA
ENDROOT
BRANCH   1  11
ATOM     11  N5  <0> d           3.374   5.178  -0.002  0.00  0.00    -0.379 N 
ATOM     12  H1  <0> d           4.467   5.060  -0.013  0.00  0.00     0.158 HD
ATOM     13  H2  <0> d           2.930   6.184   0.008  0.00  0.00     0.158 HD
ENDBRANCH   1  11
TORSDOF 1
