REMARK  0 active torsions:
REMARK  status: ('A' for Active; 'I' for Inactive)
ROOT
ATOM      1  C1  <0> d           1.170   1.785   0.001  0.00  0.00    -0.081 A 
ATOM      2  C2  <0> d           1.158   3.172   0.008  0.00  0.00    -0.081 A 
ATOM      3  C3  <0> d          -0.023   3.859   0.022  0.00  0.00    -0.053 A 
ATOM      4  C4  <0> d          -1.233   3.162   0.030  0.00  0.00     0.086 A 
ATOM      5  C5  <0> d          -1.222   1.757   0.017  0.00  0.00     0.063 A 
ATOM      6  C6  <0> d          -0.013   1.076   0.008  0.00  0.00    -0.055 A 
ATOM      7  N1  <0> d          -2.547   1.364   0.021  0.00  0.00    -0.329 N 
ATOM      8  H1  <0> d          -2.886   0.423   0.018  0.00  0.00     0.168 HD
ATOM      9  C7  <0> d          -3.304   2.495   0.031  0.00  0.00     0.202 A 
ATOM     10  N2  <0> d          -2.536   3.547   0.044  0.00  0.00    -0.218 NA
ATOM     11 Cl1  <0> d          -5.040   2.530   0.040  0.00  0.00    -0.043 Cl
ATOM     12  H2  <0> d           2.112   1.256  -0.011  0.00  0.00     0.083 H 
ATOM     13  H3  <0> d           2.092   3.715   0.001  0.00  0.00     0.083 H 
ATOM     14  H4  <0> d          -0.020   4.939   0.028  0.00  0.00     0.087 H 
ATOM     15  H5  <0> d           0.002  -0.004   0.002  0.00  0.00     0.087 H 
ENDROOT
TORSDOF 0
