REMARK  1 active torsions:
REMARK  status: ('A' for Active; 'I' for Inactive)
REMARK    1  A    between atoms: C1_1  and  N1_2 
ROOT
ATOM      1  N1  <0> d           1.198   1.716  -0.000  0.00  0.00    -0.173 N 
ATOM      2  N2  <0> d           2.003   0.709  -0.013  0.00  0.00    -0.145 NA
ATOM      3  C2  <0> d           1.280  -0.384  -0.012  0.00  0.00     0.130 A 
ATOM      4  N3  <0> d           0.002  -0.004   0.002  0.00  0.00    -0.122 NA
ATOM      5  N4  <0> d          -0.015   1.286   0.009  0.00  0.00    -0.048 NA
ATOM      6  H4  <0> d           1.649  -1.399  -0.021  0.00  0.00     0.152 H 
ENDROOT
BRANCH   1   7
ATOM      7  C1  <0> d           1.601   3.124   0.003  0.00  0.00     0.021 C 
ATOM      8  H1  <0> d           1.711   3.469   1.031  0.00  0.00     0.062 H 
ATOM      9  H2  <0> d           2.551   3.232  -0.520  0.00  0.00     0.062 H 
ATOM     10  H3  <0> d           0.840   3.721  -0.501  0.00  0.00     0.062 H 
ENDBRANCH   1   7
TORSDOF 1
