REMARK  2 active torsions:
REMARK  status: ('A' for Active; 'I' for Inactive)
REMARK    1  A    between atoms: C1_1  and  N1_2 
REMARK    2  A    between atoms: C3_5  and  N3_11 
ROOT
ATOM      1  N1  <0> d          -0.016   1.334   0.009  0.00  0.00    -0.272 N 
ATOM      2  C2  <0> d           1.119   2.064   0.003  0.00  0.00     0.268 A 
ATOM      3  O1  <0> d           1.087   3.276   0.009  0.00  0.00    -0.269 OA
ATOM      4  C3  <0> d           2.437   1.312  -0.014  0.00  0.00     0.231 A 
ATOM      5  C4  <0> d           2.344  -0.202  -0.021  0.00  0.00     0.267 A 
ATOM      6  O2  <0> d           3.340  -0.893  -0.034  0.00  0.00    -0.270 OA
ATOM      7  N2  <0> d           1.111  -0.752  -0.013  0.00  0.00    -0.276 N 
ATOM      8  C5  <0> d           0.002  -0.004   0.002  0.00  0.00     0.331 A 
ATOM      9  O3  <0> d          -1.067  -0.582   0.009  0.00  0.00    -0.246 OA
ATOM     10  H4  <0> d           0.997  -1.846  -0.017  0.00  0.00     0.173 HD
ENDROOT
BRANCH   1  11
ATOM     11  C1  <0> d          -1.307   2.027   0.019  0.00  0.00    -0.007 C 
ATOM     12  H1  <0> d          -1.139   3.114   0.024  0.00  0.00     0.057 H 
ATOM     13  H2  <0> d          -1.871   1.738   0.918  0.00  0.00     0.057 H 
ATOM     14  H3  <0> d          -1.879   1.748  -0.878  0.00  0.00     0.057 H 
ENDBRANCH   1  11
BRANCH   4  15
ATOM     15  N3  <0> d           3.187   1.730  -1.206  0.00  0.00    -0.404 N 
ATOM     16  H5  <0> d           4.178   1.300  -1.410  0.00  0.00     0.151 HD
ATOM     17  H6  <0> d           2.756   2.472  -1.895  0.00  0.00     0.151 HD
ENDBRANCH   4  15
TORSDOF 2
