REMARK  2 active torsions:
REMARK  status: ('A' for Active; 'I' for Inactive)
REMARK    1  A    between atoms: N1_4  and  C6_8 
REMARK    2  A    between atoms: C6_8  and  C7_9 
REMARK       I    between atoms: C7_9  and  N2_11 
ROOT
ATOM      1  C1  <0> d          -4.494  -0.835   0.015  0.00  0.00    -0.076 A 
ATOM      2  C2  <0> d          -3.957  -0.352  -1.187  0.00  0.00    -0.068 A 
ATOM      3  C3  <0> d          -2.943   0.545  -1.161  0.00  0.00    -0.017 A 
ATOM      4  N1  <0> d          -2.430   0.977   0.019  0.00  0.00    -0.316 N 
ATOM      5  C4  <0> d          -2.925   0.531   1.189  0.00  0.00     0.247 A 
ATOM      6  O1  <0> d          -2.456   0.933   2.242  0.00  0.00    -0.268 OA
ATOM      7  C5  <0> d          -3.980  -0.396   1.199  0.00  0.00    -0.017 A 
ATOM      8  H1  <0> d          -5.306  -1.548   0.002  0.00  0.00     0.083 H 
ATOM      9  H2  <0> d          -4.355  -0.691  -2.132  0.00  0.00     0.085 H 
ATOM     10  H3  <0> d          -2.536   0.918  -2.090  0.00  0.00     0.111 H 
ATOM     11  H4  <0> d          -4.381  -0.756   2.135  0.00  0.00     0.092 H 
ENDROOT
BRANCH   4  12
ATOM     12  C6  <0> d          -1.330   1.944   0.019  0.00  0.00     0.075 C 
ATOM     13  H5  <0> d          -1.401   2.581  -0.875  0.00  0.00     0.079 H 
ATOM     14  H6  <0> d          -1.392   2.571   0.921  0.00  0.00     0.079 H 
BRANCH  12  15
ATOM     15  C7  <0> d          -0.014   1.209   0.009  0.00  0.00     0.233 C 
ATOM     16  O2  <0> d           0.002  -0.004   0.002  0.00  0.00    -0.272 OA
ATOM     17  N2  <0> d           1.143   1.898   0.001  0.00  0.00    -0.369 N 
ATOM     18  H7  <0> d           2.103   1.361  -0.006  0.00  0.00     0.159 HD
ATOM     19  H8  <0> d           1.129   2.998   0.003  0.00  0.00     0.159 HD
ENDBRANCH  12  15
ENDBRANCH   4  12
TORSDOF 2
