REMARK  3 active torsions:
REMARK  status: ('A' for Active; 'I' for Inactive)
REMARK    1  A    between atoms: C1_1  and  C2_2 
REMARK    2  A    between atoms: C2_2  and  C3_4 
REMARK    3  A    between atoms: C3_4  and  C5_8 
ROOT
ATOM      1  C3  <0> d          -1.329   1.939   0.019  0.00  0.00     0.112 C 
ATOM      2  H1  <0> d          -1.246   2.779  -0.518  0.00  0.00     0.082 H 
ATOM      3  C4  <0> d          -1.692   2.277   1.405  0.00  0.00     0.076 C 
ATOM      4  N1  <0> d          -1.972   2.537   2.475  0.00  0.00    -0.196 NA
ENDROOT
BRANCH   1   5
ATOM      5  C2  <0> d          -0.014   1.203   0.009  0.00  0.00     0.145 C 
ATOM      6  O1  <0> d           0.002  -0.004   0.002  0.00  0.00    -0.297 OA
BRANCH   5   7
ATOM      7  C1  <0> d           1.280   1.975   0.000  0.00  0.00    -0.019 C 
ATOM      8  H2  <0> d           1.558   2.150  -0.944  0.00  0.00     0.037 H 
ATOM      9  H3  <0> d           1.142   2.922   0.521  0.00  0.00     0.037 H 
ATOM     10  H4  <0> d           2.053   1.393   0.504  0.00  0.00     0.037 H 
ENDBRANCH   5   7
ENDBRANCH   1   5
BRANCH   1  11
ATOM     11  C5  <0> d          -2.399   1.064  -0.581  0.00  0.00    -0.033 A 
ATOM     12  C10 <0> d          -3.084   1.483  -1.706  0.00  0.00    -0.075 A 
ATOM     13  C9  <0> d          -4.066   0.680  -2.257  0.00  0.00    -0.082 A 
ATOM     14  H9  <0> d          -2.853   2.437  -2.155  0.00  0.00     0.084 H 
ATOM     15  C8  <0> d          -4.362  -0.542  -1.683  0.00  0.00    -0.083 A 
ATOM     16  H8  <0> d          -4.602   1.007  -3.136  0.00  0.00     0.083 H 
ATOM     17  C7  <0> d          -3.676  -0.962  -0.558  0.00  0.00    -0.082 A 
ATOM     18  H7  <0> d          -5.129  -1.169  -2.112  0.00  0.00     0.083 H 
ATOM     19  C6  <0> d          -2.692  -0.161  -0.010  0.00  0.00    -0.075 A 
ATOM     20  H6  <0> d          -3.908  -1.916  -0.109  0.00  0.00     0.083 H 
ATOM     21  H5  <0> d          -2.154  -0.490   0.867  0.00  0.00     0.084 H 
ENDBRANCH   1  11
TORSDOF 3
