REMARK  1 active torsions:
REMARK  status: ('A' for Active; 'I' for Inactive)
REMARK    1  A    between atoms: C3_4  and  C5_9 
ROOT
ATOM      1  C1  <0> d          -3.680   3.236   0.037  0.00  0.00    -0.003 A 
ATOM      2  C2  <0> d          -2.480   3.902   0.035  0.00  0.00     0.018 A 
ATOM      3  N1  <0> d          -1.329   3.254   0.026  0.00  0.00    -0.248 NA
ATOM      4  C3  <0> d          -1.300   1.930   0.019  0.00  0.00     0.201 A 
ATOM      5  C4  <0> d          -2.566   1.190   0.015  0.00  0.00     0.281 A 
ATOM      6  O1  <0> d          -2.575  -0.029   0.003  0.00  0.00    -0.265 OA
ATOM      7  N2  <0> d          -3.723   1.888   0.030  0.00  0.00    -0.330 N 
ATOM      8  H1  <0> d          -4.575   1.425   0.032  0.00  0.00     0.168 HD
ATOM      9  H2  <0> d          -4.602   3.799   0.044  0.00  0.00     0.113 H 
ATOM     10  H3  <0> d          -2.477   4.982   0.041  0.00  0.00     0.116 H 
ENDROOT
BRANCH   4  11
ATOM     11  C5  <0> d          -0.014   1.211   0.009  0.00  0.00     0.234 C 
ATOM     12  O2  <0> d           0.002  -0.004   0.002  0.00  0.00    -0.643 OA
ATOM     13  O3  <0> d           1.144   1.901   0.001  0.00  0.00    -0.643 OA
ENDBRANCH   4  11
TORSDOF 1
