REMARK  1 active torsions:
REMARK  status: ('A' for Active; 'I' for Inactive)
REMARK    1  A    between atoms: C1_1  and  C2_2 
ROOT
ATOM      1  C2  <0> d           1.176   1.784   0.000  0.00  0.00     0.048 A 
ATOM      2  C3  <0> d          -0.013   1.076   0.008  0.00  0.00     0.025 A 
ATOM      3  N1  <0> d          -1.166   1.721   0.017  0.00  0.00    -0.270 NA
ATOM      4  C4  <0> d          -1.183   3.042   0.029  0.00  0.00     0.019 A 
ATOM      5  C5  <0> d           0.005   3.750   0.021  0.00  0.00     0.019 A 
ATOM      6  N2  <0> d           1.158   3.105   0.007  0.00  0.00    -0.263 NA
ATOM      7  H4  <0> d           0.002  -0.004   0.002  0.00  0.00     0.117 H 
ATOM      8  H5  <0> d          -2.126   3.569   0.040  0.00  0.00     0.117 H 
ATOM      9  H6  <0> d          -0.010   4.830   0.026  0.00  0.00     0.117 H 
ENDROOT
BRANCH   1  10
ATOM     10  C1  <0> d           2.491   1.048  -0.016  0.00  0.00    -0.034 C 
ATOM     11  H1  <0> d           2.799   0.877  -1.048  0.00  0.00     0.035 H 
ATOM     12  H2  <0> d           3.248   1.645   0.494  0.00  0.00     0.035 H 
ATOM     13  H3  <0> d           2.379   0.092   0.494  0.00  0.00     0.035 H 
ENDBRANCH   1  10
TORSDOF 1
