REMARK  3 active torsions:
REMARK  status: ('A' for Active; 'I' for Inactive)
REMARK    1  A    between atoms: C1_1  and  N1_2 
REMARK    2  A    between atoms: N1_2  and  C2_3 
REMARK    3  A    between atoms: N1_2  and  C3_4 
ROOT
ATOM      1  C3  <0> d           0.040  -0.096   0.188  0.00  0.00     0.111 A 
ATOM      2  C4  <0> d           1.165  -0.841   0.409  0.00  0.00     0.025 A 
ATOM      3  C5  <0> d           2.393  -0.183   0.589  0.00  0.00     0.252 A 
ATOM      4  O1  <0> d           3.409  -0.827   0.787  0.00  0.00    -0.268 OA
ATOM      5  N2  <0> d           2.441   1.162   0.539  0.00  0.00    -0.275 N 
ATOM      6  H1  <0> d           3.314   1.632   0.667  0.00  0.00     0.173 HD
ATOM      7  C6  <0> d           1.323   1.879   0.320  0.00  0.00     0.328 A 
ATOM      8  O2  <0> d           1.389   3.093   0.280  0.00  0.00    -0.247 OA
ATOM      9  N3  <0> d           0.135   1.274   0.145  0.00  0.00    -0.294 N 
ATOM     10  H2  <0> d          -0.685   1.824  -0.016  0.00  0.00     0.172 HD
ATOM     11  H9  <0> d           1.111  -1.919   0.446  0.00  0.00     0.098 H 
ENDROOT
BRANCH   1  12
ATOM     12  N1  <0> d          -1.173  -0.712   0.010  0.00  0.00    -0.376 N 
BRANCH  12  13
ATOM     13  C1  <0> d          -2.401  -0.054   0.460  0.00  0.00    -0.018 C 
ATOM     14  H3  <0> d          -2.801   0.561  -0.346  0.00  0.00     0.056 H 
ATOM     15  H4  <0> d          -3.136  -0.808   0.740  0.00  0.00     0.056 H 
ATOM     16  H5  <0> d          -2.181   0.576   1.322  0.00  0.00     0.056 H 
ENDBRANCH  12  13
BRANCH  12  17
ATOM     17  C2  <0> d          -1.239  -2.028  -0.630  0.00  0.00    -0.018 C 
ATOM     18  H6  <0> d          -0.246  -2.314  -0.977  0.00  0.00     0.056 H 
ATOM     19  H7  <0> d          -1.599  -2.764   0.088  0.00  0.00     0.056 H 
ATOM     20  H8  <0> d          -1.922  -1.985  -1.479  0.00  0.00     0.056 H 
ENDBRANCH  12  17
ENDBRANCH   1  12
TORSDOF 3
