REMARK  4 active torsions:
REMARK  status: ('A' for Active; 'I' for Inactive)
REMARK    1  A    between atoms: C1_1  and  C2_2 
REMARK    2  A    between atoms: C7_8  and  C9_12 
REMARK    3  A    between atoms: C7_8  and  C10_13 
REMARK    4  A    between atoms: C8_9  and  O1_11 
ROOT
ATOM      1  C2  <0> d          -0.115  -0.244   0.390  0.00  0.00    -0.017 C 
ATOM      2  C3  <0> d          -1.379  -1.132   0.596  0.00  0.00    -0.056 C 
ATOM      3  C4  <0> d          -0.822  -2.550   0.858  0.00  0.00    -0.060 C 
ATOM      4  C5  <0> d           0.727  -2.385   0.786  0.00  0.00    -0.044 C 
ATOM      5  H1  <0> d           1.313  -3.169   1.265  0.00  0.00     0.041 H 
ATOM      6  C6  <0> d           0.892  -0.939   1.373  0.00  0.00    -0.052 C 
ATOM      7  C7  <0> d           1.023  -2.139  -0.725  0.00  0.00    -0.017 C 
ATOM      8  C8  <0> d           0.475  -0.684  -0.985  0.00  0.00     0.049 C 
ATOM      9  H2  <0> d          -0.309  -0.719  -1.742  0.00  0.00     0.085 H 
ATOM     10  H6  <0> d          -1.952  -0.784   1.455  0.00  0.00     0.034 H 
ATOM     11  H7  <0> d          -1.998  -1.127  -0.302  0.00  0.00     0.034 H 
ATOM     12  H8  <0> d          -1.121  -2.899   1.847  0.00  0.00     0.033 H 
ATOM     13  H9  <0> d          -1.167  -3.242   0.090  0.00  0.00     0.033 H 
ATOM     14  H10 <0> d           1.907  -0.562   1.252  0.00  0.00     0.034 H 
ATOM     15  H11 <0> d           0.559  -0.878   2.409  0.00  0.00     0.034 H 
ENDROOT
BRANCH   7  16
ATOM     16  C9  <0> d           2.530  -2.180  -0.987  0.00  0.00    -0.067 C 
ATOM     17  H13 <0> d           2.921  -3.157  -0.703  0.00  0.00     0.028 H 
ATOM     18  H14 <0> d           2.719  -2.007  -2.046  0.00  0.00     0.028 H 
ATOM     19  H15 <0> d           3.022  -1.406  -0.399  0.00  0.00     0.028 H 
ENDBRANCH   7  16
BRANCH   7  20
ATOM     20  C10 <0> d           0.302  -3.179  -1.586  0.00  0.00    -0.067 C 
ATOM     21  H16 <0> d          -0.774  -3.014  -1.530  0.00  0.00     0.028 H 
ATOM     22  H17 <0> d           0.631  -3.086  -2.621  0.00  0.00     0.028 H 
ATOM     23  H18 <0> d           0.536  -4.179  -1.219  0.00  0.00     0.028 H 
ENDBRANCH   7  20
BRANCH   8  24
ATOM     24  O1  <0> d           1.518   0.206  -1.387  0.00  0.00    -0.394 OA
ATOM     25  H12 <0> d           1.922  -0.019  -2.237  0.00  0.00     0.210 HD
ENDBRANCH   8  24
BRANCH   1  26
ATOM     26  C1  <0> d          -0.316   1.261   0.580  0.00  0.00    -0.067 C 
ATOM     27  H3  <0> d           0.639   1.773   0.466  0.00  0.00     0.028 H 
ATOM     28  H4  <0> d          -1.018   1.631  -0.167  0.00  0.00     0.028 H 
ATOM     29  H5  <0> d          -0.713   1.451   1.577  0.00  0.00     0.028 H 
ENDBRANCH   1  26
TORSDOF 4
