REMARK  4 active torsions:
REMARK  status: ('A' for Active; 'I' for Inactive)
REMARK    1  A    between atoms: C1_1  and  C2_2 
REMARK    2  A    between atoms: C2_2  and  C4_4 
REMARK    3  A    between atoms: C4_4  and  N1_5 
REMARK    4  A    between atoms: N1_5  and  C5_6 
ROOT
ATOM      1  N1  <0> d           0.002  -0.004   0.002  0.00  0.00    -0.386 N 
ATOM      2  H8  <0> d           0.849  -0.478  -0.009  0.00  0.00     0.160 HD
ENDROOT
BRANCH   1   3
ATOM      3  C4  <0> d          -1.256  -0.754   0.010  0.00  0.00     0.012 C 
ATOM      4  H6  <0> d          -1.823  -0.503   0.907  0.00  0.00     0.070 H 
ATOM      5  H7  <0> d          -1.840  -0.493  -0.873  0.00  0.00     0.070 H 
BRANCH   3   6
ATOM      6  C2  <0> d          -0.961  -2.232  -0.001  0.00  0.00    -0.076 C 
ATOM      7  C3  <0> d          -0.919  -2.899   1.125  0.00  0.00    -0.118 C 
ATOM      8  H4  <0> d          -1.096  -2.391   2.062  0.00  0.00     0.067 H 
ATOM      9  H5  <0> d          -0.707  -3.958   1.118  0.00  0.00     0.067 H 
BRANCH   6  10
ATOM     10  C1  <0> d          -0.714  -2.941  -1.307  0.00  0.00    -0.054 C 
ATOM     11  H1  <0> d           0.350  -2.912  -1.541  0.00  0.00     0.033 H 
ATOM     12  H2  <0> d          -1.040  -3.978  -1.224  0.00  0.00     0.033 H 
ATOM     13  H3  <0> d          -1.274  -2.446  -2.101  0.00  0.00     0.033 H 
ENDBRANCH   6  10
ENDBRANCH   3   6
ENDBRANCH   1   3
BRANCH   1  14
ATOM     14  C5  <0> d          -0.017   1.393   0.010  0.00  0.00     0.028 A 
ATOM     15  C10 <0> d           1.176   2.105   0.002  0.00  0.00    -0.058 A 
ATOM     16  C9  <0> d           1.153   3.486   0.009  0.00  0.00    -0.081 A 
ATOM     17  H13 <0> d           2.119   1.580  -0.010  0.00  0.00     0.086 H 
ATOM     18  C8  <0> d          -0.054   4.159   0.024  0.00  0.00    -0.083 A 
ATOM     19  H12 <0> d           2.080   4.040   0.004  0.00  0.00     0.083 H 
ATOM     20  C7  <0> d          -1.243   3.453   0.031  0.00  0.00    -0.081 A 
ATOM     21  H11 <0> d          -0.069   5.239   0.029  0.00  0.00     0.083 H 
ATOM     22  C6  <0> d          -1.228   2.072   0.019  0.00  0.00    -0.058 A 
ATOM     23  H10 <0> d          -2.185   3.982   0.042  0.00  0.00     0.083 H 
ATOM     24  H9  <0> d          -2.157   1.521   0.021  0.00  0.00     0.086 H 
ENDBRANCH   1  14
TORSDOF 4
