REMARK  0 active torsions:
REMARK  status: ('A' for Active; 'I' for Inactive)
ROOT
ATOM      1  C1  <0> d           1.416   1.728   2.492  0.00  0.00    -0.065 C 
ATOM      2  C2  <0> d           2.149   1.182   1.264  0.00  0.00    -0.064 C 
ATOM      3  C3  <0> d           1.418   1.629  -0.003  0.00  0.00    -0.055 C 
ATOM      4  C4  <0> d          -0.013   1.086   0.008  0.00  0.00     0.007 C 
ATOM      5  H1  <0> d           0.010   0.086   0.007  0.00  0.00     0.052 H 
ATOM      6  C5  <0> d          -0.744   1.593   1.254  0.00  0.00    -0.044 C 
ATOM      7  H2  <0> d          -1.749   1.174   1.276  0.00  0.00     0.041 H 
ATOM      8  C6  <0> d          -0.012   1.179   2.513  0.00  0.00    -0.061 C 
ATOM      9  C7  <0> d          -0.853   3.116   1.198  0.00  0.00    -0.061 C 
ATOM     10  C8  <0> d          -1.716   3.527   0.003  0.00  0.00    -0.059 C 
ATOM     11  C9  <0> d          -1.035   3.084  -1.296  0.00  0.00    -0.009 C 
ATOM     12  C10 <0> d          -0.735   1.601  -1.220  0.00  0.00     0.131 C 
ATOM     13  O1  <0> d          -1.072   0.850  -2.104  0.00  0.00    -0.298 OA
ATOM     14  H3  <0> d           1.939   1.417   3.396  0.00  0.00     0.033 H 
ATOM     15  H4  <0> d           1.387   2.817   2.443  0.00  0.00     0.033 H 
ATOM     16  H5  <0> d           2.169   0.093   1.307  0.00  0.00     0.033 H 
ATOM     17  H6  <0> d           3.170   1.564   1.250  0.00  0.00     0.033 H 
ATOM     18  H7  <0> d           1.944   1.248  -0.878  0.00  0.00     0.034 H 
ATOM     19  H8  <0> d           1.393   2.718  -0.040  0.00  0.00     0.034 H 
ATOM     20  H9  <0> d           0.019   0.091   2.564  0.00  0.00     0.033 H 
ATOM     21  H10 <0> d          -0.537   1.567   3.385  0.00  0.00     0.033 H 
ATOM     22  H11 <0> d          -1.310   3.481   2.118  0.00  0.00     0.033 H 
ATOM     23  H12 <0> d           0.142   3.547   1.093  0.00  0.00     0.033 H 
ATOM     24  H13 <0> d          -2.694   3.053   0.081  0.00  0.00     0.033 H 
ATOM     25  H14 <0> d          -1.836   4.611  -0.002  0.00  0.00     0.033 H 
ATOM     26  H15 <0> d          -1.642   3.269  -2.069  0.00  0.00     0.044 H 
ATOM     27  H16 <0> d          -0.101   3.630  -1.424  0.00  0.00     0.044 H 
ENDROOT
TORSDOF 0
