REMARK  5 active torsions:
REMARK  status: ('A' for Active; 'I' for Inactive)
REMARK    1  A    between atoms: C1_1  and  C2_2 
REMARK    2  A    between atoms: C2_2  and  C3_3 
REMARK    3  A    between atoms: C2_2  and  C4_5 
REMARK    4  A    between atoms: C3_3  and  O1_4 
REMARK    5  A    between atoms: C4_5  and  O2_6 
ROOT
ATOM      1  C2  <0> d          -0.022   1.799   0.012  0.00  0.00     0.075 C 
ATOM      2 Cl1  <0> d           0.002  -0.004   0.002  0.00  0.00    -0.115 Cl
ENDROOT
BRANCH   1   3
ATOM      3  C1  <0> d          -0.739   2.292   1.271  0.00  0.00    -0.052 C 
ATOM      4  H1  <0> d          -0.211   1.931   2.154  0.00  0.00     0.030 H 
ATOM      5  H2  <0> d          -0.753   3.382   1.277  0.00  0.00     0.030 H 
ATOM      6  H3  <0> d          -1.761   1.915   1.278  0.00  0.00     0.030 H 
ENDBRANCH   1   3
BRANCH   1   7
ATOM      7  C3  <0> d           1.413   2.328   0.001  0.00  0.00     0.038 C 
ATOM      8  H4  <0> d           1.923   1.977  -0.896  0.00  0.00     0.077 H 
ATOM      9  H5  <0> d           1.398   3.418   0.007  0.00  0.00     0.077 H 
BRANCH   7  10
ATOM     10  O1  <0> d           2.104   1.855   1.159  0.00  0.00    -0.399 OA
ATOM     11  H6  <0> d           3.022   2.152   1.218  0.00  0.00     0.209 HD
ENDBRANCH   7  10
ENDBRANCH   1   7
BRANCH   1  12
ATOM     12  C4  <0> d          -0.762   2.306  -1.228  0.00  0.00     0.038 C 
ATOM     13  H7  <0> d          -0.777   3.396  -1.222  0.00  0.00     0.077 H 
ATOM     14  H8  <0> d          -0.252   1.954  -2.124  0.00  0.00     0.077 H 
BRANCH  12  15
ATOM     15  O2  <0> d          -2.103   1.811  -1.218  0.00  0.00    -0.399 OA
ATOM     16  H9  <0> d          -2.632   2.093  -1.976  0.00  0.00     0.209 HD
ENDBRANCH  12  15
ENDBRANCH   1  12
TORSDOF 5
