REMARK  1 active torsions:
REMARK  status: ('A' for Active; 'I' for Inactive)
REMARK    1  A    between atoms: C1_1  and  C2_2 
ROOT
ATOM      1  C2  <0> d           0.213   5.329   0.028  0.00  0.00    -0.015 A 
ATOM      2  H1  <0> d          -0.263   5.830  -0.828  0.00  0.00     0.049 H 
ATOM      3  C3  <0> d           1.746   5.447   0.015  0.00  0.00    -0.000 A 
ATOM      4  N1  <0> d           2.238   4.067   0.003  0.00  0.00    -0.389 N 
ATOM      5  C4  <0> d           1.164   3.175   0.008  0.00  0.00     0.034 A 
ATOM      6  C5  <0> d          -0.053   3.840   0.023  0.00  0.00    -0.026 A 
ATOM      7  C6  <0> d          -1.238   3.131   0.029  0.00  0.00    -0.074 A 
ATOM      8  C7  <0> d          -1.220   1.748   0.017  0.00  0.00    -0.082 A 
ATOM      9  C8  <0> d          -0.013   1.076   0.008  0.00  0.00    -0.081 A 
ATOM     10  C9  <0> d           1.173   1.779   0.000  0.00  0.00    -0.057 A 
ATOM     11  H5  <0> d           2.063   5.997  -0.883  0.00  0.00     0.065 H 
ATOM     12  H6  <0> d           2.080   5.988   0.913  0.00  0.00     0.065 H 
ATOM     13  H7  <0> d           3.320   3.869  -0.008  0.00  0.00     0.159 HD
ATOM     14  H8  <0> d          -2.181   3.658   0.041  0.00  0.00     0.084 H 
ATOM     15  H9  <0> d          -2.148   1.195   0.019  0.00  0.00     0.083 H 
ATOM     16  H10 <0> d           0.002  -0.004   0.002  0.00  0.00     0.083 H 
ATOM     17  H11 <0> d           2.114   1.248  -0.011  0.00  0.00     0.086 H 
ENDROOT
BRANCH   1  18
ATOM     18  C1  <0> d          -0.361   5.968   1.294  0.00  0.00    -0.067 C 
ATOM     19  H2  <0> d          -0.159   7.050   1.282  0.00  0.00     0.028 H 
ATOM     20  H3  <0> d           0.111   5.517   2.179  0.00  0.00     0.028 H 
ATOM     21  H4  <0> d          -1.447   5.798   1.331  0.00  0.00     0.028 H 
ENDBRANCH   1  18
TORSDOF 1
