REMARK  6 active torsions:
REMARK  status: ('A' for Active; 'I' for Inactive)
REMARK    1  A    between atoms: C1_1  and  C2_2 
REMARK    2  A    between atoms: C2_2  and  C3_3 
REMARK    3  A    between atoms: C2_2  and  C4_4 
REMARK    4  A    between atoms: C2_2  and  C5_5 
REMARK       I    between atoms: C5_5  and  N1_7 
REMARK    5  A    between atoms: N1_7  and  C6_8 
REMARK    6  A    between atoms: N1_7  and  C7_9 
ROOT
ATOM      1  C2  <0> d           1.227   2.009  -0.008  0.00  0.00     0.030 C 
ENDROOT
BRANCH   1   2
ATOM      2  C1  <0> d           2.417   1.049   0.015  0.00  0.00    -0.061 C 
ATOM      3  H1  <0> d           2.356   0.373  -0.837  0.00  0.00     0.029 H 
ATOM      4  H2  <0> d           3.345   1.619  -0.040  0.00  0.00     0.029 H 
ATOM      5  H3  <0> d           2.400   0.471   0.939  0.00  0.00     0.029 H 
ENDBRANCH   1   2
BRANCH   1   6
ATOM      6  C3  <0> d           1.251   2.820  -1.306  0.00  0.00    -0.061 C 
ATOM      7  H4  <0> d           0.449   3.558  -1.288  0.00  0.00     0.029 H 
ATOM      8  H5  <0> d           2.211   3.328  -1.399  0.00  0.00     0.029 H 
ATOM      9  H6  <0> d           1.110   2.151  -2.155  0.00  0.00     0.029 H 
ENDBRANCH   1   6
BRANCH   1  10
ATOM     10  C4  <0> d           1.313   2.959   1.188  0.00  0.00    -0.061 C 
ATOM     11  H7  <0> d           1.207   2.390   2.112  0.00  0.00     0.029 H 
ATOM     12  H8  <0> d           2.279   3.464   1.182  0.00  0.00     0.029 H 
ATOM     13  H9  <0> d           0.515   3.699   1.123  0.00  0.00     0.029 H 
ENDBRANCH   1  10
BRANCH   1  14
ATOM     14  C5  <0> d          -0.056   1.221   0.068  0.00  0.00     0.226 C 
ATOM     15  O1  <0> d          -0.028   0.010   0.006  0.00  0.00    -0.273 OA
ATOM     16  N1  <0> d          -1.234   1.862   0.199  0.00  0.00    -0.360 N 
BRANCH  16  17
ATOM     17  C6  <0> d          -2.468   1.095   0.388  0.00  0.00    -0.017 C 
ATOM     18  H10 <0> d          -2.641   0.942   1.453  0.00  0.00     0.056 H 
ATOM     19  H11 <0> d          -3.306   1.645  -0.041  0.00  0.00     0.056 H 
ATOM     20  H12 <0> d          -2.375   0.129  -0.108  0.00  0.00     0.056 H 
ENDBRANCH  16  17
BRANCH  16  21
ATOM     21  C7  <0> d          -1.281   3.326   0.152  0.00  0.00    -0.017 C 
ATOM     22  H13 <0> d          -0.289   3.714  -0.080  0.00  0.00     0.056 H 
ATOM     23  H14 <0> d          -1.984   3.642  -0.618  0.00  0.00     0.056 H 
ATOM     24  H15 <0> d          -1.604   3.710   1.119  0.00  0.00     0.056 H 
ENDBRANCH  16  21
ENDBRANCH   1  14
TORSDOF 6
