REMARK  2 active torsions:
REMARK  status: ('A' for Active; 'I' for Inactive)
REMARK    1  A    between atoms: C1_1  and  C2_2 
REMARK    2  A    between atoms: C4_4  and  N3_10 
ROOT
ATOM      1  C2  <0> d          -0.718   1.572   1.248  0.00  0.00     0.053 A 
ATOM      2  C3  <0> d          -0.853   2.947   1.473  0.00  0.00    -0.027 A 
ATOM      3  C4  <0> d          -1.498   3.390   2.595  0.00  0.00     0.098 A 
ATOM      4  C5  <0> d          -2.008   2.441   3.516  0.00  0.00     0.287 A 
ATOM      5  O1  <0> d          -2.584   2.811   4.527  0.00  0.00    -0.264 OA
ATOM      6  N1  <0> d          -1.852   1.125   3.263  0.00  0.00    -0.241 N 
ATOM      7  H1  <0> d          -2.197   0.469   3.888  0.00  0.00     0.192 HD
ATOM      8  N2  <0> d          -1.192   0.705   2.103  0.00  0.00    -0.177 NA
ATOM      9  H5  <0> d          -0.454   3.655   0.762  0.00  0.00     0.090 H 
ENDROOT
BRANCH   1  10
ATOM     10  C1  <0> d          -0.013   1.086   0.008  0.00  0.00    -0.034 C 
ATOM     11  H2  <0> d           0.002  -0.004   0.002  0.00  0.00     0.035 H 
ATOM     12  H3  <0> d           1.010   1.463   0.000  0.00  0.00     0.035 H 
ATOM     13  H4  <0> d          -0.540   1.447  -0.875  0.00  0.00     0.035 H 
ENDBRANCH   1  10
BRANCH   3  14
ATOM     14  N3  <0> d          -1.646   4.755   2.832  0.00  0.00    -0.395 N 
ATOM     15  H6  <0> d          -2.101   5.062   3.632  0.00  0.00     0.156 HD
ATOM     16  H7  <0> d          -1.294   5.399   2.197  0.00  0.00     0.156 HD
ENDBRANCH   3  14
TORSDOF 2
