REMARK  3 active torsions:
REMARK  status: ('A' for Active; 'I' for Inactive)
REMARK    1  A    between atoms: C1_1  and  C2_2 
REMARK    2  A    between atoms: C2_2  and  C8_12 
REMARK    3  A    between atoms: C3_3  and  C6_9 
ROOT
ATOM      1  C2  <0> d          -1.136   1.773   0.788  0.00  0.00    -0.025 A 
ATOM      2  C3  <0> d          -0.013   1.086   0.008  0.00  0.00    -0.018 A 
ATOM      3  H1  <0> d           0.002  -0.004   0.002  0.00  0.00     0.044 H 
ATOM      4  C4  <0> d          -1.150   1.781  -0.743  0.00  0.00     0.042 A 
ATOM      5  H2  <0> d          -1.884   1.149  -1.243  0.00  0.00     0.064 H 
ATOM      6  C5  <0> d          -0.842   3.052  -1.419  0.00  0.00     0.065 C 
ATOM      7  N1  <0> d          -0.604   4.033  -1.940  0.00  0.00    -0.197 NA
ENDROOT
BRANCH   1   8
ATOM      8  C1  <0> d          -2.152   0.877   1.500  0.00  0.00    -0.068 C 
ATOM      9  H3  <0> d          -1.637   0.251   2.228  0.00  0.00     0.028 H 
ATOM     10  H4  <0> d          -2.888   1.498   2.010  0.00  0.00     0.028 H 
ATOM     11  H5  <0> d          -2.654   0.245   0.768  0.00  0.00     0.028 H 
ENDBRANCH   1   8
BRANCH   1  12
ATOM     12  C8  <0> d          -0.801   3.086   1.498  0.00  0.00    -0.068 C 
ATOM     13  H8  <0> d          -0.468   3.821   0.765  0.00  0.00     0.028 H 
ATOM     14  H9  <0> d          -1.689   3.459   2.009  0.00  0.00     0.028 H 
ATOM     15  H10 <0> d          -0.009   2.914   2.226  0.00  0.00     0.028 H 
ENDBRANCH   1  12
BRANCH   2  16
ATOM     16  C6  <0> d           1.359   1.764  -0.001  0.00  0.00     0.020 C 
ATOM     17  C7  <0> d           2.328   0.902  -0.697  0.00  0.00     0.059 C 
ATOM     18  N2  <0> d           3.076   0.237  -1.234  0.00  0.00    -0.197 NA
ATOM     19  H6  <0> d           1.287   2.721  -0.518  0.00  0.00     0.055 H 
ATOM     20  H7  <0> d           1.689   1.929   1.024  0.00  0.00     0.055 H 
ENDBRANCH   2  16
TORSDOF 3
