REMARK  5 active torsions:
REMARK  status: ('A' for Active; 'I' for Inactive)
REMARK    1  A    between atoms: C1_1  and  C2_2 
REMARK    2  A    between atoms: C2_2  and  C3_3 
REMARK    3  A    between atoms: C3_3  and  C4_5 
REMARK    4  A    between atoms: C3_3  and  C5_6 
REMARK    5  A    between atoms: C5_6  and  C6_8 
ROOT
ATOM      1  C6  <0> d           1.280   1.975   0.000  0.00  0.00     0.070 C 
ATOM      2  C7  <0> d           2.412   1.033  -0.015  0.00  0.00     0.066 C 
ATOM      3  N1  <0> d           3.285   0.307  -0.028  0.00  0.00    -0.197 NA
ATOM      4  H10 <0> d           1.321   2.612  -0.895  0.00  0.00     0.066 H 
ATOM      5  H11 <0> d           1.339   2.603   0.901  0.00  0.00     0.066 H 
ENDROOT
BRANCH   1   6
ATOM      6  C5  <0> d          -0.014   1.203   0.009  0.00  0.00     0.143 C 
ATOM      7  O1  <0> d           0.002  -0.004   0.002  0.00  0.00    -0.297 OA
BRANCH   6   8
ATOM      8  C3  <0> d          -1.329   1.939   0.019  0.00  0.00     0.001 C 
ATOM      9  H1  <0> d          -1.194   2.896   0.544  0.00  0.00     0.051 H 
BRANCH   8  10
ATOM     10  C2  <0> d          -2.381   1.094   0.741  0.00  0.00    -0.059 C 
ATOM     11  H5  <0> d          -2.016   0.834   1.745  0.00  0.00     0.033 H 
ATOM     12  H6  <0> d          -2.567   0.173   0.168  0.00  0.00     0.033 H 
BRANCH  10  13
ATOM     13  C1  <0> d          -3.681   1.891   0.861  0.00  0.00    -0.076 C 
ATOM     14  H2  <0> d          -4.437   1.284   1.380  0.00  0.00     0.027 H 
ATOM     15  H3  <0> d          -4.046   2.151  -0.144  0.00  0.00     0.027 H 
ATOM     16  H4  <0> d          -3.495   2.812   1.433  0.00  0.00     0.027 H 
ENDBRANCH  10  13
ENDBRANCH   8  10
BRANCH   8  17
ATOM     17  C4  <0> d          -1.781   2.196  -1.420  0.00  0.00    -0.066 C 
ATOM     18  H7  <0> d          -1.025   2.804  -1.939  0.00  0.00     0.028 H 
ATOM     19  H8  <0> d          -2.741   2.733  -1.413  0.00  0.00     0.028 H 
ATOM     20  H9  <0> d          -1.902   1.236  -1.943  0.00  0.00     0.028 H 
ENDBRANCH   8  17
ENDBRANCH   6   8
ENDBRANCH   1   6
TORSDOF 5
