REMARK  4 active torsions:
REMARK  status: ('A' for Active; 'I' for Inactive)
REMARK    1  A    between atoms: C1_1  and  C2_2 
REMARK    2  A    between atoms: C2_2  and  C3_3 
REMARK    3  A    between atoms: C4_6  and  C8_12 
REMARK    4  A    between atoms: C5_7  and  C7_11 
ROOT
ATOM      1  C3  <0> d           0.707  -0.490  -1.238  0.00  0.00     0.106 A 
ATOM      2  N1  <0> d           1.179   0.383  -2.088  0.00  0.00    -0.240 NA
ATOM      3  H1  <0> d           0.488  -2.445  -0.795  0.00  0.00     0.170 HD
ATOM      4  C4  <0> d           1.811   0.002  -3.200  0.00  0.00     0.044 A 
ATOM      5  C5  <0> d           1.977  -1.323  -3.468  0.00  0.00     0.030 A 
ATOM      6  C6  <0> d           1.468  -2.265  -2.550  0.00  0.00     0.254 A 
ATOM      7  O1  <0> d           1.595  -3.462  -2.752  0.00  0.00    -0.268 OA
ATOM      8  N2  <0> d           0.843  -1.815  -1.442  0.00  0.00    -0.311 N 
ENDROOT
BRANCH   1   9
ATOM      9  C2  <0> d           0.002  -0.004   0.002  0.00  0.00    -0.013 C 
ATOM     10  H5  <0> d           0.529  -0.365   0.885  0.00  0.00     0.043 H 
ATOM     11  H6  <0> d          -1.020  -0.381   0.010  0.00  0.00     0.043 H 
BRANCH   9  12
ATOM     12  C1  <0> d          -0.019   1.526   0.010  0.00  0.00    -0.070 C 
ATOM     13  H2  <0> d           1.004   1.903   0.003  0.00  0.00     0.028 H 
ATOM     14  H3  <0> d          -0.546   1.887  -0.873  0.00  0.00     0.028 H 
ATOM     15  H4  <0> d          -0.529   1.877   0.907  0.00  0.00     0.028 H 
ENDBRANCH   9  12
ENDBRANCH   1   9
BRANCH   4  16
ATOM     16  C8  <0> d           2.341   1.038  -4.159  0.00  0.00    -0.035 C 
ATOM     17  H10 <0> d           2.115   2.034  -3.779  0.00  0.00     0.035 H 
ATOM     18  H11 <0> d           3.421   0.922  -4.258  0.00  0.00     0.035 H 
ATOM     19  H12 <0> d           1.871   0.905  -5.133  0.00  0.00     0.035 H 
ENDBRANCH   4  16
BRANCH   5  20
ATOM     20  C7  <0> d           2.688  -1.772  -4.718  0.00  0.00    -0.044 C 
ATOM     21  H7  <0> d           3.754  -1.871  -4.515  0.00  0.00     0.033 H 
ATOM     22  H8  <0> d           2.288  -2.735  -5.037  0.00  0.00     0.033 H 
ATOM     23  H9  <0> d           2.535  -1.036  -5.508  0.00  0.00     0.033 H 
ENDBRANCH   5  20
TORSDOF 4
