REMARK  4 active torsions:
REMARK  status: ('A' for Active; 'I' for Inactive)
REMARK    1  A    between atoms: C1_1  and  C2_2 
REMARK    2  A    between atoms: C5_5  and  N2_10 
REMARK    3  A    between atoms: C6_6  and  O1_8 
REMARK    4  A    between atoms: O1_8  and  C7_9 
ROOT
ATOM      1  C2  <0> d          -0.016   1.316   0.009  0.00  0.00     0.033 A 
ATOM      2  C3  <0> d           1.158   2.042   0.002  0.00  0.00    -0.057 A 
ATOM      3  C4  <0> d           2.373   1.372  -0.014  0.00  0.00    -0.051 A 
ATOM      4  C5  <0> d           2.361  -0.018  -0.021  0.00  0.00     0.079 A 
ATOM      5  C6  <0> d           1.135  -0.683  -0.013  0.00  0.00     0.191 A 
ATOM      6  N1  <0> d           0.002  -0.004   0.002  0.00  0.00    -0.228 NA
ATOM      7  H4  <0> d           1.131   3.122   0.008  0.00  0.00     0.086 H 
ATOM      8  H5  <0> d           3.305   1.917  -0.020  0.00  0.00     0.087 H 
ENDROOT
BRANCH   5   9
ATOM      9  O1  <0> d           1.106  -2.041  -0.019  0.00  0.00    -0.338 OA
BRANCH   9  10
ATOM     10  C7  <0> d          -0.180  -2.662  -0.011  0.00  0.00     0.012 C 
ATOM     11  H6  <0> d          -0.061  -3.746  -0.018  0.00  0.00     0.067 H 
ATOM     12  H7  <0> d          -0.723  -2.363   0.886  0.00  0.00     0.067 H 
ATOM     13  H8  <0> d          -0.740  -2.353  -0.893  0.00  0.00     0.067 H 
ENDBRANCH   9  10
ENDBRANCH   5   9
BRANCH   4  14
ATOM     14  N2  <0> d           3.561  -0.738  -0.037  0.00  0.00    -0.396 N 
ATOM     15  H9  <0> d           3.544  -1.708  -0.043  0.00  0.00     0.156 HD
ATOM     16  H10 <0> d           4.409  -0.268  -0.043  0.00  0.00     0.156 HD
ENDBRANCH   4  14
BRANCH   1  17
ATOM     17  C1  <0> d          -1.337   2.040   0.019  0.00  0.00    -0.035 C 
ATOM     18  H1  <0> d          -1.651   2.209   1.050  0.00  0.00     0.035 H 
ATOM     19  H2  <0> d          -1.230   2.998  -0.490  0.00  0.00     0.035 H 
ATOM     20  H3  <0> d          -2.086   1.438  -0.494  0.00  0.00     0.035 H 
ENDBRANCH   1  17
TORSDOF 4
