REMARK  5 active torsions:
REMARK  status: ('A' for Active; 'I' for Inactive)
REMARK    1  A    between atoms: C1_1  and  C2_2 
REMARK    2  A    between atoms: C2_2  and  C3_3 
REMARK    3  A    between atoms: C3_3  and  C4_4 
REMARK    4  A    between atoms: C4_4  and  C5_5 
REMARK    5  A    between atoms: C5_5  and  C6_6 
ROOT
ATOM      1  C5  <0> d          -2.848  -2.593   0.015  0.00  0.00    -0.040 C 
ATOM      2  H11 <0> d          -3.358  -2.241   0.912  0.00  0.00     0.036 H 
ATOM      3  H12 <0> d          -3.375  -2.232  -0.868  0.00  0.00     0.036 H 
ENDROOT
BRANCH   1   4
ATOM      4  C4  <0> d          -1.413  -2.063   0.004  0.00  0.00    -0.063 C 
ATOM      5  H9  <0> d          -0.902  -2.415  -0.892  0.00  0.00     0.033 H 
ATOM      6  H10 <0> d          -0.885  -2.425   0.887  0.00  0.00     0.033 H 
BRANCH   4   7
ATOM      7  C3  <0> d          -1.433  -0.534   0.013  0.00  0.00    -0.065 C 
ATOM      8  H7  <0> d          -1.944  -0.182   0.910  0.00  0.00     0.033 H 
ATOM      9  H8  <0> d          -1.960  -0.173  -0.870  0.00  0.00     0.033 H 
BRANCH   7  10
ATOM     10  C2  <0> d           0.002  -0.004   0.002  0.00  0.00    -0.069 C 
ATOM     11  H5  <0> d           0.512  -0.356  -0.895  0.00  0.00     0.032 H 
ATOM     12  H6  <0> d           0.529  -0.365   0.885  0.00  0.00     0.032 H 
BRANCH  10  13
ATOM     13  C1  <0> d          -0.019   1.526   0.010  0.00  0.00    -0.077 C 
ATOM     14  H2  <0> d           1.004   1.903   0.003  0.00  0.00     0.027 H 
ATOM     15  H3  <0> d          -0.546   1.887  -0.873  0.00  0.00     0.027 H 
ATOM     16  H4  <0> d          -0.529   1.877   0.907  0.00  0.00     0.027 H 
ENDBRANCH  10  13
ENDBRANCH   7  10
ENDBRANCH   4   7
ENDBRANCH   1   4
BRANCH   1  17
ATOM     17  C6  <0> d          -2.827  -4.123   0.007  0.00  0.00     0.048 C 
ATOM     18  H1  <0> d          -2.235  -4.495  -0.829  0.00  0.00     0.084 H 
ATOM     19  O2  <0> d          -2.324  -4.635   1.259  0.00  0.00    -0.316 OA
ATOM     20  C9  <0> d          -2.760  -5.904   1.401  0.00  0.00     0.259 C 
ATOM     21  C8  <0> d          -4.063  -6.067   0.642  0.00  0.00     0.018 C 
ATOM     22  O1  <0> d          -2.200  -6.770   2.029  0.00  0.00    -0.265 OA
ATOM     23  C7  <0> d          -4.271  -4.693  -0.044  0.00  0.00    -0.032 C 
ATOM     24  H15 <0> d          -4.881  -6.279   1.329  0.00  0.00     0.048 H 
ATOM     25  H16 <0> d          -3.974  -6.857  -0.104  0.00  0.00     0.048 H 
ATOM     26  H13 <0> d          -4.960  -4.069   0.524  0.00  0.00     0.037 H 
ATOM     27  H14 <0> d          -4.610  -4.814  -1.073  0.00  0.00     0.037 H 
ENDBRANCH   1  17
TORSDOF 5
