REMARK  4 active torsions:
REMARK  status: ('A' for Active; 'I' for Inactive)
REMARK    1  A    between atoms: C1_1  and  C2_2 
REMARK    2  A    between atoms: C2_2  and  C3_4 
REMARK    3  A    between atoms: C2_2  and  O1_11 
REMARK    4  A    between atoms: C3_4  and  C4_5 
ROOT
ATOM      1  C4  <0> d          -1.219   1.751   0.017  0.00  0.00    -0.056 A 
ATOM      2  C5  <0> d          -0.013   1.076   0.008  0.00  0.00    -0.077 A 
ATOM      3  C6  <0> d           1.175   1.783   0.000  0.00  0.00    -0.082 A 
ATOM      4  C7  <0> d           1.156   3.165   0.008  0.00  0.00    -0.083 A 
ATOM      5  C8  <0> d          -0.050   3.840   0.022  0.00  0.00    -0.082 A 
ATOM      6  C9  <0> d          -1.238   3.133   0.030  0.00  0.00    -0.077 A 
ATOM      7  H7  <0> d           0.002  -0.004   0.002  0.00  0.00     0.084 H 
ATOM      8  H8  <0> d           2.118   1.256  -0.011  0.00  0.00     0.083 H 
ATOM      9  H9  <0> d           2.084   3.718   0.001  0.00  0.00     0.083 H 
ATOM     10  H10 <0> d          -0.065   4.920   0.028  0.00  0.00     0.083 H 
ATOM     11  H11 <0> d          -2.180   3.660   0.041  0.00  0.00     0.084 H 
ENDROOT
BRANCH   1  12
ATOM     12  C3  <0> d          -2.514   0.980   0.019  0.00  0.00    -0.018 C 
ATOM     13  H5  <0> d          -3.284   1.561  -0.488  0.00  0.00     0.043 H 
ATOM     14  H6  <0> d          -2.373   0.032  -0.500  0.00  0.00     0.043 H 
BRANCH  12  15
ATOM     15  C2  <0> d          -2.945   0.711   1.462  0.00  0.00     0.036 C 
ATOM     16  H1  <0> d          -2.138   0.207   1.995  0.00  0.00     0.082 H 
BRANCH  15  17
ATOM     17  C1  <0> d          -4.191  -0.178   1.465  0.00  0.00    -0.052 C 
ATOM     18  H2  <0> d          -3.964  -1.123   0.972  0.00  0.00     0.030 H 
ATOM     19  H3  <0> d          -4.498  -0.369   2.494  0.00  0.00     0.030 H 
ATOM     20  H4  <0> d          -4.997   0.326   0.933  0.00  0.00     0.030 H 
ENDBRANCH  15  17
BRANCH  15  21
ATOM     21  O1  <0> d          -3.242   1.950   2.110  0.00  0.00    -0.396 OA
ATOM     22  H12 <0> d          -3.952   2.453   1.688  0.00  0.00     0.210 HD
ENDBRANCH  15  21
ENDBRANCH  12  15
ENDBRANCH   1  12
TORSDOF 4
