REMARK  1 active torsions:
REMARK  status: ('A' for Active; 'I' for Inactive)
REMARK    1  A    between atoms: C7_9  and  N2_11 
ROOT
ATOM      1  C1  <0> d           1.206  -0.694  -0.013  0.00  0.00    -0.080 A 
ATOM      2  C2  <0> d           2.394  -0.018  -0.021  0.00  0.00    -0.071 A 
ATOM      3  C3  <0> d           2.401   1.379  -0.014  0.00  0.00    -0.006 A 
ATOM      4  C4  <0> d           3.460   2.391  -0.020  0.00  0.00    -0.056 A 
ATOM      5  C5  <0> d           2.857   3.591  -0.008  0.00  0.00    -0.022 A 
ATOM      6  N1  <0> d           1.500   3.430   0.005  0.00  0.00    -0.363 N 
ATOM      7  H1  <0> d           0.853   4.153   0.015  0.00  0.00     0.165 HD
ATOM      8  C6  <0> d           1.188   2.087   0.002  0.00  0.00     0.069 A 
ATOM      9  C7  <0> d          -0.017   1.380   0.010  0.00  0.00     0.053 A 
ATOM     10  C8  <0> d           0.002  -0.004   0.002  0.00  0.00    -0.055 A 
ATOM     11  H2  <0> d           1.204  -1.774  -0.018  0.00  0.00     0.083 H 
ATOM     12  H3  <0> d           3.326  -0.564  -0.032  0.00  0.00     0.084 H 
ATOM     13  H4  <0> d           4.524   2.207  -0.031  0.00  0.00     0.086 H 
ATOM     14  H5  <0> d           3.369   4.542  -0.008  0.00  0.00     0.111 H 
ATOM     15  H6  <0> d          -0.928  -0.552   0.008  0.00  0.00     0.087 H 
ENDROOT
BRANCH   9  16
ATOM     16  N2  <0> d          -1.235   2.066   0.019  0.00  0.00    -0.397 N 
ATOM     17  H7  <0> d          -2.070   1.572   0.020  0.00  0.00     0.156 HD
ATOM     18  H8  <0> d          -1.245   3.036   0.025  0.00  0.00     0.156 HD
ENDBRANCH   9  16
TORSDOF 1
