REMARK  1 active torsions:
REMARK  status: ('A' for Active; 'I' for Inactive)
REMARK    1  A    between atoms: C5_5  and  C6_6 
REMARK       I    between atoms: C6_6  and  N1_8 
ROOT
ATOM      1  C1  <0> d          -2.649   0.045  -1.290  0.00  0.00    -0.038 C 
ATOM      2  C2  <0> d          -4.124   0.132  -1.608  0.00  0.00    -0.106 C 
ATOM      3  C3  <0> d          -4.695   1.093  -0.933  0.00  0.00    -0.106 C 
ATOM      4  C4  <0> d          -3.697   1.807  -0.053  0.00  0.00    -0.038 C 
ATOM      5  C5  <0> d          -2.482   0.853   0.018  0.00  0.00     0.029 C 
ATOM      6  H1  <0> d          -2.061   0.493  -2.090  0.00  0.00     0.040 H 
ATOM      7  H2  <0> d          -2.354  -0.993  -1.136  0.00  0.00     0.040 H 
ATOM      8  H3  <0> d          -4.638  -0.516  -2.303  0.00  0.00     0.076 H 
ATOM      9  H4  <0> d          -5.744   1.343  -0.996  0.00  0.00     0.076 H 
ATOM     10  H5  <0> d          -4.113   1.966   0.942  0.00  0.00     0.040 H 
ATOM     11  H6  <0> d          -3.406   2.758  -0.499  0.00  0.00     0.040 H 
ATOM     12  H7  <0> d          -2.546   0.202   0.891  0.00  0.00     0.055 H 
ENDROOT
BRANCH   5  13
ATOM     13  C6  <0> d          -1.187   1.624   0.017  0.00  0.00     0.220 C 
ATOM     14  O1  <0> d          -1.204   2.837   0.023  0.00  0.00    -0.273 OA
ATOM     15  N1  <0> d          -0.011   0.966   0.007  0.00  0.00    -0.370 N 
ATOM     16  H8  <0> d           0.002  -0.004   0.002  0.00  0.00     0.159 HD
ATOM     17  H9  <0> d           0.822   1.462   0.002  0.00  0.00     0.159 HD
ENDBRANCH   5  13
TORSDOF 1
