REMARK  2 active torsions:
REMARK  status: ('A' for Active; 'I' for Inactive)
REMARK    1  A    between atoms: C1_1  and  C2_2 
REMARK    2  A    between atoms: C2_2  and  C3_3 
ROOT
ATOM      1  C3  <0> d          -1.412  -0.526   0.013  0.00  0.00     0.062 A 
ATOM      2  C4  <0> d          -2.027  -0.852  -1.158  0.00  0.00     0.126 A 
ATOM      3  C5  <0> d          -3.352  -1.338  -1.112  0.00  0.00     0.270 A 
ATOM      4  N1  <0> d          -3.953  -1.460   0.091  0.00  0.00    -0.317 N 
ATOM      5  C6  <0> d          -3.288  -1.119   1.213  0.00  0.00     0.067 A 
ATOM      6  N2  <0> d          -2.061  -0.674   1.170  0.00  0.00    -0.247 NA
ATOM      7  O1  <0> d          -3.940  -1.641  -2.136  0.00  0.00    -0.266 OA
ATOM      8 Cl1  <0> d          -1.201  -0.673  -2.674  0.00  0.00    -0.076 Cl
ATOM      9  H6  <0> d          -3.780  -1.220   2.169  0.00  0.00     0.143 H 
ATOM     10  H7  <0> d          -4.863  -1.791   0.147  0.00  0.00     0.170 HD
ENDROOT
BRANCH   1  11
ATOM     11  C2  <0> d           0.002  -0.004   0.002  0.00  0.00    -0.026 C 
ATOM     12  H4  <0> d           0.512  -0.356  -0.895  0.00  0.00     0.041 H 
ATOM     13  H5  <0> d           0.529  -0.365   0.885  0.00  0.00     0.041 H 
BRANCH  11  14
ATOM     14  C1  <0> d          -0.019   1.526   0.010  0.00  0.00    -0.071 C 
ATOM     15  H1  <0> d           1.004   1.903   0.003  0.00  0.00     0.028 H 
ATOM     16  H2  <0> d          -0.546   1.887  -0.873  0.00  0.00     0.028 H 
ATOM     17  H3  <0> d          -0.529   1.877   0.907  0.00  0.00     0.028 H 
ENDBRANCH  11  14
ENDBRANCH   1  11
TORSDOF 2
