REMARK  1 active torsions:
REMARK  status: ('A' for Active; 'I' for Inactive)
REMARK       I    between atoms: N1_3  and  C6_8 
REMARK    1  A    between atoms: C5_6  and  O1_7 
REMARK       I    between atoms: C6_8  and  N2_10 
ROOT
ATOM      1  C1  <0> d          -0.021   1.527   0.013  0.00  0.00    -0.026 C 
ATOM      2  C2  <0> d           1.418   2.053   0.001  0.00  0.00     0.002 C 
ATOM      3  N1  <0> d           2.150   1.453   1.125  0.00  0.00    -0.334 N 
ATOM      4  C3  <0> d           2.157  -0.010   1.263  0.00  0.00     0.002 C 
ATOM      5  C4  <0> d           0.710  -0.512   1.261  0.00  0.00    -0.026 C 
ATOM      6  C5  <0> d          -0.001  -0.003   0.005  0.00  0.00     0.038 C 
ATOM      7  C6  <0> d           2.803   2.229   2.011  0.00  0.00     0.316 C 
ATOM      8  O2  <0> d           2.868   3.431   1.836  0.00  0.00    -0.247 OA
ATOM      9  N2  <0> d           3.385   1.675   3.093  0.00  0.00    -0.352 N 
ATOM     10  H1  <0> d          -0.529   1.880   0.910  0.00  0.00     0.039 H 
ATOM     11  H2  <0> d          -0.548   1.889  -0.870  0.00  0.00     0.039 H 
ATOM     12  H3  <0> d           1.900   1.778  -0.938  0.00  0.00     0.064 H 
ATOM     13  H4  <0> d           1.412   3.138   0.106  0.00  0.00     0.064 H 
ATOM     14  H5  <0> d           2.699  -0.453   0.427  0.00  0.00     0.064 H 
ATOM     15  H6  <0> d           2.639  -0.286   2.201  0.00  0.00     0.064 H 
ATOM     16  H7  <0> d           0.704  -1.602   1.266  0.00  0.00     0.039 H 
ATOM     17  H8  <0> d           0.195  -0.141   2.146  0.00  0.00     0.039 H 
ATOM     18  H9  <0> d           0.529  -0.355  -0.880  0.00  0.00     0.083 H 
ATOM     19  H11 <0> d           3.398   0.710   3.196  0.00  0.00     0.160 HD
ATOM     20  H12 <0> d           3.791   2.240   3.769  0.00  0.00     0.160 HD
ENDROOT
BRANCH   6  21
ATOM     21  O1  <0> d          -1.342  -0.497  -0.017  0.00  0.00    -0.395 OA
ATOM     22  H10 <0> d          -1.405  -1.462  -0.023  0.00  0.00     0.210 HD
ENDBRANCH   6  21
TORSDOF 1
