REMARK  5 active torsions:
REMARK  status: ('A' for Active; 'I' for Inactive)
REMARK    1  A    between atoms: C1_1  and  C2_2 
REMARK    2  A    between atoms: C2_2  and  C3_3 
REMARK    3  A    between atoms: C3_3  and  C4_4 
REMARK    4  A    between atoms: C4_4  and  S1_5 
REMARK    5  A    between atoms: S1_5  and  C5_6 
ROOT
ATOM      1  C3  <0> d           0.718  -0.497  -1.257  0.00  0.00    -0.057 C 
ATOM      2  H6  <0> d           0.191  -0.136  -2.140  0.00  0.00     0.034 H 
ATOM      3  H7  <0> d           1.741  -0.120  -1.264  0.00  0.00     0.034 H 
ENDROOT
BRANCH   1   4
ATOM      4  C2  <0> d           0.002  -0.004   0.002  0.00  0.00    -0.068 C 
ATOM      5  H4  <0> d           0.529  -0.365   0.885  0.00  0.00     0.032 H 
ATOM      6  H5  <0> d          -1.020  -0.381   0.010  0.00  0.00     0.032 H 
BRANCH   4   7
ATOM      7  C1  <0> d          -0.019   1.526   0.010  0.00  0.00    -0.076 C 
ATOM      8  H1  <0> d           1.004   1.903   0.003  0.00  0.00     0.027 H 
ATOM      9  H2  <0> d          -0.546   1.887  -0.873  0.00  0.00     0.027 H 
ATOM     10  H3  <0> d          -0.529   1.877   0.907  0.00  0.00     0.027 H 
ENDBRANCH   4   7
ENDBRANCH   1   4
BRANCH   1  11
ATOM     11  C4  <0> d           0.739  -2.027  -1.265  0.00  0.00    -0.016 C 
ATOM     12  H8  <0> d           1.266  -2.388  -0.382  0.00  0.00     0.049 H 
ATOM     13  H9  <0> d          -0.284  -2.405  -1.258  0.00  0.00     0.049 H 
BRANCH  11  14
ATOM     14  S1  <0> d           1.588  -2.612  -2.758  0.00  0.00    -0.087 SA
BRANCH  14  15
ATOM     15  C5  <0> d           1.529  -4.368  -2.621  0.00  0.00     0.233 A 
ATOM     16  N4  <0> d           2.027  -5.252  -3.486  0.00  0.00    -0.100 NA
ATOM     17  N3  <0> d           1.781  -6.429  -3.021  0.00  0.00    -0.021 NA
ATOM     18  N2  <0> d           1.143  -6.321  -1.908  0.00  0.00    -0.021 NA
ATOM     19  N1  <0> d           0.973  -5.073  -1.635  0.00  0.00    -0.100 NA
ENDBRANCH  14  15
ENDBRANCH  11  14
ENDBRANCH   1  11
TORSDOF 5
