REMARK  3 active torsions:
REMARK  status: ('A' for Active; 'I' for Inactive)
REMARK    1  A    between atoms: C1_1  and  C2_2 
REMARK    2  A    between atoms: C7_7  and  C8_8 
REMARK       I    between atoms: C8_8  and  N1_10 
REMARK    3  A    between atoms: N1_10  and  C9_11 
ROOT
ATOM      1  C2  <0> d          -3.674   1.541   0.133  0.00  0.00    -0.046 A 
ATOM      2  C3  <0> d          -4.820   0.810   0.370  0.00  0.00    -0.076 A 
ATOM      3  C4  <0> d          -4.801  -0.569   0.258  0.00  0.00    -0.082 A 
ATOM      4  C5  <0> d          -3.634  -1.224  -0.093  0.00  0.00    -0.082 A 
ATOM      5  C6  <0> d          -2.482  -0.505  -0.338  0.00  0.00    -0.067 A 
ATOM      6  C7  <0> d          -2.494   0.886  -0.221  0.00  0.00     0.037 A 
ATOM      7  H4  <0> d          -5.735   1.316   0.644  0.00  0.00     0.084 H 
ATOM      8  H5  <0> d          -5.701  -1.136   0.444  0.00  0.00     0.083 H 
ATOM      9  H6  <0> d          -3.626  -2.300  -0.180  0.00  0.00     0.083 H 
ATOM     10  H7  <0> d          -1.573  -1.017  -0.616  0.00  0.00     0.085 H 
ENDROOT
BRANCH   6  11
ATOM     11  C8  <0> d          -1.262   1.663  -0.477  0.00  0.00     0.251 C 
ATOM     12  O1  <0> d          -1.301   2.878  -0.487  0.00  0.00    -0.268 OA
ATOM     13  N1  <0> d          -0.097   1.024  -0.700  0.00  0.00    -0.361 N 
ATOM     14  H8  <0> d          -0.066   0.054  -0.692  0.00  0.00     0.162 HD
BRANCH  13  15
ATOM     15  C9  <0> d           1.123   1.793  -0.960  0.00  0.00    -0.018 C 
ATOM     16  H9  <0> d           0.982   2.408  -1.848  0.00  0.00     0.056 H 
ATOM     17  H10 <0> d           1.337   2.434  -0.104  0.00  0.00     0.056 H 
ATOM     18  H11 <0> d           1.956   1.110  -1.120  0.00  0.00     0.056 H 
ENDBRANCH  13  15
ENDBRANCH   6  11
BRANCH   1  19
ATOM     19  C1  <0> d          -3.697   3.043   0.255  0.00  0.00    -0.050 C 
ATOM     20  H1  <0> d          -3.843   3.485  -0.730  0.00  0.00     0.033 H 
ATOM     21  H2  <0> d          -4.515   3.341   0.912  0.00  0.00     0.033 H 
ATOM     22  H3  <0> d          -2.751   3.388   0.673  0.00  0.00     0.033 H 
ENDBRANCH   1  19
TORSDOF 3
