REMARK  0 active torsions:
REMARK  status: ('A' for Active; 'I' for Inactive)
ROOT
ATOM      1  C1  <0> d          -0.017   1.395   0.010  0.00  0.00    -0.060 A 
ATOM      2  C2  <0> d           1.163   2.105   0.002  0.00  0.00    -0.045 A 
ATOM      3  C3  <0> d           2.381   1.438  -0.013  0.00  0.00     0.128 A 
ATOM      4  C4  <0> d           2.412   0.034  -0.021  0.00  0.00     0.082 A 
ATOM      5  C5  <0> d           1.219  -0.684  -0.013  0.00  0.00    -0.040 A 
ATOM      6  C6  <0> d           0.002  -0.004   0.002  0.00  0.00     0.046 A 
ATOM      7  C7  <0> d          -1.228  -0.737   0.010  0.00  0.00     0.099 C 
ATOM      8  N1  <0> d          -2.204  -1.319   0.017  0.00  0.00    -0.191 NA
ATOM      9  C8  <0> d           3.667  -0.656  -0.037  0.00  0.00     0.102 C 
ATOM     10  N2  <0> d           4.662  -1.204  -0.050  0.00  0.00    -0.191 NA
ATOM     11  O1  <0> d           3.539   2.142  -0.021  0.00  0.00    -0.191 OA
ATOM     12  H1  <0> d          -0.961   1.920   0.026  0.00  0.00     0.086 H 
ATOM     13  H2  <0> d           1.142   3.184   0.008  0.00  0.00     0.088 H 
ATOM     14  H3  <0> d           1.236  -1.764  -0.019  0.00  0.00     0.088 H 
ENDROOT
TORSDOF 0
