REMARK  0 active torsions:
REMARK  status: ('A' for Active; 'I' for Inactive)
ROOT
ATOM      1  C1  <0> d          -0.019   1.534   0.011  0.00  0.00     0.023 C 
ATOM      2  C2  <0> d           1.518   1.476  -0.004  0.00  0.00     0.083 C 
ATOM      3  C3  <0> d           1.394   0.090   0.649  0.00  0.00     0.023 C 
ATOM      4  C4  <0> d           0.002  -0.004   0.002  0.00  0.00     0.248 C 
ATOM      5  F1  <0> d           0.017  -0.557  -1.283  0.00  0.00    -0.206 F 
ATOM      6  F2  <0> d          -0.964  -0.582   0.833  0.00  0.00    -0.206 F 
ATOM      7  O1  <0> d           2.135   2.452   0.837  0.00  0.00    -0.235 OA
ATOM      8  H1  <0> d          -0.431   1.960   0.925  0.00  0.00     0.045 H 
ATOM      9  H2  <0> d          -0.448   1.969  -0.892  0.00  0.00     0.045 H 
ATOM     10  H3  <0> d           1.944   1.450  -1.007  0.00  0.00     0.088 H 
ATOM     11  H4  <0> d           2.105  -0.640   0.262  0.00  0.00     0.045 H 
ATOM     12  H5  <0> d           1.368   0.121   1.738  0.00  0.00     0.045 H 
ENDROOT
TORSDOF 0
