REMARK  3 active torsions:
REMARK  status: ('A' for Active; 'I' for Inactive)
REMARK    1  A    between atoms: C1_1  and  N1_2 
REMARK    2  A    between atoms: N1_2  and  C2_3 
REMARK    3  A    between atoms: N1_2  and  C3_4 
ROOT
ATOM      1  N1  <0> d          -0.700   1.560   1.217  0.00  0.00     0.143 N 
ENDROOT
BRANCH   1   2
ATOM      2  C1  <0> d          -0.844   3.021   1.202  0.00  0.00     0.101 C 
ATOM      3  H1  <0> d           0.146   3.486   1.085  0.00  0.00     0.072 H 
ATOM      4  H2  <0> d          -1.297   3.355   2.147  0.00  0.00     0.072 H 
ATOM      5  H3  <0> d          -1.490   3.318   0.361  0.00  0.00     0.072 H 
ENDBRANCH   1   2
BRANCH   1   6
ATOM      6  C2  <0> d          -2.006   0.903   1.371  0.00  0.00     0.101 C 
ATOM      7  H4  <0> d          -1.869  -0.188   1.379  0.00  0.00     0.072 H 
ATOM      8  H5  <0> d          -2.659   1.185   0.532  0.00  0.00     0.072 H 
ATOM      9  H6  <0> d          -2.466   1.222   2.318  0.00  0.00     0.072 H 
ENDBRANCH   1   6
BRANCH   1  10
ATOM     10  C3  <0> d          -0.013   1.086   0.008  0.00  0.00     0.387 C 
ATOM     11  F1  <0> d           1.300   1.570  -0.002  0.00  0.00    -0.180 F 
ATOM     12  F2  <0> d          -0.689   1.549  -1.125  0.00  0.00    -0.180 F 
ATOM     13  H7  <0> d           0.027  -0.012  -0.042  0.00  0.00     0.197 H 
ENDBRANCH   1  10
TORSDOF 3
