REMARK  4 active torsions:
REMARK  status: ('A' for Active; 'I' for Inactive)
REMARK    1  A    between atoms: C1_1  and  C2_2 
REMARK    2  A    between atoms: C2_2  and  C3_3 
REMARK    3  A    between atoms: C4_5  and  C7_11 
REMARK    4  A    between atoms: C5_6  and  O3_10 
ROOT
ATOM      1  C3  <0> d           1.394  -0.427  -0.013  0.00  0.00     0.072 A 
ATOM      2  H1  <0> d           1.577  -1.038  -0.910  0.00  0.00     0.091 H 
ATOM      3  C4  <0> d           2.217   0.840  -0.015  0.00  0.00    -0.015 A 
ATOM      4  C5  <0> d           1.359   1.861  -0.001  0.00  0.00     0.146 A 
ATOM      5  C6  <0> d          -0.016   1.342   0.009  0.00  0.00     0.317 A 
ATOM      6  O1  <0> d          -1.020   2.026   0.018  0.00  0.00    -0.257 OA
ATOM      7  O2  <0> d           0.002  -0.004   0.002  0.00  0.00    -0.306 OA
ENDROOT
BRANCH   1   8
ATOM      8  C2  <0> d           1.706  -1.257   1.234  0.00  0.00    -0.040 C 
ATOM      9  H5  <0> d           1.415  -0.692   2.132  0.00  0.00     0.036 H 
ATOM     10  H6  <0> d           2.784  -1.473   1.270  0.00  0.00     0.036 H 
BRANCH   8  11
ATOM     11  C1  <0> d           0.924  -2.571   1.181  0.00  0.00    -0.074 C 
ATOM     12  H2  <0> d           1.149  -3.167   2.078  0.00  0.00     0.027 H 
ATOM     13  H3  <0> d           1.216  -3.135   0.283  0.00  0.00     0.027 H 
ATOM     14  H4  <0> d          -0.154  -2.355   1.145  0.00  0.00     0.027 H 
ENDBRANCH   8  11
ENDBRANCH   1   8
BRANCH   3  15
ATOM     15  C7  <0> d           3.721   0.932  -0.028  0.00  0.00    -0.049 C 
ATOM     16  H8  <0> d           4.024   1.990  -0.025  0.00  0.00     0.033 H 
ATOM     17  H9  <0> d           4.111   0.442  -0.932  0.00  0.00     0.033 H 
ATOM     18  H10 <0> d           4.127   0.433   0.864  0.00  0.00     0.033 H 
ENDBRANCH   3  15
BRANCH   4  19
ATOM     19  O3  <0> d           1.702   3.176   0.002  0.00  0.00    -0.355 OA
ATOM     20  H7  <0> d           0.919   3.949   0.014  0.00  0.00     0.218 HD
ENDBRANCH   4  19
TORSDOF 4
