REMARK  1 active torsions:
REMARK  status: ('A' for Active; 'I' for Inactive)
REMARK    1  A    between atoms: C2_5  and  C3_7 
ROOT
ATOM      1  C3  <0> d           1.689  -1.884  -0.025  0.00  0.00     0.007 C 
ATOM      2  C4  <0> d           0.783  -2.787  -0.879  0.00  0.00    -0.055 C 
ATOM      3  C5  <0> d           0.927  -3.845   0.227  0.00  0.00    -0.064 C 
ATOM      4  C6  <0> d           1.200  -2.682   1.196  0.00  0.00    -0.055 C 
ATOM      5  H3  <0> d           2.752  -2.009  -0.232  0.00  0.00     0.052 H 
ATOM      6  H4  <0> d          -0.233  -2.407  -0.990  0.00  0.00     0.034 H 
ATOM      7  H5  <0> d           1.231  -3.083  -1.828  0.00  0.00     0.034 H 
ATOM      8  H6  <0> d           0.004  -4.383   0.441  0.00  0.00     0.033 H 
ATOM      9  H7  <0> d           1.782  -4.508   0.089  0.00  0.00     0.033 H 
ATOM     10  H8  <0> d           1.985  -2.893   1.922  0.00  0.00     0.034 H 
ATOM     11  H9  <0> d           0.299  -2.273   1.652  0.00  0.00     0.034 H 
ENDROOT
BRANCH   1  12
ATOM     12  C2  <0> d           1.261  -0.439  -0.012  0.00  0.00     0.151 A 
ATOM     13  N2  <0> d           2.066   0.591  -0.015  0.00  0.00    -0.158 NA
ATOM     14  N1  <0> d           1.256   1.739  -0.001  0.00  0.00    -0.270 N 
ATOM     15  C1  <0> d          -0.016   1.304   0.009  0.00  0.00     0.082 A 
ATOM     16  H1  <0> d           1.556   2.661   0.002  0.00  0.00     0.190 HD
ATOM     17  N3  <0> d           0.002  -0.004   0.002  0.00  0.00    -0.225 NA
ATOM     18  H2  <0> d          -0.898   1.926   0.025  0.00  0.00     0.145 H 
ENDBRANCH   1  12
TORSDOF 1
