REMARK  0 active torsions:
REMARK  status: ('A' for Active; 'I' for Inactive)
ROOT
ATOM      1  C1  <0> d          -0.017   1.378   0.010  0.00  0.00    -0.077 A 
ATOM      2  C2  <0> d           1.170   2.087   0.002  0.00  0.00    -0.044 A 
ATOM      3  C3  <0> d           2.379   1.413  -0.013  0.00  0.00     0.141 A 
ATOM      4  C4  <0> d           2.400   0.028  -0.021  0.00  0.00     0.111 A 
ATOM      5  C5  <0> d           1.210  -0.681  -0.013  0.00  0.00     0.141 A 
ATOM      6  C6  <0> d           0.002  -0.004   0.002  0.00  0.00    -0.044 A 
ATOM      7  F1  <0> d           1.228  -2.031  -0.021  0.00  0.00    -0.204 F 
ATOM      8 Cl1  <0> d           3.915  -0.818  -0.040  0.00  0.00    -0.078 Cl
ATOM      9  F2  <0> d           3.539   2.106  -0.021  0.00  0.00    -0.204 F 
ATOM     10  H1  <0> d          -0.959   1.905   0.026  0.00  0.00     0.083 H 
ATOM     11  H2  <0> d           1.154   3.167   0.008  0.00  0.00     0.088 H 
ATOM     12  H3  <0> d          -0.926  -0.556   0.008  0.00  0.00     0.088 H 
ENDROOT
TORSDOF 0
