REMARK  2 active torsions:
REMARK  status: ('A' for Active; 'I' for Inactive)
REMARK    1  A    between atoms: C1_1  and  C2_2 
REMARK    2  A    between atoms: C9_9  and  C11_12 
ROOT
ATOM      1  C2  <0> d           0.002  -0.004   0.002  0.00  0.00    -0.049 A 
ATOM      2  C3  <0> d           0.006  -0.682  -1.179  0.00  0.00    -0.076 A 
ATOM      3  C4  <0> d           0.025  -2.075  -1.203  0.00  0.00    -0.080 A 
ATOM      4  C5  <0> d           0.040  -2.797  -0.049  0.00  0.00    -0.054 A 
ATOM      5  C6  <0> d           0.037  -2.133   1.190  0.00  0.00     0.067 A 
ATOM      6  C7  <0> d           0.023  -0.717   1.212  0.00  0.00    -0.001 A 
ATOM      7  C8  <0> d           0.025  -0.053   2.453  0.00  0.00    -0.063 A 
ATOM      8  C9  <0> d           0.046  -0.811   3.589  0.00  0.00    -0.044 A 
ATOM      9  C10 <0> d           0.064  -2.202   3.496  0.00  0.00     0.009 A 
ATOM     10  N1  <0> d           0.051  -2.816   2.339  0.00  0.00    -0.260 NA
ATOM     11  H4  <0> d          -0.007  -0.134  -2.109  0.00  0.00     0.084 H 
ATOM     12  H5  <0> d           0.028  -2.590  -2.152  0.00  0.00     0.083 H 
ATOM     13  H6  <0> d           0.055  -3.877  -0.086  0.00  0.00     0.087 H 
ATOM     14  H7  <0> d           0.011   1.025   2.506  0.00  0.00     0.085 H 
ATOM     15  H8  <0> d           0.080  -2.788   4.403  0.00  0.00     0.115 H 
ENDROOT
BRANCH   1  16
ATOM     16  C1  <0> d          -0.018   1.503   0.010  0.00  0.00    -0.050 C 
ATOM     17  H1  <0> d           1.004   1.880   0.003  0.00  0.00     0.033 H 
ATOM     18  H2  <0> d          -0.545   1.864  -0.873  0.00  0.00     0.033 H 
ATOM     19  H3  <0> d          -0.529   1.854   0.907  0.00  0.00     0.033 H 
ENDBRANCH   1  16
BRANCH   8  20
ATOM     20  C11 <0> d           0.049  -0.145   4.941  0.00  0.00    -0.050 C 
ATOM     21  H9  <0> d          -0.978   0.001   5.276  0.00  0.00     0.033 H 
ATOM     22  H10 <0> d           0.578  -0.776   5.655  0.00  0.00     0.033 H 
ATOM     23  H11 <0> d           0.549   0.821   4.869  0.00  0.00     0.033 H 
ENDBRANCH   8  20
TORSDOF 2
