REMARK  2 active torsions:
REMARK  status: ('A' for Active; 'I' for Inactive)
REMARK    1  A    between atoms: C3_3  and  C7_10 
REMARK    2  A    between atoms: C4_6  and  C5_7 
ROOT
ATOM      1  C5  <0> d          -0.018   1.468   0.010  0.00  0.00     0.052 C 
ATOM      2  C6  <0> d           0.002  -0.004   0.002  0.00  0.00     0.065 C 
ATOM      3  N2  <0> d           0.018  -1.140  -0.004  0.00  0.00    -0.197 NA
ATOM      4  H4  <0> d           1.005   1.845   0.002  0.00  0.00     0.064 H 
ATOM      5  H5  <0> d          -0.545   1.829  -0.873  0.00  0.00     0.064 H 
ENDROOT
BRANCH   1   6
ATOM      6  C4  <0> d          -0.723   1.954   1.250  0.00  0.00     0.022 A 
ATOM      7  C1  <0> d          -2.055   2.114   1.390  0.00  0.00    -0.058 A 
ATOM      8  C2  <0> d          -2.288   2.582   2.699  0.00  0.00    -0.058 A 
ATOM      9  H2  <0> d          -2.805   1.918   0.639  0.00  0.00     0.086 H 
ATOM     10  C3  <0> d          -1.089   2.697   3.306  0.00  0.00     0.022 A 
ATOM     11  H3  <0> d          -3.249   2.810   3.135  0.00  0.00     0.086 H 
ATOM     12  N1  <0> d          -0.125   2.313   2.421  0.00  0.00    -0.361 N 
ATOM     13  H1  <0> d           0.829   2.298   2.596  0.00  0.00     0.165 HD
BRANCH  10  14
ATOM     14  C7  <0> d          -0.855   3.169   4.718  0.00  0.00     0.052 C 
ATOM     15  C8  <0> d          -0.794   4.640   4.739  0.00  0.00     0.065 C 
ATOM     16  N3  <0> d          -0.748   5.775   4.756  0.00  0.00    -0.197 NA
ATOM     17  H6  <0> d          -1.672   2.829   5.354  0.00  0.00     0.064 H 
ATOM     18  H7  <0> d           0.087   2.761   5.086  0.00  0.00     0.064 H 
ENDBRANCH  10  14
ENDBRANCH   1   6
TORSDOF 2
