REMARK  2 active torsions:
REMARK  status: ('A' for Active; 'I' for Inactive)
REMARK    1  A    between atoms: C1_1  and  O1_2 
REMARK    2  A    between atoms: O1_2  and  C2_3 
ROOT
ATOM      1  C2  <0> d           0.605  -0.607  -1.055  0.00  0.00     0.088 A 
ATOM      2  C3  <0> d           0.668  -1.997  -1.151  0.00  0.00    -0.031 A 
ATOM      3  C4  <0> d           1.297  -2.541  -2.256  0.00  0.00     0.026 A 
ATOM      4  N1  <0> d           1.815  -1.748  -3.177  0.00  0.00    -0.163 NA
ATOM      5  N2  <0> d           1.759  -0.469  -3.091  0.00  0.00    -0.160 NA
ATOM      6  C5  <0> d           1.176   0.143  -2.079  0.00  0.00     0.056 A 
ATOM      7  H4  <0> d           0.238  -2.628  -0.388  0.00  0.00     0.090 H 
ATOM      8  H5  <0> d           1.366  -3.613  -2.366  0.00  0.00     0.117 H 
ATOM      9  H6  <0> d           1.145   1.222  -2.044  0.00  0.00     0.121 H 
ENDROOT
BRANCH   1  10
ATOM     10  O1  <0> d           0.002  -0.004   0.002  0.00  0.00    -0.354 OA
BRANCH  10  11
ATOM     11  C1  <0> d          -0.017   1.425   0.010  0.00  0.00     0.010 C 
ATOM     12  H1  <0> d           1.005   1.802   0.002  0.00  0.00     0.066 H 
ATOM     13  H2  <0> d          -0.544   1.786  -0.873  0.00  0.00     0.066 H 
ATOM     14  H3  <0> d          -0.527   1.776   0.907  0.00  0.00     0.066 H 
ENDBRANCH  10  11
ENDBRANCH   1  10
TORSDOF 2
