REMARK  2 active torsions:
REMARK  status: ('A' for Active; 'I' for Inactive)
REMARK    1  A    between atoms: C1_1  and  N1_2 
REMARK    2  A    between atoms: C3_6  and  C4_7 
ROOT
ATOM      1  N1  <0> d           0.002  -0.004   0.002  0.00  0.00    -0.324 N 
ATOM      2  C2  <0> d           0.009  -0.813  -1.085  0.00  0.00     0.089 A 
ATOM      3  N2  <0> d           0.027  -2.044  -0.652  0.00  0.00    -0.143 NA
ATOM      4  N3  <0> d           0.032  -2.051   0.634  0.00  0.00    -0.126 NA
ATOM      5  C3  <0> d           0.024  -0.825   1.080  0.00  0.00     0.236 A 
ATOM      6  H4  <0> d          -0.000  -0.498  -2.118  0.00  0.00     0.146 H 
ENDROOT
BRANCH   1   7
ATOM      7  C1  <0> d          -0.018   1.461   0.010  0.00  0.00    -0.012 C 
ATOM      8  H1  <0> d           1.005   1.838   0.002  0.00  0.00     0.057 H 
ATOM      9  H2  <0> d          -0.545   1.822  -0.873  0.00  0.00     0.057 H 
ATOM     10  H3  <0> d          -0.528   1.812   0.907  0.00  0.00     0.057 H 
ENDBRANCH   1   7
BRANCH   5  11
ATOM     11  C4  <0> d           0.032  -0.400   2.526  0.00  0.00     0.453 C 
ATOM     12  F1  <0> d           0.396  -1.487   3.329  0.00  0.00    -0.163 F 
ATOM     13  F2  <0> d           0.953   0.638   2.701  0.00  0.00    -0.163 F 
ATOM     14  F3  <0> d          -1.245   0.042   2.889  0.00  0.00    -0.163 F 
ENDBRANCH   5  11
TORSDOF 2
