REMARK  3 active torsions:
REMARK  status: ('A' for Active; 'I' for Inactive)
REMARK    1  A    between atoms: C1_1  and  C2_2 
REMARK    2  A    between atoms: C2_2  and  N1_3 
REMARK    3  A    between atoms: N1_3  and  C3_4 
ROOT
ATOM      1  C3  <0> d          -0.205   1.221   2.475  0.00  0.00     0.030 A 
ATOM      2  C4  <0> d           0.934   0.432   2.589  0.00  0.00    -0.057 A 
ATOM      3  C5  <0> d           1.423   0.103   3.838  0.00  0.00    -0.078 A 
ATOM      4  C6  <0> d           0.776   0.549   4.976  0.00  0.00    -0.046 A 
ATOM      5  C7  <0> d          -0.362   1.331   4.867  0.00  0.00     0.118 A 
ATOM      6  C8  <0> d          -0.854   1.668   3.619  0.00  0.00    -0.020 A 
ATOM      7  F1  <0> d          -0.992   1.764   5.981  0.00  0.00    -0.206 F 
ATOM      8  H7  <0> d           1.438   0.079   1.702  0.00  0.00     0.086 H 
ATOM      9  H8  <0> d           2.310  -0.507   3.926  0.00  0.00     0.083 H 
ATOM     10  H9  <0> d           1.159   0.286   5.951  0.00  0.00     0.088 H 
ATOM     11  H10 <0> d          -1.741   2.278   3.533  0.00  0.00     0.091 H 
ENDROOT
BRANCH   1  12
ATOM     12  N1  <0> d          -0.698   1.558   1.213  0.00  0.00    -0.390 N 
ATOM     13  H6  <0> d          -1.602   2.179   1.124  0.00  0.00     0.159 HD
BRANCH  12  14
ATOM     14  C2  <0> d          -0.013   1.086   0.008  0.00  0.00    -0.011 C 
ATOM     15  H4  <0> d           0.002  -0.014   0.002  0.00  0.00     0.063 H 
ATOM     16  H5  <0> d           1.019   1.466   0.000  0.00  0.00     0.063 H 
BRANCH  14  17
ATOM     17  C1  <0> d          -0.753   1.593  -1.232  0.00  0.00    -0.061 C 
ATOM     18  H1  <0> d          -0.238   1.238  -2.136  0.00  0.00     0.029 H 
ATOM     19  H2  <0> d          -0.767   2.693  -1.225  0.00  0.00     0.029 H 
ATOM     20  H3  <0> d          -1.785   1.212  -1.224  0.00  0.00     0.029 H 
ENDBRANCH  14  17
ENDBRANCH  12  14
ENDBRANCH   1  12
TORSDOF 3
