REMARK  1 active torsions:
REMARK  status: ('A' for Active; 'I' for Inactive)
REMARK    1  A    between atoms: C4_5  and  N2_7 
REMARK       I    between atoms: N2_7  and  C6_8 
REMARK       I    between atoms: C6_8  and  N3_10 
ROOT
ATOM      1  C1  <0> d           1.176   1.794  -0.005  0.00  0.00    -0.078 A 
ATOM      2  C2  <0> d          -0.012   1.076   0.002  0.00  0.00    -0.066 A 
ATOM      3  C3  <0> d          -1.213   1.757   0.013  0.00  0.00     0.004 A 
ATOM      4  N1  <0> d          -1.243   3.076   0.028  0.00  0.00    -0.243 NA
ATOM      5  C4  <0> d          -0.132   3.795   0.022  0.00  0.00     0.131 A 
ATOM      6  C5  <0> d           1.113   3.176   0.005  0.00  0.00    -0.038 A 
ATOM      7  H1  <0> d           2.129   1.285  -0.018  0.00  0.00     0.083 H 
ATOM      8  H2  <0> d           0.003  -0.004  -0.005  0.00  0.00     0.085 H 
ATOM      9  H3  <0> d          -2.140   1.203   0.015  0.00  0.00     0.114 H 
ATOM     10  H4  <0> d           2.018   3.765  -0.000  0.00  0.00     0.089 H 
ENDROOT
BRANCH   5  11
ATOM     11  N2  <0> d          -0.210   5.187   0.032  0.00  0.00    -0.293 N 
ATOM     12  C6  <0> d          -1.410   5.795  -0.055  0.00  0.00     0.319 C 
ATOM     13  O1  <0> d          -2.429   5.132  -0.049  0.00  0.00    -0.247 OA
ATOM     14  N3  <0> d          -1.480   7.138  -0.148  0.00  0.00    -0.352 N 
ATOM     15  H6  <0> d          -0.666   7.667  -0.153  0.00  0.00     0.160 HD
ATOM     16  H7  <0> d          -2.343   7.575  -0.211  0.00  0.00     0.160 HD
ATOM     17  H5  <0> d           0.599   5.718   0.102  0.00  0.00     0.172 HD
ENDBRANCH   5  11
TORSDOF 1
