REMARK  2 active torsions:
REMARK  status: ('A' for Active; 'I' for Inactive)
REMARK    1  A    between atoms: C1_1  and  C2_2 
REMARK    2  A    between atoms: C6_6  and  N1_9 
ROOT
ATOM      1  C2  <0> d           0.002  -0.004   0.002  0.00  0.00    -0.021 A 
ATOM      2  C3  <0> d          -0.017   1.379   0.010  0.00  0.00    -0.074 A 
ATOM      3  C4  <0> d           1.169   2.090   0.002  0.00  0.00    -0.080 A 
ATOM      4  C5  <0> d           2.378   1.421  -0.013  0.00  0.00    -0.055 A 
ATOM      5  C6  <0> d           2.402   0.033  -0.021  0.00  0.00     0.065 A 
ATOM      6  C7  <0> d           1.208  -0.680  -0.013  0.00  0.00     0.148 A 
ATOM      7  F1  <0> d           1.226  -2.031  -0.020  0.00  0.00    -0.203 F 
ATOM      8  H4  <0> d          -0.960   1.905   0.017  0.00  0.00     0.084 H 
ATOM      9  H5  <0> d           1.150   3.170   0.008  0.00  0.00     0.083 H 
ATOM     10  H6  <0> d           3.304   1.978  -0.019  0.00  0.00     0.087 H 
ENDROOT
BRANCH   1  11
ATOM     11  C1  <0> d          -1.293  -0.775   0.011  0.00  0.00    -0.048 C 
ATOM     12  H1  <0> d          -1.615  -0.955  -1.015  0.00  0.00     0.033 H 
ATOM     13  H2  <0> d          -1.145  -1.728   0.518  0.00  0.00     0.033 H 
ATOM     14  H3  <0> d          -2.055  -0.199   0.535  0.00  0.00     0.033 H 
ENDBRANCH   1  11
BRANCH   5  15
ATOM     15  N1  <0> d           3.624  -0.646  -0.035  0.00  0.00    -0.397 N 
ATOM     16  H7  <0> d           3.640  -1.616  -0.041  0.00  0.00     0.156 HD
ATOM     17  H8  <0> d           4.457  -0.148  -0.041  0.00  0.00     0.156 HD
ENDBRANCH   5  15
TORSDOF 2
