REMARK  3 active torsions:
REMARK  status: ('A' for Active; 'I' for Inactive)
REMARK    1  A    between atoms: C1_1  and  C2_2 
REMARK    2  A    between atoms: C2_2  and  N1_3 
REMARK    3  A    between atoms: C6_7  and  O2_10 
ROOT
ATOM      1  N1  <0> d           2.340   1.444  -0.013  0.00  0.00    -0.323 N 
ATOM      2  C3  <0> d           1.145   2.091   0.002  0.00  0.00    -0.017 A 
ATOM      3  C4  <0> d          -0.017   1.399   0.010  0.00  0.00    -0.065 A 
ATOM      4  C5  <0> d           0.002  -0.004   0.002  0.00  0.00    -0.044 A 
ATOM      5  C6  <0> d           1.203  -0.655  -0.013  0.00  0.00     0.134 A 
ATOM      6  C7  <0> d           2.395   0.098  -0.020  0.00  0.00     0.280 A 
ATOM      7  O1  <0> d           3.476  -0.469  -0.034  0.00  0.00    -0.265 OA
ATOM      8  H6  <0> d           1.122   3.171   0.008  0.00  0.00     0.111 H 
ATOM      9  H7  <0> d          -0.960   1.925   0.017  0.00  0.00     0.085 H 
ATOM     10  H8  <0> d          -0.922  -0.563   0.007  0.00  0.00     0.088 H 
ENDROOT
BRANCH   1  11
ATOM     11  C2  <0> d           3.583   2.219  -0.020  0.00  0.00    -0.001 C 
ATOM     12  H4  <0> d           4.374   1.649   0.488  0.00  0.00     0.064 H 
ATOM     13  H5  <0> d           3.424   3.173   0.505  0.00  0.00     0.064 H 
BRANCH  11  14
ATOM     14  C1  <0> d           4.003   2.497  -1.465  0.00  0.00    -0.061 C 
ATOM     15  H1  <0> d           4.936   3.079  -1.470  0.00  0.00     0.029 H 
ATOM     16  H2  <0> d           3.211   3.068  -1.973  0.00  0.00     0.029 H 
ATOM     17  H3  <0> d           4.162   1.544  -1.990  0.00  0.00     0.029 H 
ENDBRANCH  11  14
ENDBRANCH   1  11
BRANCH   5  18
ATOM     18  O2  <0> d           1.248  -2.015  -0.020  0.00  0.00    -0.356 OA
ATOM     19  H9  <0> d           2.219  -2.533  -0.032  0.00  0.00     0.218 HD
ENDBRANCH   5  18
TORSDOF 3
