REMARK  2 active torsions:
REMARK  status: ('A' for Active; 'I' for Inactive)
REMARK    1  A    between atoms: N3_5  and  C3_6 
REMARK    2  A    between atoms: C3_6  and  C4_7 
ROOT
ATOM      1  C1  <0> d          -0.016   1.351   0.009  0.00  0.00     0.089 A 
ATOM      2  N1  <0> d           1.224   1.756  -0.000  0.00  0.00    -0.144 NA
ATOM      3  N2  <0> d           2.012   0.739  -0.013  0.00  0.00    -0.144 NA
ATOM      4  C2  <0> d           1.309  -0.361  -0.012  0.00  0.00     0.089 A 
ATOM      5  N3  <0> d           0.002  -0.004   0.002  0.00  0.00    -0.323 N 
ATOM      6  H1  <0> d          -0.895   1.979   0.025  0.00  0.00     0.146 H 
ATOM      7  H2  <0> d           1.698  -1.368  -0.022  0.00  0.00     0.146 H 
ENDROOT
BRANCH   5   8
ATOM      8  C3  <0> d          -1.156  -0.901   0.008  0.00  0.00     0.081 C 
ATOM      9  H3  <0> d          -0.893  -1.830   0.515  0.00  0.00     0.081 H 
ATOM     10  H4  <0> d          -1.983  -0.423   0.533  0.00  0.00     0.081 H 
BRANCH   8  11
ATOM     11  C4  <0> d          -1.567  -1.201  -1.410  0.00  0.00     0.191 C 
ATOM     12  O1  <0> d          -0.949  -0.711  -2.340  0.00  0.00    -0.647 OA
ATOM     13  O2  <0> d          -2.517  -1.934  -1.628  0.00  0.00    -0.647 OA
ENDBRANCH   8  11
ENDBRANCH   5   8
TORSDOF 2
