REMARK  2 active torsions:
REMARK  status: ('A' for Active; 'I' for Inactive)
REMARK    1  A    between atoms: C3_3  and  C6_7 
REMARK    2  A    between atoms: C6_7  and  C7_8 
REMARK       I    between atoms: C7_8  and  N1_10 
ROOT
ATOM      1  C1  <0> d          -3.909   5.479   0.876  0.00  0.00    -0.049 C 
ATOM      2  C2  <0> d          -2.704   5.165  -0.043  0.00  0.00    -0.055 C 
ATOM      3  C3  <0> d          -2.657   3.621   0.034  0.00  0.00    -0.030 C 
ATOM      4  H1  <0> d          -3.211   3.182  -0.795  0.00  0.00     0.046 H 
ATOM      5  C4  <0> d          -3.320   3.280   1.349  0.00  0.00    -0.102 C 
ATOM      6  C5  <0> d          -4.002   4.293   1.808  0.00  0.00    -0.106 C 
ATOM      7  H2  <0> d          -4.821   5.571   0.286  0.00  0.00     0.038 H 
ATOM      8  H3  <0> d          -3.730   6.393   1.442  0.00  0.00     0.038 H 
ATOM      9  H4  <0> d          -1.787   5.604   0.350  0.00  0.00     0.034 H 
ATOM     10  H5  <0> d          -2.890   5.500  -1.064  0.00  0.00     0.034 H 
ATOM     11  H6  <0> d          -3.239   2.323   1.843  0.00  0.00     0.076 H 
ATOM     12  H7  <0> d          -4.561   4.285   2.732  0.00  0.00     0.076 H 
ENDROOT
BRANCH   3  13
ATOM     13  C6  <0> d          -1.208   3.131   0.025  0.00  0.00     0.015 C 
ATOM     14  H8  <0> d          -0.695   3.496   0.914  0.00  0.00     0.048 H 
ATOM     15  H9  <0> d          -0.703   3.506  -0.866  0.00  0.00     0.048 H 
BRANCH  13  16
ATOM     16  C7  <0> d          -1.187   1.624   0.017  0.00  0.00     0.215 C 
ATOM     17  O1  <0> d          -2.229   1.003   0.018  0.00  0.00    -0.274 OA
ATOM     18  N1  <0> d          -0.011   0.966   0.007  0.00  0.00    -0.370 N 
ATOM     19  H10 <0> d           0.002  -0.004   0.002  0.00  0.00     0.159 HD
ATOM     20  H11 <0> d           0.822   1.462   0.002  0.00  0.00     0.159 HD
ENDBRANCH  13  16
ENDBRANCH   3  13
TORSDOF 2
