REMARK  1 active torsions:
REMARK  status: ('A' for Active; 'I' for Inactive)
REMARK    1  A    between atoms: C7_9  and  C8_11 
REMARK       I    between atoms: C8_11  and  N1_13 
ROOT
ATOM      1  C1  <0> d           0.887   3.229   0.858  0.00  0.00    -0.057 C 
ATOM      2  C2  <0> d          -0.643   3.336   0.500  0.00  0.00    -0.041 C 
ATOM      3  C3  <0> d          -1.056   1.850   0.868  0.00  0.00    -0.057 C 
ATOM      4  C4  <0> d          -0.013   1.086   0.008  0.00  0.00    -0.045 A 
ATOM      5  H1  <0> d          -0.226   0.019   0.172  0.00  0.00     0.041 H 
ATOM      6  C5  <0> d           1.251   1.962   0.001  0.00  0.00    -0.045 A 
ATOM      7  H2  <0> d           2.329   1.804   0.151  0.00  0.00     0.041 H 
ATOM      8  C6  <0> d           0.268   1.956  -1.229  0.00  0.00    -0.034 A 
ATOM      9  C7  <0> d          -0.655   3.219  -1.071  0.00  0.00     0.031 C 
ATOM     10  H3  <0> d          -0.366   4.116  -1.638  0.00  0.00     0.055 H 
ATOM     11  H4  <0> d           1.094   3.025   1.919  0.00  0.00     0.034 H 
ATOM     12  H5  <0> d           1.494   4.084   0.524  0.00  0.00     0.034 H 
ATOM     13  H6  <0> d          -1.195   4.189   0.922  0.00  0.00     0.041 H 
ATOM     14  H7  <0> d          -0.951   1.698   1.952  0.00  0.00     0.034 H 
ATOM     15  H8  <0> d          -2.102   1.677   0.573  0.00  0.00     0.034 H 
ATOM     16  H9  <0> d           0.359   1.790  -2.313  0.00  0.00     0.042 H 
ENDROOT
BRANCH   9  17
ATOM     17  C8  <0> d          -2.044   2.957  -1.595  0.00  0.00     0.220 C 
ATOM     18  O1  <0> d          -2.321   1.873  -2.063  0.00  0.00    -0.273 OA
ATOM     19  N1  <0> d          -2.977   3.928  -1.543  0.00  0.00    -0.370 N 
ATOM     20  H10 <0> d          -3.991   3.737  -1.925  0.00  0.00     0.159 HD
ATOM     21  H11 <0> d          -2.726   4.911  -1.119  0.00  0.00     0.159 HD
ENDBRANCH   9  17
TORSDOF 1
