REMARK  2 active torsions:
REMARK  status: ('A' for Active; 'I' for Inactive)
REMARK    1  A    between atoms: C5_5  and  C7_8 
REMARK    2  A    between atoms: C7_8  and  C8_9 
ROOT
ATOM      1  C1  <0> d          -0.739   1.585   1.264  0.00  0.00    -0.061 C 
ATOM      2  C2  <0> d          -0.595   3.106   1.335  0.00  0.00    -0.050 C 
ATOM      3  C3  <0> d          -0.952   3.725   0.015  0.00  0.00    -0.106 C 
ATOM      4  C4  <0> d          -1.020   3.070  -1.099  0.00  0.00    -0.102 C 
ATOM      5  C5  <0> d          -0.761   1.597  -1.225  0.00  0.00    -0.029 C 
ATOM      6  H1  <0> d          -1.711   1.069  -1.316  0.00  0.00     0.046 H 
ATOM      7  C6  <0> d          -0.013   1.086   0.008  0.00  0.00    -0.058 C 
ATOM      8  H2  <0> d          -1.796   1.323   1.204  0.00  0.00     0.033 H 
ATOM      9  H3  <0> d          -0.295   1.130   2.149  0.00  0.00     0.033 H 
ATOM     10  H4  <0> d           0.436   3.356   1.584  0.00  0.00     0.038 H 
ATOM     11  H5  <0> d          -1.256   3.496   2.108  0.00  0.00     0.038 H 
ATOM     12  H6  <0> d          -1.166   4.784  -0.006  0.00  0.00     0.076 H 
ATOM     13  H7  <0> d          -1.280   3.617  -1.993  0.00  0.00     0.076 H 
ATOM     14  H8  <0> d           0.002  -0.004   0.002  0.00  0.00     0.034 H 
ATOM     15  H9  <0> d           1.009   1.466   0.000  0.00  0.00     0.034 H 
ENDROOT
BRANCH   5  16
ATOM     16  C7  <0> d           0.082   1.336  -2.475  0.00  0.00     0.022 C 
ATOM     17  H10 <0> d           0.997   1.927  -2.426  0.00  0.00     0.050 H 
ATOM     18  H11 <0> d           0.336   0.277  -2.527  0.00  0.00     0.050 H 
BRANCH  16  19
ATOM     19  C8  <0> d          -0.703   1.725  -3.701  0.00  0.00     0.173 C 
ATOM     20  O1  <0> d          -1.822   2.166  -3.587  0.00  0.00    -0.648 OA
ATOM     21  O2  <0> d          -0.159   1.582  -4.919  0.00  0.00    -0.648 OA
ENDBRANCH  16  19
ENDBRANCH   5  16
TORSDOF 2
