REMARK  1 active torsions:
REMARK  status: ('A' for Active; 'I' for Inactive)
REMARK    1  A    between atoms: C8_10  and  O1_13 
ROOT
ATOM      1  C1  <0> d          -1.184   4.010   0.969  0.00  0.00    -0.064 C 
ATOM      2  C2  <0> d          -1.233   3.932  -0.556  0.00  0.00    -0.062 C 
ATOM      3  C3  <0> d          -1.826   2.583  -0.970  0.00  0.00    -0.052 C 
ATOM      4  H1  <0> d          -2.381   2.658  -1.917  0.00  0.00     0.040 H 
ATOM      5  C4  <0> d          -0.719   1.574  -1.236  0.00  0.00    -0.061 C 
ATOM      6  C5  <0> d          -0.013   1.086   0.008  0.00  0.00    -0.059 C 
ATOM      7  C6  <0> d          -0.703   1.567   1.286  0.00  0.00    -0.029 C 
ATOM      8  H2  <0> d          -0.430   0.938   2.147  0.00  0.00     0.043 H 
ATOM      9  C7  <0> d          -0.235   2.996   1.583  0.00  0.00    -0.059 C 
ATOM     10  C8  <0> d          -2.196   1.385   1.218  0.00  0.00     0.039 C 
ATOM     11  H3  <0> d          -2.417   0.314   1.098  0.00  0.00     0.083 H 
ATOM     12  C9  <0> d          -2.821   2.146   0.085  0.00  0.00    -0.037 C 
ATOM     13  H4  <0> d          -2.202   3.835   1.347  0.00  0.00     0.033 H 
ATOM     14  H5  <0> d          -0.862   5.026   1.242  0.00  0.00     0.033 H 
ATOM     15  H6  <0> d          -1.862   4.747  -0.945  0.00  0.00     0.033 H 
ATOM     16  H7  <0> d          -0.215   4.029  -0.962  0.00  0.00     0.033 H 
ATOM     17  H8  <0> d          -1.141   0.690  -1.736  0.00  0.00     0.033 H 
ATOM     18  H9  <0> d           0.045   2.030  -1.883  0.00  0.00     0.033 H 
ATOM     19  H10 <0> d          -0.003  -0.014   0.016  0.00  0.00     0.033 H 
ATOM     20  H11 <0> d           1.021   1.462   0.014  0.00  0.00     0.033 H 
ATOM     21  H12 <0> d           0.772   3.134   1.161  0.00  0.00     0.033 H 
ATOM     22  H13 <0> d          -0.199   3.140   2.673  0.00  0.00     0.033 H 
ATOM     23  H14 <0> d          -3.312   3.032   0.514  0.00  0.00     0.037 H 
ATOM     24  H15 <0> d          -3.578   1.493  -0.373  0.00  0.00     0.037 H 
ENDROOT
BRANCH  10  25
ATOM     25  O1  <0> d          -2.771   1.848   2.442  0.00  0.00    -0.395 OA
ATOM     26  H16 <0> d          -3.860   1.799   2.590  0.00  0.00     0.210 HD
ENDBRANCH  10  25
TORSDOF 1
