REMARK  5 active torsions:
REMARK  status: ('A' for Active; 'I' for Inactive)
REMARK    1  A    between atoms: C1_1  and  C2_2 
REMARK    2  A    between atoms: C2_2  and  C3_3 
REMARK    3  A    between atoms: C3_3  and  C4_4 
REMARK    4  A    between atoms: C4_4  and  C5_5 
REMARK    5  A    between atoms: C6_6  and  C7_7 
ROOT
ATOM      1  C7  <0> d          -5.276  -3.489   0.034  0.00  0.00     0.070 C 
ATOM      2  C8  <0> d          -5.256  -4.961   0.026  0.00  0.00     0.071 C 
ATOM      3  N1  <0> d          -5.240  -6.097   0.019  0.00  0.00    -0.196 NA
ATOM      4  H10 <0> d          -5.786  -3.137   0.930  0.00  0.00     0.074 H 
ATOM      5  H11 <0> d          -5.803  -3.128  -0.849  0.00  0.00     0.074 H 
ENDROOT
BRANCH   1   6
ATOM      6  C6  <0> d          -3.895  -2.979   0.023  0.00  0.00    -0.092 C 
ATOM      7  C5  <0> d          -2.793  -2.573   0.015  0.00  0.00    -0.106 C 
BRANCH   7   8
ATOM      8  C4  <0> d          -1.413  -2.063   0.004  0.00  0.00    -0.009 C 
ATOM      9  H8  <0> d          -0.902  -2.415  -0.892  0.00  0.00     0.051 H 
ATOM     10  H9  <0> d          -0.885  -2.425   0.887  0.00  0.00     0.051 H 
BRANCH   8  11
ATOM     11  C3  <0> d          -1.433  -0.534   0.013  0.00  0.00    -0.056 C 
ATOM     12  H6  <0> d          -1.944  -0.182   0.910  0.00  0.00     0.034 H 
ATOM     13  H7  <0> d          -1.960  -0.173  -0.870  0.00  0.00     0.034 H 
BRANCH  11  14
ATOM     14  C2  <0> d           0.002  -0.004   0.002  0.00  0.00    -0.068 C 
ATOM     15  H4  <0> d           0.512  -0.356  -0.895  0.00  0.00     0.032 H 
ATOM     16  H5  <0> d           0.529  -0.365   0.885  0.00  0.00     0.032 H 
BRANCH  14  17
ATOM     17  C1  <0> d          -0.019   1.526   0.010  0.00  0.00    -0.076 C 
ATOM     18  H1  <0> d           1.004   1.903   0.003  0.00  0.00     0.027 H 
ATOM     19  H2  <0> d          -0.546   1.887  -0.873  0.00  0.00     0.027 H 
ATOM     20  H3  <0> d          -0.529   1.877   0.907  0.00  0.00     0.027 H 
ENDBRANCH  14  17
ENDBRANCH  11  14
ENDBRANCH   8  11
ENDBRANCH   7   8
ENDBRANCH   1   6
TORSDOF 5
