REMARK  5 active torsions:
REMARK  status: ('A' for Active; 'I' for Inactive)
REMARK    1  A    between atoms: C1_1  and  C2_2 
REMARK    2  A    between atoms: C2_2  and  C3_4 
REMARK    3  A    between atoms: C2_2  and  C6_7 
REMARK    4  A    between atoms: C3_4  and  C4_5 
REMARK    5  A    between atoms: C6_7  and  C7_9 
ROOT
ATOM      1  C2  <0> d           0.002  -0.004   0.002  0.00  0.00     0.003 C 
ATOM      2  H1  <0> d          -1.020  -0.381   0.010  0.00  0.00     0.051 H 
ENDROOT
BRANCH   1   3
ATOM      3  C1  <0> d          -0.019   1.526   0.010  0.00  0.00    -0.066 C 
ATOM      4  H2  <0> d           1.004   1.903   0.003  0.00  0.00     0.028 H 
ATOM      5  H3  <0> d          -0.546   1.887  -0.873  0.00  0.00     0.028 H 
ATOM      6  H4  <0> d          -0.529   1.877   0.907  0.00  0.00     0.028 H 
ENDBRANCH   1   3
BRANCH   1   7
ATOM      7  C3  <0> d           0.742  -0.511   1.242  0.00  0.00    -0.041 C 
ATOM      8  H5  <0> d           0.835  -1.596   1.191  0.00  0.00     0.040 H 
ATOM      9  H6  <0> d           1.735  -0.063   1.280  0.00  0.00     0.040 H 
BRANCH   7  10
ATOM     10  C4  <0> d          -0.030  -0.130   2.478  0.00  0.00    -0.111 C 
ATOM     11  C5  <0> d          -0.384  -1.051   3.340  0.00  0.00    -0.125 C 
ATOM     12  H8  <0> d          -0.122  -2.084   3.163  0.00  0.00     0.066 H 
ATOM     13  H9  <0> d          -0.937  -0.777   4.226  0.00  0.00     0.066 H 
ATOM     14  H7  <0> d          -0.291   0.903   2.655  0.00  0.00     0.075 H 
ENDBRANCH   7  10
ENDBRANCH   1   7
BRANCH   1  15
ATOM     15  C6  <0> d           0.707  -0.490  -1.238  0.00  0.00     0.127 C 
ATOM     16  O1  <0> d           1.883  -0.762  -1.196  0.00  0.00    -0.298 OA
BRANCH  15  17
ATOM     17  C7  <0> d          -0.055  -0.637  -2.530  0.00  0.00    -0.021 C 
ATOM     18  H10 <0> d          -1.094  -0.348  -2.373  0.00  0.00     0.037 H 
ATOM     19  H11 <0> d           0.391   0.005  -3.289  0.00  0.00     0.037 H 
ATOM     20  H12 <0> d          -0.012  -1.675  -2.860  0.00  0.00     0.037 H 
ENDBRANCH  15  17
ENDBRANCH   1  15
TORSDOF 5
