REMARK  0 active torsions:
REMARK  status: ('A' for Active; 'I' for Inactive)
ROOT
ATOM      1  C1  <0> d          -0.789   1.612  -1.217  0.00  0.00    -0.021 C 
ATOM      2  C2  <0> d          -0.013   1.086   0.008  0.00  0.00     0.030 C 
ATOM      3  O1  <0> d          -0.723   1.569   1.183  0.00  0.00    -0.320 OA
ATOM      4  C3  <0> d          -1.475   2.635   0.850  0.00  0.00     0.276 C 
ATOM      5  O2  <0> d          -1.734   3.580   1.557  0.00  0.00    -0.264 OA
ATOM      6  C4  <0> d          -1.938   2.426  -0.581  0.00  0.00     0.116 C 
ATOM      7  H1  <0> d          -2.868   1.859  -0.605  0.00  0.00     0.078 H 
ATOM      8  C5  <0> d          -2.098   3.718  -1.267  0.00  0.00     0.074 C 
ATOM      9  N1  <0> d          -2.222   4.716  -1.797  0.00  0.00    -0.196 NA
ATOM     10  H2  <0> d          -0.154   2.253  -1.829  0.00  0.00     0.038 H 
ATOM     11  H3  <0> d          -1.181   0.784  -1.809  0.00  0.00     0.038 H 
ATOM     12  H4  <0> d           0.002  -0.004   0.002  0.00  0.00     0.075 H 
ATOM     13  H5  <0> d           1.006   1.474   0.000  0.00  0.00     0.075 H 
ENDROOT
TORSDOF 0
