REMARK  3 active torsions:
REMARK  status: ('A' for Active; 'I' for Inactive)
REMARK    1  A    between atoms: C1_1  and  C4_9 
REMARK    2  A    between atoms: C2_2  and  N3_8 
REMARK    3  A    between atoms: C3_6  and  O1_7 
ROOT
ATOM      1  C1  <0> d          -0.018   1.457   0.010  0.00  0.00     0.139 A 
ATOM      2  C2  <0> d          -1.201   2.322   0.033  0.00  0.00     0.163 A 
ATOM      3  N1  <0> d          -0.775   3.559   0.033  0.00  0.00    -0.154 NA
ATOM      4  N2  <0> d           0.622   3.571   0.013  0.00  0.00    -0.254 N 
ATOM      5  H1  <0> d           1.174   4.369   0.009  0.00  0.00     0.191 HD
ATOM      6  C3  <0> d           1.085   2.310   0.004  0.00  0.00     0.177 A 
ENDROOT
BRANCH   1   7
ATOM      7  C4  <0> d           0.002  -0.004   0.002  0.00  0.00     0.217 C 
ATOM      8  O2  <0> d           1.071  -0.602  -0.012  0.00  0.00    -0.644 OA
ATOM      9  O3  <0> d          -1.050  -0.631   0.009  0.00  0.00    -0.644 OA
ENDBRANCH   1   7
BRANCH   6  10
ATOM     10  O1  <0> d           2.385   1.936  -0.011  0.00  0.00    -0.344 OA
ATOM     11  H4  <0> d           2.755   1.833  -0.898  0.00  0.00     0.219 HD
ENDBRANCH   6  10
BRANCH   2  12
ATOM     12  N3  <0> d          -2.532   1.905   0.050  0.00  0.00    -0.382 N 
ATOM     13  H2  <0> d          -2.743   0.958   0.047  0.00  0.00     0.157 HD
ATOM     14  H3  <0> d          -3.246   2.561   0.064  0.00  0.00     0.157 HD
ENDBRANCH   2  12
TORSDOF 3
