REMARK  0 active torsions:
REMARK  status: ('A' for Active; 'I' for Inactive)
ROOT
ATOM      1  C1  <0> d          -0.017   1.376   0.010  0.00  0.00    -0.063 A 
ATOM      2  C2  <0> d           1.185   2.073   0.002  0.00  0.00    -0.046 A 
ATOM      3  C3  <0> d           2.364   1.347  -0.013  0.00  0.00     0.115 A 
ATOM      4  C4  <0> d           2.308  -0.048  -0.021  0.00  0.00     0.163 A 
ATOM      5  N1  <0> d           1.142  -0.671  -0.013  0.00  0.00    -0.241 NA
ATOM      6  C5  <0> d           0.002  -0.004   0.002  0.00  0.00     0.005 A 
ATOM      7  N2  <0> d           3.502  -0.775  -0.039  0.00  0.00    -0.307 N 
ATOM      8  C6  <0> d           4.657  -0.147   0.265  0.00  0.00     0.247 C 
ATOM      9  O1  <0> d           5.707  -0.753   0.225  0.00  0.00    -0.271 OA
ATOM     10  C7  <0> d           4.641   1.309   0.655  0.00  0.00     0.100 C 
ATOM     11  O2  <0> d           3.569   1.973  -0.020  0.00  0.00    -0.338 OA
ATOM     12  H1  <0> d          -0.956   1.909   0.026  0.00  0.00     0.085 H 
ATOM     13  H2  <0> d           1.200   3.153   0.008  0.00  0.00     0.088 H 
ATOM     14  H3  <0> d          -0.931  -0.548   0.009  0.00  0.00     0.114 H 
ATOM     15  H4  <0> d           3.499  -1.718  -0.267  0.00  0.00     0.170 HD
ATOM     16  H5  <0> d           4.500   1.395   1.732  0.00  0.00     0.089 H 
ATOM     17  H6  <0> d           5.588   1.771   0.375  0.00  0.00     0.089 H 
ENDROOT
TORSDOF 0
