REMARK  2 active torsions:
REMARK  status: ('A' for Active; 'I' for Inactive)
REMARK    1  A    between atoms: C1_1  and  C2_2 
REMARK    2  A    between atoms: C2_2  and  C3_3 
ROOT
ATOM      1  C3  <0> d           0.731  -0.503   1.223  0.00  0.00     0.104 A 
ATOM      2  N1  <0> d           0.223  -1.382   2.129  0.00  0.00    -0.343 N 
ATOM      3  H1  <0> d          -0.656  -1.791   2.103  0.00  0.00     0.167 HD
ATOM      4  C4  <0> d           1.192  -1.585   3.091  0.00  0.00     0.062 A 
ATOM      5  C5  <0> d           1.262  -2.356   4.244  0.00  0.00    -0.055 A 
ATOM      6  C6  <0> d           2.409  -2.335   5.010  0.00  0.00    -0.081 A 
ATOM      7  C7  <0> d           3.490  -1.549   4.636  0.00  0.00    -0.081 A 
ATOM      8  C8  <0> d           3.438  -0.784   3.506  0.00  0.00    -0.053 A 
ATOM      9  C9  <0> d           2.287  -0.790   2.714  0.00  0.00     0.085 A 
ATOM     10  N2  <0> d           1.940  -0.161   1.561  0.00  0.00    -0.233 NA
ATOM     11  H7  <0> d           0.424  -2.968   4.540  0.00  0.00     0.087 H 
ATOM     12  H8  <0> d           2.465  -2.934   5.907  0.00  0.00     0.083 H 
ATOM     13  H9  <0> d           4.381  -1.542   5.246  0.00  0.00     0.083 H 
ATOM     14  H10 <0> d           4.285  -0.176   3.225  0.00  0.00     0.087 H 
ENDROOT
BRANCH   1  15
ATOM     15  C2  <0> d           0.002  -0.004   0.002  0.00  0.00    -0.013 C 
ATOM     16  H5  <0> d          -1.020  -0.381   0.010  0.00  0.00     0.043 H 
ATOM     17  H6  <0> d           0.512  -0.356  -0.895  0.00  0.00     0.043 H 
BRANCH  15  18
ATOM     18  C1  <0> d          -0.019   1.526   0.010  0.00  0.00    -0.070 C 
ATOM     19  H2  <0> d           1.004   1.903   0.003  0.00  0.00     0.028 H 
ATOM     20  H3  <0> d          -0.546   1.887  -0.873  0.00  0.00     0.028 H 
ATOM     21  H4  <0> d          -0.529   1.877   0.907  0.00  0.00     0.028 H 
ENDBRANCH  15  18
ENDBRANCH   1  15
TORSDOF 2
