REMARK  3 active torsions:
REMARK  status: ('A' for Active; 'I' for Inactive)
REMARK    1  A    between atoms: C1_1  and  C2_2 
REMARK    2  A    between atoms: C5_5  and  C7_8 
REMARK    3  A    between atoms: N1_6  and  C6_7 
ROOT
ATOM      1  C2  <0> d           0.002  -0.004   0.002  0.00  0.00     0.009 A 
ATOM      2  C3  <0> d           0.008  -0.780  -1.097  0.00  0.00    -0.040 A 
ATOM      3  C4  <0> d           0.029  -2.168  -0.622  0.00  0.00     0.068 A 
ATOM      4  C5  <0> d           0.034  -2.102   0.744  0.00  0.00     0.028 A 
ATOM      5  N1  <0> d           0.023  -0.803   1.107  0.00  0.00    -0.357 N 
ATOM      6  C8  <0> d           0.042  -3.353  -1.426  0.00  0.00     0.101 C 
ATOM      7  N2  <0> d           0.053  -4.292  -2.064  0.00  0.00    -0.191 NA
ATOM      8  H4  <0> d          -0.002  -0.448  -2.124  0.00  0.00     0.088 H 
ENDROOT
BRANCH   4   9
ATOM      9  C7  <0> d           0.054  -3.280   1.683  0.00  0.00    -0.036 C 
ATOM     10  H8  <0> d           1.086  -3.551   1.906  0.00  0.00     0.035 H 
ATOM     11  H9  <0> d          -0.460  -3.017   2.608  0.00  0.00     0.035 H 
ATOM     12  H10 <0> d          -0.450  -4.126   1.216  0.00  0.00     0.035 H 
ENDBRANCH   4   9
BRANCH   1  13
ATOM     13  C1  <0> d          -0.018   1.503   0.010  0.00  0.00    -0.037 C 
ATOM     14  H1  <0> d           1.004   1.880   0.003  0.00  0.00     0.035 H 
ATOM     15  H2  <0> d          -0.545   1.864  -0.873  0.00  0.00     0.035 H 
ATOM     16  H3  <0> d          -0.529   1.854   0.907  0.00  0.00     0.035 H 
ENDBRANCH   1  13
BRANCH   5  17
ATOM     17  C6  <0> d           0.030  -0.320   2.490  0.00  0.00    -0.014 C 
ATOM     18  H5  <0> d          -0.996  -0.215   2.843  0.00  0.00     0.057 H 
ATOM     19  H6  <0> d           0.560  -1.034   3.122  0.00  0.00     0.057 H 
ATOM     20  H7  <0> d           0.531   0.647   2.535  0.00  0.00     0.057 H 
ENDBRANCH   5  17
TORSDOF 3
