REMARK  4 active torsions:
REMARK  status: ('A' for Active; 'I' for Inactive)
REMARK    1  A    between atoms: C1_1  and  C2_2 
REMARK    2  A    between atoms: C2_2  and  C3_3 
REMARK    3  A    between atoms: C5_5  and  C8_10 
REMARK    4  A    between atoms: C6_8  and  C7_9 
ROOT
ATOM      1  C3  <0> d           0.002  -0.004   0.002  0.00  0.00    -0.035 A 
ATOM      2  C4  <0> d           1.352  -0.407  -0.013  0.00  0.00    -0.054 A 
ATOM      3  C5  <0> d           2.107   0.710  -0.014  0.00  0.00     0.006 A 
ATOM      4  N1  <0> d           1.273   1.788  -0.001  0.00  0.00    -0.363 N 
ATOM      5  H1  <0> d           1.690   2.806   0.001  0.00  0.00     0.165 HD
ATOM      6  C6  <0> d          -0.016   1.344   0.009  0.00  0.00     0.011 A 
ATOM      7  H7  <0> d           1.715  -1.425  -0.022  0.00  0.00     0.087 H 
ENDROOT
BRANCH   1   8
ATOM      8  C2  <0> d          -1.200  -0.912   0.009  0.00  0.00    -0.042 C 
ATOM      9  H5  <0> d          -1.999  -0.459   0.614  0.00  0.00     0.039 H 
ATOM     10  H6  <0> d          -0.922  -1.886   0.440  0.00  0.00     0.039 H 
BRANCH   8  11
ATOM     11  C1  <0> d          -1.697  -1.112  -1.424  0.00  0.00    -0.073 C 
ATOM     12  H2  <0> d          -2.575  -1.775  -1.419  0.00  0.00     0.028 H 
ATOM     13  H3  <0> d          -0.899  -1.565  -2.029  0.00  0.00     0.028 H 
ATOM     14  H4  <0> d          -1.976  -0.139  -1.855  0.00  0.00     0.028 H 
ENDBRANCH   8  11
ENDBRANCH   1   8
BRANCH   6  15
ATOM     15  C7  <0> d          -1.249   2.211   0.020  0.00  0.00    -0.037 C 
ATOM     16  H8  <0> d          -0.952   3.270   0.025  0.00  0.00     0.035 H 
ATOM     17  H9  <0> d          -1.843   1.993   0.920  0.00  0.00     0.035 H 
ATOM     18  H10 <0> d          -1.852   2.003  -0.876  0.00  0.00     0.035 H 
ENDBRANCH   6  15
BRANCH   3  19
ATOM     19  C8  <0> d           3.613   0.758  -0.028  0.00  0.00    -0.037 C 
ATOM     20  H11 <0> d           3.946   1.806  -0.025  0.00  0.00     0.035 H 
ATOM     21  H12 <0> d           3.988   0.256  -0.932  0.00  0.00     0.035 H 
ATOM     22  H13 <0> d           4.005   0.247   0.864  0.00  0.00     0.035 H 
ENDBRANCH   3  19
TORSDOF 4
