REMARK  3 active torsions:
REMARK  status: ('A' for Active; 'I' for Inactive)
REMARK    1  A    between atoms: C3_3  and  C6_7 
REMARK    2  A    between atoms: C7_8  and  C8_9 
REMARK    3  A    between atoms: C8_9  and  O1_10 
ROOT
ATOM      1  C1  <0> d           4.792   4.946  -1.642  0.00  0.00    -0.065 A 
ATOM      2  C2  <0> d           3.481   4.503  -1.671  0.00  0.00    -0.070 A 
ATOM      3  C3  <0> d           3.116   3.453  -0.821  0.00  0.00    -0.019 A 
ATOM      4  C4  <0> d           4.083   2.901   0.021  0.00  0.00     0.012 A 
ATOM      5  N1  <0> d           5.319   3.353   0.007  0.00  0.00    -0.272 NA
ATOM      6  C5  <0> d           5.692   4.341  -0.783  0.00  0.00     0.002 A 
ATOM      7  H1  <0> d           5.109   5.754  -2.284  0.00  0.00     0.085 H 
ATOM      8  H2  <0> d           2.757   4.957  -2.332  0.00  0.00     0.084 H 
ATOM      9  H3  <0> d           3.815   2.093   0.685  0.00  0.00     0.116 H 
ATOM     10  H4  <0> d           6.715   4.684  -0.759  0.00  0.00     0.114 H 
ENDROOT
BRANCH   3  11
ATOM     11  C6  <0> d           1.730   2.942  -0.810  0.00  0.00    -0.073 C 
ATOM     12  C7  <0> d           1.397   1.946  -0.001  0.00  0.00    -0.080 C 
ATOM     13  H6  <0> d           2.152   1.501   0.663  0.00  0.00     0.080 H 
ATOM     14  H5  <0> d           0.974   3.387  -1.474  0.00  0.00     0.084 H 
BRANCH  12  15
ATOM     15  C8  <0> d          -0.017   1.425   0.010  0.00  0.00     0.032 C 
ATOM     16  H7  <0> d          -0.532   1.780   0.915  0.00  0.00     0.080 H 
ATOM     17  H8  <0> d          -0.549   1.789  -0.881  0.00  0.00     0.080 H 
BRANCH  15  18
ATOM     18  O1  <0> d           0.002  -0.004   0.002  0.00  0.00    -0.397 OA
ATOM     19  H9  <0> d          -0.943  -0.567   0.008  0.00  0.00     0.209 HD
ENDBRANCH  15  18
ENDBRANCH  12  15
ENDBRANCH   3  11
TORSDOF 3
