REMARK  1 active torsions:
REMARK  status: ('A' for Active; 'I' for Inactive)
REMARK    1  A    between atoms: C5_6  and  O2_9 
ROOT
ATOM      1  C1  <0> d          -0.013   1.086   0.008  0.00  0.00    -0.062 C 
ATOM      2  C2  <0> d          -0.750   1.591  -1.233  0.00  0.00    -0.059 C 
ATOM      3  C3  <0> d          -2.158   0.989  -1.270  0.00  0.00    -0.007 C 
ATOM      4  C4  <0> d          -2.850   1.306   0.038  0.00  0.00     0.155 C 
ATOM      5  O1  <0> d          -3.947   1.810   0.052  0.00  0.00    -0.295 OA
ATOM      6  C5  <0> d          -2.132   0.975   1.328  0.00  0.00     0.092 C 
ATOM      7  H1  <0> d          -2.076  -0.018   1.433  0.00  0.00     0.095 H 
ATOM      8  C6  <0> d          -0.726   1.578   1.269  0.00  0.00    -0.035 C 
ATOM      9  H2  <0> d           0.002  -0.004   0.002  0.00  0.00     0.033 H 
ATOM     10  H3  <0> d           1.010   1.462   0.000  0.00  0.00     0.033 H 
ATOM     11  H4  <0> d          -0.820   2.678  -1.197  0.00  0.00     0.033 H 
ATOM     12  H5  <0> d          -0.203   1.292  -2.128  0.00  0.00     0.033 H 
ATOM     13  H6  <0> d          -2.670   1.384  -2.033  0.00  0.00     0.044 H 
ATOM     14  H7  <0> d          -2.092  -0.091  -1.396  0.00  0.00     0.044 H 
ATOM     15  H8  <0> d          -0.162   1.268   2.149  0.00  0.00     0.037 H 
ATOM     16  H9  <0> d          -0.796   2.665   1.246  0.00  0.00     0.037 H 
ENDROOT
BRANCH   6  17
ATOM     17  O2  <0> d          -2.847   1.533   2.432  0.00  0.00    -0.388 OA
ATOM     18  H10 <0> d          -3.753   1.206   2.519  0.00  0.00     0.210 HD
ENDBRANCH   6  17
TORSDOF 1
