REMARK  1 active torsions:
REMARK  status: ('A' for Active; 'I' for Inactive)
REMARK    1  A    between atoms: C10_14  and  O1_16 
ROOT
ATOM      1  C1  <0> d          -2.179   2.037  -0.592  0.00  0.00    -0.064 C 
ATOM      2  C2  <0> d          -1.821   2.572   0.816  0.00  0.00    -0.061 C 
ATOM      3  C3  <0> d          -0.672   1.661   1.290  0.00  0.00    -0.047 C 
ATOM      4  H1  <0> d          -1.008   0.878   1.970  0.00  0.00     0.041 H 
ATOM      5  C4  <0> d          -0.013   1.086   0.008  0.00  0.00    -0.044 C 
ATOM      6  H2  <0> d           0.002  -0.004   0.002  0.00  0.00     0.041 H 
ATOM      7  C5  <0> d          -0.789   1.666  -1.191  0.00  0.00    -0.061 C 
ATOM      8  C6  <0> d           1.421   1.697  -0.002  0.00  0.00    -0.025 C 
ATOM      9  H3  <0> d           1.931   1.699  -0.966  0.00  0.00     0.044 H 
ATOM     10  C7  <0> d           1.143   3.103   0.637  0.00  0.00    -0.055 C 
ATOM     11  C8  <0> d           0.430   2.562   1.925  0.00  0.00    -0.048 C 
ATOM     12  H4  <0> d           0.091   3.313   2.639  0.00  0.00     0.040 H 
ATOM     13  C9  <0> d           1.502   1.559   2.450  0.00  0.00    -0.037 C 
ATOM     14  C10 <0> d           2.159   0.986   1.173  0.00  0.00     0.040 C 
ATOM     15  H5  <0> d           3.222   1.223   1.153  0.00  0.00     0.083 H 
ATOM     16  H6  <0> d          -2.810   1.152  -0.520  0.00  0.00     0.033 H 
ATOM     17  H7  <0> d          -2.663   2.811  -1.188  0.00  0.00     0.033 H 
ATOM     18  H8  <0> d          -2.677   2.485   1.485  0.00  0.00     0.033 H 
ATOM     19  H9  <0> d          -1.486   3.607   0.757  0.00  0.00     0.033 H 
ATOM     20  H10 <0> d          -0.295   2.562  -1.567  0.00  0.00     0.033 H 
ATOM     21  H11 <0> d          -0.882   0.921  -1.981  0.00  0.00     0.033 H 
ATOM     22  H12 <0> d           2.066   3.634   0.873  0.00  0.00     0.034 H 
ATOM     23  H13 <0> d           0.476   3.707   0.022  0.00  0.00     0.034 H 
ATOM     24  H14 <0> d           2.243   2.078   3.058  0.00  0.00     0.037 H 
ATOM     25  H15 <0> d           1.029   0.762   3.024  0.00  0.00     0.037 H 
ENDROOT
BRANCH  14  26
ATOM     26  O1  <0> d           1.961  -0.428   1.103  0.00  0.00    -0.395 OA
ATOM     27  H16 <0> d           2.397  -0.922   1.810  0.00  0.00     0.210 HD
ENDBRANCH  14  26
TORSDOF 1
