REMARK  2 active torsions:
REMARK  status: ('A' for Active; 'I' for Inactive)
REMARK    1  A    between atoms: C3_3  and  C7_8 
REMARK    2  A    between atoms: C5_5  and  N1_7 
REMARK       I    between atoms: C7_8  and  N2_10 
ROOT
ATOM      1  C1  <0> d          -0.017   1.378   0.010  0.00  0.00    -0.080 A 
ATOM      2  C2  <0> d           1.166   2.089   0.002  0.00  0.00    -0.068 A 
ATOM      3  C3  <0> d           2.387   1.412  -0.014  0.00  0.00     0.034 A 
ATOM      4  C4  <0> d           2.406   0.018  -0.021  0.00  0.00    -0.043 A 
ATOM      5  C5  <0> d           1.213  -0.687  -0.013  0.00  0.00     0.026 A 
ATOM      6  C6  <0> d           0.002  -0.004   0.002  0.00  0.00    -0.058 A 
ATOM      7  H1  <0> d          -0.960   1.903   0.026  0.00  0.00     0.083 H 
ATOM      8  H2  <0> d           1.147   3.169   0.008  0.00  0.00     0.085 H 
ATOM      9  H3  <0> d           3.348  -0.511  -0.034  0.00  0.00     0.088 H 
ATOM     10  H4  <0> d          -0.927  -0.555   0.008  0.00  0.00     0.086 H 
ENDROOT
BRANCH   3  11
ATOM     11  C7  <0> d           3.656   2.172  -0.023  0.00  0.00     0.249 C 
ATOM     12  O1  <0> d           4.718   1.581  -0.036  0.00  0.00    -0.268 OA
ATOM     13  N2  <0> d           3.635   3.519  -0.016  0.00  0.00    -0.366 N 
ATOM     14  H7  <0> d           2.787   3.991  -0.005  0.00  0.00     0.159 HD
ATOM     15  H8  <0> d           4.467   4.018  -0.022  0.00  0.00     0.159 HD
ENDBRANCH   3  11
BRANCH   5  16
ATOM     16  N1  <0> d           1.226  -2.084  -0.021  0.00  0.00    -0.399 N 
ATOM     17  H5  <0> d           2.071  -2.561  -0.033  0.00  0.00     0.156 HD
ATOM     18  H6  <0> d           0.391  -2.578  -0.016  0.00  0.00     0.156 HD
ENDBRANCH   5  16
TORSDOF 2
