REMARK  3 active torsions:
REMARK  status: ('A' for Active; 'I' for Inactive)
REMARK    1  A    between atoms: C1_1  and  O1_2 
REMARK    2  A    between atoms: O1_2  and  C2_3 
REMARK    3  A    between atoms: C3_5  and  N3_8 
ROOT
ATOM      1  C2  <0> d           1.723  -0.222  -0.016  0.00  0.00     0.245 A 
ATOM      2  N1  <0> d           2.151   1.031  -0.013  0.00  0.00    -0.029 NA
ATOM      3  C3  <0> d           1.262   2.002   0.001  0.00  0.00     0.730 A 
ATOM      4  N2  <0> d          -0.021   1.708   0.011  0.00  0.00    -0.020 NA
ATOM      5  S1  <0> d           0.002  -0.004   0.002  0.00  0.00     0.077 SA
ENDROOT
BRANCH   1   6
ATOM      6  O1  <0> d           2.440  -1.371  -0.028  0.00  0.00    -0.332 OA
BRANCH   6   7
ATOM      7  C1  <0> d           1.704  -2.595  -0.028  0.00  0.00     0.012 C 
ATOM      8  H1  <0> d           1.068  -2.637  -0.912  0.00  0.00     0.067 H 
ATOM      9  H2  <0> d           2.397  -3.436  -0.039  0.00  0.00     0.067 H 
ATOM     10  H3  <0> d           1.084  -2.646   0.868  0.00  0.00     0.067 H 
ENDBRANCH   6   7
ENDBRANCH   1   6
BRANCH   3  11
ATOM     11  N3  <0> d           1.676   3.334   0.004  0.00  0.00    -0.230 N 
ATOM     12  H4  <0> d           1.018   4.046   0.014  0.00  0.00     0.174 HD
ATOM     13  H5  <0> d           2.622   3.547  -0.005  0.00  0.00     0.174 HD
ENDBRANCH   3  11
TORSDOF 3
