REMARK  2 active torsions:
REMARK  status: ('A' for Active; 'I' for Inactive)
REMARK    1  A    between atoms: C2_2  and  N3_7 
REMARK    2  A    between atoms: C3_5  and  N2_6 
ROOT
ATOM      1  C1  <0> d          -0.016   1.352   0.009  0.00  0.00     0.014 A 
ATOM      2  C2  <0> d           1.317   1.806  -0.001  0.00  0.00     0.153 A 
ATOM      3  N1  <0> d           2.102   0.756  -0.014  0.00  0.00    -0.109 NA
ATOM      4  O1  <0> d           1.286  -0.402  -0.012  0.00  0.00    -0.194 OA
ATOM      5  C3  <0> d           0.002  -0.004   0.002  0.00  0.00     0.170 A 
ATOM      6  H1  <0> d          -0.898   1.975   0.025  0.00  0.00     0.096 H 
ENDROOT
BRANCH   2   7
ATOM      7  N3  <0> d           1.729   3.135   0.002  0.00  0.00    -0.382 N 
ATOM      8  H4  <0> d           1.070   3.846   0.012  0.00  0.00     0.157 HD
ATOM      9  H5  <0> d           2.675   3.349  -0.006  0.00  0.00     0.157 HD
ENDBRANCH   2   7
BRANCH   5  10
ATOM     10  N2  <0> d          -1.105  -0.832   0.009  0.00  0.00    -0.378 N 
ATOM     11  H2  <0> d          -1.997  -0.450   0.019  0.00  0.00     0.158 HD
ATOM     12  H3  <0> d          -0.991  -1.795   0.002  0.00  0.00     0.158 HD
ENDBRANCH   5  10
TORSDOF 2
