REMARK  1 active torsions:
REMARK  status: ('A' for Active; 'I' for Inactive)
REMARK    1  A    between atoms: C1_1  and  C2_2 
ROOT
ATOM      1  C2  <0> d           1.169   2.092   0.002  0.00  0.00    -0.060 A 
ATOM      2  C3  <0> d          -0.017   1.377   0.010  0.00  0.00    -0.074 A 
ATOM      3  C4  <0> d           0.002  -0.004   0.002  0.00  0.00    -0.047 A 
ATOM      4  C5  <0> d           1.213  -0.679  -0.013  0.00  0.00     0.107 A 
ATOM      5  C6  <0> d           2.406   0.042  -0.021  0.00  0.00     0.071 A 
ATOM      6  C7  <0> d           2.380   1.428  -0.014  0.00  0.00    -0.049 A 
ATOM      7  N1  <0> d           3.438  -0.896  -0.035  0.00  0.00    -0.300 N 
ATOM      8  H1  <0> d           4.389  -0.703  -0.042  0.00  0.00     0.171 HD
ATOM      9  C8  <0> d           2.874  -2.119  -0.035  0.00  0.00     0.370 A 
ATOM     10  O1  <0> d           3.481  -3.173  -0.046  0.00  0.00    -0.238 OA
ATOM     11  O2  <0> d           1.537  -1.995  -0.023  0.00  0.00    -0.259 OA
ATOM     12  H5  <0> d          -0.961   1.902   0.017  0.00  0.00     0.084 H 
ATOM     13  H6  <0> d          -0.925  -0.557   0.008  0.00  0.00     0.087 H 
ATOM     14  H7  <0> d           3.304   1.987  -0.019  0.00  0.00     0.087 H 
ENDROOT
BRANCH   1  15
ATOM     15  C1  <0> d           1.137   3.598   0.010  0.00  0.00    -0.051 C 
ATOM     16  H2  <0> d           1.140   3.957   1.040  0.00  0.00     0.033 H 
ATOM     17  H3  <0> d           2.015   3.983  -0.510  0.00  0.00     0.033 H 
ATOM     18  H4  <0> d           0.235   3.946  -0.494  0.00  0.00     0.033 H 
ENDBRANCH   1  15
TORSDOF 1
