REMARK  1 active torsions:
REMARK  status: ('A' for Active; 'I' for Inactive)
REMARK    1  A    between atoms: C1_1  and  C2_2 
ROOT
ATOM      1  C2  <0> d          -2.374   1.372   0.033  0.00  0.00    -0.046 A 
ATOM      2  C3  <0> d          -2.388  -0.032   0.025  0.00  0.00    -0.072 A 
ATOM      3  C4  <0> d          -1.213  -0.718   0.010  0.00  0.00    -0.038 A 
ATOM      4  C5  <0> d           0.002  -0.004   0.002  0.00  0.00     0.133 A 
ATOM      5  N1  <0> d           1.268  -0.397  -0.012  0.00  0.00    -0.241 NA
ATOM      6  C6  <0> d           2.061   0.677  -0.014  0.00  0.00     0.020 A 
ATOM      7  C7  <0> d           1.286   1.784  -0.001  0.00  0.00     0.003 A 
ATOM      8  N2  <0> d          -0.017   1.367   0.010  0.00  0.00    -0.316 N 
ATOM      9  C8  <0> d          -1.202   2.042   0.029  0.00  0.00    -0.008 A 
ATOM     10  H4  <0> d          -3.327  -0.566   0.032  0.00  0.00     0.084 H 
ATOM     11  H5  <0> d          -1.212  -1.798   0.004  0.00  0.00     0.089 H 
ATOM     12  H6  <0> d           3.140   0.663  -0.024  0.00  0.00     0.117 H 
ATOM     13  H7  <0> d           1.631   2.808   0.002  0.00  0.00     0.114 H 
ATOM     14  H8  <0> d          -1.203   3.122   0.036  0.00  0.00     0.113 H 
ENDROOT
BRANCH   1  15
ATOM     15  C1  <0> d          -3.674   2.135   0.049  0.00  0.00    -0.050 C 
ATOM     16  H1  <0> d          -3.977   2.314   1.081  0.00  0.00     0.033 H 
ATOM     17  H2  <0> d          -3.542   3.089  -0.461  0.00  0.00     0.033 H 
ATOM     18  H3  <0> d          -4.443   1.554  -0.460  0.00  0.00     0.033 H 
ENDBRANCH   1  15
TORSDOF 1
