REMARK  5 active torsions:
REMARK  status: ('A' for Active; 'I' for Inactive)
REMARK    1  A    between atoms: C1_1  and  C2_2 
REMARK    2  A    between atoms: C2_2  and  C3_3 
REMARK    3  A    between atoms: C5_5  and  C6_9 
REMARK    4  A    between atoms: C6_9  and  O2_11 
REMARK    5  A    between atoms: O2_11  and  C7_12 
ROOT
ATOM      1  C3  <0> d           0.707  -0.490  -1.238  0.00  0.00     0.030 A 
ATOM      2  C4  <0> d           0.154  -0.664  -2.461  0.00  0.00    -0.024 A 
ATOM      3  C5  <0> d           1.203  -1.130  -3.288  0.00  0.00     0.153 A 
ATOM      4  N1  <0> d           2.283  -1.203  -2.535  0.00  0.00    -0.169 NA
ATOM      5  N2  <0> d           2.011  -0.828  -1.337  0.00  0.00    -0.282 N 
ATOM      6  H1  <0> d           2.650  -0.794  -0.608  0.00  0.00     0.189 HD
ATOM      7  H7  <0> d          -0.873  -0.485  -2.745  0.00  0.00     0.090 H 
ENDROOT
BRANCH   1   8
ATOM      8  C2  <0> d           0.002  -0.004   0.002  0.00  0.00    -0.029 C 
ATOM      9  H5  <0> d           0.529  -0.365   0.885  0.00  0.00     0.041 H 
ATOM     10  H6  <0> d          -1.020  -0.381   0.010  0.00  0.00     0.041 H 
BRANCH   8  11
ATOM     11  C1  <0> d          -0.019   1.526   0.010  0.00  0.00    -0.071 C 
ATOM     12  H2  <0> d           1.004   1.903   0.003  0.00  0.00     0.028 H 
ATOM     13  H3  <0> d          -0.546   1.887  -0.873  0.00  0.00     0.028 H 
ATOM     14  H4  <0> d          -0.529   1.877   0.907  0.00  0.00     0.028 H 
ENDBRANCH   8  11
ENDBRANCH   1   8
BRANCH   3  15
ATOM     15  C6  <0> d           1.107  -1.469  -4.721  0.00  0.00     0.313 C 
ATOM     16  O1  <0> d           0.045  -1.357  -5.302  0.00  0.00    -0.257 OA
BRANCH  15  17
ATOM     17  O2  <0> d           2.195  -1.903  -5.386  0.00  0.00    -0.321 OA
BRANCH  17  18
ATOM     18  C7  <0> d           2.030  -2.213  -6.771  0.00  0.00     0.013 C 
ATOM     19  H8  <0> d           1.286  -3.003  -6.880  0.00  0.00     0.067 H 
ATOM     20  H9  <0> d           1.696  -1.324  -7.305  0.00  0.00     0.067 H 
ATOM     21  H10 <0> d           2.980  -2.550  -7.184  0.00  0.00     0.067 H 
ENDBRANCH  17  18
ENDBRANCH  15  17
ENDBRANCH   3  15
TORSDOF 5
