REMARK  0 active torsions:
REMARK  status: ('A' for Active; 'I' for Inactive)
ROOT
ATOM      1  C1  <0> d          -0.017   1.390   0.010  0.00  0.00    -0.064 A 
ATOM      2  C2  <0> d           1.156   2.089   0.002  0.00  0.00    -0.051 A 
ATOM      3  C3  <0> d           2.365   1.365  -0.013  0.00  0.00     0.085 A 
ATOM      4  C4  <0> d           2.308  -0.051  -0.020  0.00  0.00     0.086 A 
ATOM      5  C5  <0> d           3.513  -0.778  -0.036  0.00  0.00    -0.031 A 
ATOM      6  C6  <0> d           4.706  -0.067  -0.043  0.00  0.00     0.064 A 
ATOM      7  C7  <0> d           4.674   1.340  -0.035  0.00  0.00     0.023 A 
ATOM      8  N1  <0> d           3.543   1.996  -0.021  0.00  0.00    -0.257 NA
ATOM      9  C8  <0> d           5.959  -0.759  -0.058  0.00  0.00     0.101 C 
ATOM     10  N2  <0> d           6.953  -1.309  -0.070  0.00  0.00    -0.191 NA
ATOM     11  N3  <0> d           1.128  -0.675  -0.013  0.00  0.00    -0.259 NA
ATOM     12  C9  <0> d           0.002  -0.004   0.002  0.00  0.00     0.003 A 
ATOM     13  H1  <0> d          -0.959   1.917   0.026  0.00  0.00     0.085 H 
ATOM     14  H2  <0> d           1.157   3.169   0.008  0.00  0.00     0.087 H 
ATOM     15  H3  <0> d           3.510  -1.858  -0.041  0.00  0.00     0.089 H 
ATOM     16  H4  <0> d           5.604   1.889  -0.041  0.00  0.00     0.117 H 
ATOM     17  H5  <0> d          -0.933  -0.544   0.008  0.00  0.00     0.114 H 
ENDROOT
TORSDOF 0
