REMARK  3 active torsions:
REMARK  status: ('A' for Active; 'I' for Inactive)
REMARK    1  A    between atoms: C1_1  and  C2_2 
REMARK    2  A    between atoms: C2_2  and  O2_4 
REMARK    3  A    between atoms: O2_4  and  C3_5 
ROOT
ATOM      1  C3  <0> d           1.092   2.999  -1.022  0.00  0.00     0.053 C 
ATOM      2  H1  <0> d           1.814   3.111  -1.832  0.00  0.00     0.084 H 
ATOM      3  C4  <0> d          -0.116   2.125  -1.394  0.00  0.00    -0.033 C 
ATOM      4  C5  <0> d          -0.018   1.507   0.010  0.00  0.00    -0.030 C 
ATOM      5  H2  <0> d          -0.640   1.954   0.786  0.00  0.00     0.046 H 
ATOM      6  C6  <0> d           1.478   1.918  -0.002  0.00  0.00    -0.019 C 
ATOM      7  H3  <0> d           1.919   2.252   0.937  0.00  0.00     0.045 H 
ATOM      8  C7  <0> d           2.130   0.674  -0.645  0.00  0.00    -0.044 C 
ATOM      9  C8  <0> d           1.172  -0.458  -0.355  0.00  0.00    -0.106 C 
ATOM     10  C9  <0> d           0.002  -0.004   0.002  0.00  0.00    -0.102 C 
ATOM     11  H7  <0> d           0.090   1.417  -2.196  0.00  0.00     0.037 H 
ATOM     12  H8  <0> d          -1.031   2.694  -1.556  0.00  0.00     0.037 H 
ATOM     13  H9  <0> d           3.100   0.476  -0.189  0.00  0.00     0.039 H 
ATOM     14  H10 <0> d           2.238   0.813  -1.720  0.00  0.00     0.039 H 
ATOM     15  H11 <0> d           1.423  -1.506  -0.433  0.00  0.00     0.076 H 
ATOM     16  H12 <0> d          -0.842  -0.627   0.258  0.00  0.00     0.076 H 
ENDROOT
BRANCH   1  17
ATOM     17  O2  <0> d           0.728   4.266  -0.415  0.00  0.00    -0.316 OA
BRANCH  17  18
ATOM     18  C2  <0> d           0.975   5.377  -1.127  0.00  0.00     0.255 C 
ATOM     19  O1  <0> d           1.479   5.293  -2.222  0.00  0.00    -0.266 OA
BRANCH  18  20
ATOM     20  C1  <0> d           0.624   6.729  -0.561  0.00  0.00     0.004 C 
ATOM     21  H4  <0> d           0.182   6.605   0.428  0.00  0.00     0.041 H 
ATOM     22  H5  <0> d           1.526   7.335  -0.483  0.00  0.00     0.041 H 
ATOM     23  H6  <0> d          -0.091   7.223  -1.219  0.00  0.00     0.041 H 
ENDBRANCH  18  20
ENDBRANCH  17  18
ENDBRANCH   1  17
TORSDOF 3
