REMARK  2 active torsions:
REMARK  status: ('A' for Active; 'I' for Inactive)
REMARK    1  A    between atoms: C1_1  and  C2_2 
REMARK    2  A    between atoms: C4_4  and  C6_8 
ROOT
ATOM      1  C2  <0> d           1.168   1.802   0.001  0.00  0.00     0.034 A 
ATOM      2  C3  <0> d          -0.013   1.076   0.008  0.00  0.00    -0.036 A 
ATOM      3  C4  <0> d          -1.213   1.769   0.017  0.00  0.00     0.034 A 
ATOM      4  N1  <0> d          -1.191   3.092   0.030  0.00  0.00    -0.247 NA
ATOM      5  C5  <0> d          -0.049   3.749   0.023  0.00  0.00     0.087 A 
ATOM      6  N2  <0> d           1.111   3.124   0.008  0.00  0.00    -0.247 NA
ATOM      7  H4  <0> d           0.002  -0.004   0.002  0.00  0.00     0.089 H 
ATOM      8  H5  <0> d          -0.064   4.829   0.028  0.00  0.00     0.146 H 
ENDROOT
BRANCH   1   9
ATOM      9  C1  <0> d           2.499   1.095  -0.017  0.00  0.00    -0.035 C 
ATOM     10  H1  <0> d           2.810   0.930  -1.048  0.00  0.00     0.035 H 
ATOM     11  H2  <0> d           3.242   1.707   0.494  0.00  0.00     0.035 H 
ATOM     12  H3  <0> d           2.407   0.135   0.493  0.00  0.00     0.035 H 
ENDBRANCH   1   9
BRANCH   3  13
ATOM     13  C6  <0> d          -2.524   1.026   0.019  0.00  0.00    -0.035 C 
ATOM     14  H6  <0> d          -2.835   0.842   1.048  0.00  0.00     0.035 H 
ATOM     15  H7  <0> d          -3.281   1.625  -0.488  0.00  0.00     0.035 H 
ATOM     16  H8  <0> d          -2.404   0.076  -0.500  0.00  0.00     0.035 H 
ENDBRANCH   3  13
TORSDOF 2
