REMARK  1 active torsions:
REMARK  status: ('A' for Active; 'I' for Inactive)
REMARK    1  A    between atoms: C6_6  and  N1_7 
ROOT
ATOM      1  C1  <0> d          -2.424   0.939   0.019  0.00  0.00    -0.057 A 
ATOM      2  C2  <0> d          -3.626   1.616   0.028  0.00  0.00    -0.074 A 
ATOM      3  C3  <0> d          -3.645   3.004   0.036  0.00  0.00    -0.051 A 
ATOM      4  C4  <0> d          -2.462   3.711   0.034  0.00  0.00    -0.049 A 
ATOM      5  C5  <0> d          -1.251   3.035   0.030  0.00  0.00    -0.051 A 
ATOM      6  C6  <0> d          -1.230   1.648   0.017  0.00  0.00     0.026 A 
ATOM      7  C7  <0> d          -3.170   5.039   0.045  0.00  0.00    -0.037 A 
ATOM      8  C8  <0> d          -4.478   4.259   0.047  0.00  0.00    -0.037 A 
ATOM      9  H1  <0> d          -2.412  -0.141   0.013  0.00  0.00     0.086 H 
ATOM     10  H2  <0> d          -4.555   1.065   0.029  0.00  0.00     0.084 H 
ATOM     11  H3  <0> d          -0.324   3.589   0.034  0.00  0.00     0.087 H 
ATOM     12  H6  <0> d          -2.881   5.602   0.945  0.00  0.00     0.040 H 
ATOM     13  H7  <0> d          -2.890   5.612  -0.852  0.00  0.00     0.040 H 
ATOM     14  H8  <0> d          -5.117   4.283  -0.848  0.00  0.00     0.040 H 
ATOM     15  H9  <0> d          -5.108   4.273   0.948  0.00  0.00     0.040 H 
ENDROOT
BRANCH   6  16
ATOM     16  N1  <0> d          -0.011   0.966   0.007  0.00  0.00    -0.399 N 
ATOM     17  H4  <0> d           0.934   1.529   0.006  0.00  0.00     0.156 HD
ATOM     18  H5  <0> d           0.004  -0.134   0.001  0.00  0.00     0.156 HD
ENDBRANCH   6  16
TORSDOF 1
