REMARK  0 active torsions:
REMARK  status: ('A' for Active; 'I' for Inactive)
ROOT
ATOM      1  C1  <0> d          -2.919   4.613   0.053  0.00  0.00    -0.078 A 
ATOM      2  C2  <0> d          -3.361   3.278   0.051  0.00  0.00    -0.067 A 
ATOM      3  C3  <0> d          -2.470   2.265   0.037  0.00  0.00    -0.011 A 
ATOM      4  N1  <0> d          -1.130   2.522   0.020  0.00  0.00    -0.278 N 
ATOM      5  C4  <0> d          -0.668   3.816   0.028  0.00  0.00     0.158 A 
ATOM      6  C5  <0> d          -1.587   4.884   0.042  0.00  0.00    -0.036 A 
ATOM      7  N2  <0> d           0.653   3.752   0.015  0.00  0.00    -0.129 NA
ATOM      8  N3  <0> d           1.023   2.520   0.006  0.00  0.00    -0.116 NA
ATOM      9  C6  <0> d          -0.021   1.732   0.012  0.00  0.00     0.229 A 
ATOM     10 Cl1  <0> d           0.002  -0.004   0.002  0.00  0.00    -0.041 Cl
ATOM     11  H1  <0> d          -3.636   5.421   0.064  0.00  0.00     0.083 H 
ATOM     12  H2  <0> d          -4.419   3.063   0.059  0.00  0.00     0.085 H 
ATOM     13  H3  <0> d          -2.820   1.244   0.034  0.00  0.00     0.112 H 
ATOM     14  H4  <0> d          -1.237   5.906   0.044  0.00  0.00     0.089 H 
ENDROOT
TORSDOF 0
