REMARK  2 active torsions:
REMARK  status: ('A' for Active; 'I' for Inactive)
REMARK    1  A    between atoms: C4_6  and  N6_11 
REMARK    2  A    between atoms: C5_9  and  N5_10 
ROOT
ATOM      1  C1  <0> d          -0.017   1.378   0.010  0.00  0.00    -0.021 A 
ATOM      2  C2  <0> d           1.191   2.070   0.002  0.00  0.00     0.025 A 
ATOM      3  N1  <0> d           2.334   1.415  -0.013  0.00  0.00    -0.072 NA
ATOM      4  C3  <0> d           2.367   0.077  -0.020  0.00  0.00     0.767 A 
ATOM      5  N2  <0> d           3.373  -0.792  -0.034  0.00  0.00     0.133 NA
ATOM      6  C4  <0> d           2.892  -2.034  -0.036  0.00  0.00     0.753 A 
ATOM      7  N3  <0> d           1.576  -1.995  -0.024  0.00  0.00     0.043 NA
ATOM      8  N4  <0> d           1.207  -0.643  -0.013  0.00  0.00    -0.028 N 
ATOM      9  C5  <0> d           0.002  -0.004   0.002  0.00  0.00     0.143 A 
ATOM     10  H1  <0> d          -0.955   1.913   0.026  0.00  0.00     0.091 H 
ATOM     11  H2  <0> d           1.192   3.150   0.007  0.00  0.00     0.115 H 
ENDROOT
BRANCH   6  12
ATOM     12  N6  <0> d           3.662  -3.195  -0.051  0.00  0.00    -0.229 N 
ATOM     13  H5  <0> d           4.630  -3.134  -0.059  0.00  0.00     0.174 HD
ATOM     14  H6  <0> d           3.230  -4.063  -0.051  0.00  0.00     0.174 HD
ENDBRANCH   6  12
BRANCH   9  15
ATOM     15  N5  <0> d          -1.174  -0.722   0.010  0.00  0.00    -0.383 N 
ATOM     16  H3  <0> d          -2.025  -0.258   0.021  0.00  0.00     0.157 HD
ATOM     17  H4  <0> d          -1.150  -1.692   0.004  0.00  0.00     0.157 HD
ENDBRANCH   9  15
TORSDOF 2
