REMARK  4 active torsions:
REMARK  status: ('A' for Active; 'I' for Inactive)
REMARK    1  A    between atoms: C1_1  and  C2_2 
REMARK    2  A    between atoms: C2_2  and  C3_3 
REMARK    3  A    between atoms: C5_5  and  C6_8 
REMARK    4  A    between atoms: C6_8  and  O2_9 
ROOT
ATOM      1  C3  <0> d          -1.138   1.931   0.017  0.00  0.00     0.064 A 
ATOM      2  C4  <0> d          -0.013   1.076   0.008  0.00  0.00    -0.024 A 
ATOM      3  C5  <0> d           1.043   1.924   0.002  0.00  0.00     0.104 A 
ATOM      4  O1  <0> d           0.534   3.164   0.013  0.00  0.00    -0.215 OA
ATOM      5  N1  <0> d          -0.675   3.148   0.024  0.00  0.00    -0.133 NA
ATOM      6  H6  <0> d           0.002  -0.004   0.002  0.00  0.00     0.090 H 
ENDROOT
BRANCH   1   7
ATOM      7  C2  <0> d          -2.587   1.516   0.021  0.00  0.00    -0.026 C 
ATOM      8  H4  <0> d          -3.060   1.839  -0.907  0.00  0.00     0.041 H 
ATOM      9  H5  <0> d          -2.654   0.432   0.106  0.00  0.00     0.041 H 
BRANCH   7  10
ATOM     10  C1  <0> d          -3.300   2.166   1.209  0.00  0.00    -0.071 C 
ATOM     11  H1  <0> d          -2.827   1.844   2.137  0.00  0.00     0.028 H 
ATOM     12  H2  <0> d          -3.233   3.250   1.125  0.00  0.00     0.028 H 
ATOM     13  H3  <0> d          -4.348   1.866   1.212  0.00  0.00     0.028 H 
ENDBRANCH   7  10
ENDBRANCH   1   7
BRANCH   3  14
ATOM     14  C6  <0> d           2.503   1.549  -0.013  0.00  0.00     0.063 C 
ATOM     15  H7  <0> d           3.081   2.317   0.500  0.00  0.00     0.084 H 
ATOM     16  H8  <0> d           2.637   0.594   0.495  0.00  0.00     0.084 H 
BRANCH  14  17
ATOM     17  O2  <0> d           2.951   1.436  -1.365  0.00  0.00    -0.394 OA
ATOM     18  H9  <0> d           3.884   1.196  -1.451  0.00  0.00     0.209 HD
ENDBRANCH  14  17
ENDBRANCH   3  14
TORSDOF 4
