REMARK  2 active torsions:
REMARK  status: ('A' for Active; 'I' for Inactive)
REMARK    1  A    between atoms: C4_5  and  S1_7 
REMARK    2  A    between atoms: S1_7  and  N2_8 
ROOT
ATOM      1  C1  <0> d          -1.221   1.761   0.017  0.00  0.00    -0.079 A 
ATOM      2  C2  <0> d          -0.013   1.076   0.008  0.00  0.00    -0.066 A 
ATOM      3  C3  <0> d           1.169   1.789   0.001  0.00  0.00     0.003 A 
ATOM      4  N1  <0> d           1.163   3.109   0.007  0.00  0.00    -0.253 NA
ATOM      5  C4  <0> d           0.033   3.798   0.022  0.00  0.00     0.107 A 
ATOM      6  C5  <0> d          -1.196   3.143   0.030  0.00  0.00    -0.048 A 
ATOM      7  H1  <0> d          -2.159   1.226   0.019  0.00  0.00     0.083 H 
ATOM      8  H2  <0> d           0.002  -0.004   0.002  0.00  0.00     0.085 H 
ATOM      9  H3  <0> d           2.111   1.260  -0.011  0.00  0.00     0.114 H 
ATOM     10  H4  <0> d          -2.117   3.708   0.042  0.00  0.00     0.087 H 
ENDROOT
BRANCH   5  11
ATOM     11  S1  <0> d           0.084   5.559   0.031  0.00  0.00    -0.027 SA
BRANCH  11  12
ATOM     12  N2  <0> d           0.080   5.995  -1.679  0.00  0.00    -0.272 NA
ATOM     13  H5  <0> d           0.107   6.997  -1.797  0.00  0.00     0.132 HD
ATOM     14  H6  <0> d           0.844   5.553  -2.167  0.00  0.00     0.132 HD
ENDBRANCH  11  12
ENDBRANCH   5  11
TORSDOF 2
