REMARK  2 active torsions:
REMARK  status: ('A' for Active; 'I' for Inactive)
REMARK    1  A    between atoms: C1_1  and  S1_2 
REMARK    2  A    between atoms: S1_2  and  C2_3 
ROOT
ATOM      1  C2  <0> d           1.178   2.087   0.002  0.00  0.00    -0.000 A 
ATOM      2  C3  <0> d          -0.017   1.377   0.010  0.00  0.00    -0.064 A 
ATOM      3  C4  <0> d           0.002  -0.004   0.002  0.00  0.00    -0.044 A 
ATOM      4  C5  <0> d           1.210  -0.681  -0.013  0.00  0.00     0.116 A 
ATOM      5  C6  <0> d           2.402   0.024  -0.021  0.00  0.00    -0.044 A 
ATOM      6  C7  <0> d           2.388   1.405  -0.013  0.00  0.00    -0.064 A 
ATOM      7  F1  <0> d           1.226  -2.032  -0.020  0.00  0.00    -0.206 F 
ATOM      8  H4  <0> d          -0.959   1.905   0.017  0.00  0.00     0.085 H 
ATOM      9  H5  <0> d          -0.926  -0.556   0.008  0.00  0.00     0.088 H 
ATOM     10  H6  <0> d           3.342  -0.506  -0.032  0.00  0.00     0.088 H 
ATOM     11  H7  <0> d           3.318   1.954  -0.019  0.00  0.00     0.085 H 
ENDROOT
BRANCH   1  12
ATOM     12  S1  <0> d           1.157   3.849   0.011  0.00  0.00    -0.134 SA
BRANCH  12  13
ATOM     13  C1  <0> d           2.912   4.308  -0.003  0.00  0.00    -0.030 C 
ATOM     14  H1  <0> d           3.402   3.898   0.880  0.00  0.00     0.042 H 
ATOM     15  H2  <0> d           3.385   3.907  -0.899  0.00  0.00     0.042 H 
ATOM     16  H3  <0> d           3.003   5.394   0.002  0.00  0.00     0.042 H 
ENDBRANCH  12  13
ENDBRANCH   1  12
TORSDOF 2
