REMARK  3 active torsions:
REMARK  status: ('A' for Active; 'I' for Inactive)
REMARK    1  A    between atoms: C1_1  and  C2_2 
REMARK    2  A    between atoms: C2_2  and  N1_3 
REMARK    3  A    between atoms: C3_5  and  N5_8 
ROOT
ATOM      1  N1  <0> d          -2.103   1.072   1.277  0.00  0.00    -0.154 N 
ATOM      2  N2  <0> d          -2.543  -0.138   1.840  0.00  0.00     0.041 NA
ATOM      3  C3  <0> d          -3.840  -0.188   1.621  0.00  0.00     0.758 A 
ATOM      4  N3  <0> d          -4.179   0.922   0.964  0.00  0.00     0.065 NA
ATOM      5  N4  <0> d          -3.139   1.655   0.777  0.00  0.00    -0.031 NA
ENDROOT
BRANCH   1   6
ATOM      6  C2  <0> d          -0.729   1.579   1.267  0.00  0.00     0.034 C 
ATOM      7  H4  <0> d          -0.202   1.218   2.150  0.00  0.00     0.069 H 
ATOM      8  H5  <0> d          -0.744   2.669   1.273  0.00  0.00     0.069 H 
BRANCH   6   9
ATOM      9  C1  <0> d          -0.013   1.086   0.008  0.00  0.00    -0.058 C 
ATOM     10  H1  <0> d           0.002  -0.004   0.002  0.00  0.00     0.029 H 
ATOM     11  H2  <0> d           1.010   1.463   0.000  0.00  0.00     0.029 H 
ATOM     12  H3  <0> d          -0.540   1.447  -0.875  0.00  0.00     0.029 H 
ENDBRANCH   6   9
ENDBRANCH   1   6
BRANCH   3  13
ATOM     13  N5  <0> d          -4.703  -1.215   2.006  0.00  0.00    -0.228 N 
ATOM     14  H6  <0> d          -4.358  -1.986   2.483  0.00  0.00     0.174 HD
ATOM     15  H7  <0> d          -5.649  -1.159   1.797  0.00  0.00     0.174 HD
ENDBRANCH   3  13
TORSDOF 3
