REMARK  1 active torsions:
REMARK  status: ('A' for Active; 'I' for Inactive)
REMARK    1  A    between atoms: C2_2  and  C7_9 
ROOT
ATOM      1  C1  <0> d          -2.543   1.373   0.022  0.00  0.00     0.037 A 
ATOM      2  C2  <0> d          -1.294   1.927   0.019  0.00  0.00     0.131 A 
ATOM      3  N1  <0> d          -1.478   3.300   0.033  0.00  0.00    -0.328 N 
ATOM      4  C3  <0> d          -2.801   3.522   0.038  0.00  0.00     0.106 A 
ATOM      5  N2  <0> d          -3.429   2.367   0.033  0.00  0.00    -0.245 NA
ATOM      6  C4  <0> d          -3.077   5.013   0.053  0.00  0.00    -0.008 C 
ATOM      7  C5  <0> d          -1.731   5.641   0.491  0.00  0.00    -0.043 C 
ATOM      8  C6  <0> d          -0.724   4.562   0.039  0.00  0.00     0.002 C 
ATOM      9  H1  <0> d          -2.771   0.318   0.017  0.00  0.00     0.118 H 
ATOM     10  H2  <0> d          -3.364   5.358  -0.940  0.00  0.00     0.044 H 
ATOM     11  H3  <0> d          -3.853   5.250   0.780  0.00  0.00     0.044 H 
ATOM     12  H4  <0> d          -1.693   5.783   1.571  0.00  0.00     0.035 H 
ATOM     13  H5  <0> d          -1.556   6.582  -0.031  0.00  0.00     0.035 H 
ATOM     14  H6  <0> d           0.106   4.502   0.743  0.00  0.00     0.065 H 
ATOM     15  H7  <0> d          -0.353   4.785  -0.962  0.00  0.00     0.065 H 
ENDROOT
BRANCH   2  16
ATOM     16  C7  <0> d          -0.014   1.212   0.009  0.00  0.00     0.228 C 
ATOM     17  O1  <0> d           0.002  -0.004   0.002  0.00  0.00    -0.643 OA
ATOM     18  O2  <0> d           1.144   1.902   0.001  0.00  0.00    -0.643 OA
ENDBRANCH   2  16
TORSDOF 1
