REMARK  3 active torsions:
REMARK  status: ('A' for Active; 'I' for Inactive)
REMARK    1  A    between atoms: C1_1  and  C2_2 
REMARK    2  A    between atoms: C4_4  and  C7_9 
REMARK    3  A    between atoms: C5_6  and  C6_7 
ROOT
ATOM      1  C2  <0> d          -1.206   1.754   0.017  0.00  0.00    -0.037 A 
ATOM      2  C3  <0> d          -0.013   1.076   0.008  0.00  0.00    -0.063 A 
ATOM      3  C4  <0> d           1.151   1.779   0.001  0.00  0.00    -0.020 A 
ATOM      4  S1  <0> d           0.616   3.428   0.014  0.00  0.00    -0.088 SA
ATOM      5  C5  <0> d          -1.144   3.139   0.029  0.00  0.00     0.087 A 
ATOM      6  H4  <0> d           0.002  -0.004   0.002  0.00  0.00     0.086 H 
ENDROOT
BRANCH   1   7
ATOM      7  C1  <0> d          -2.524   1.024   0.020  0.00  0.00    -0.050 C 
ATOM      8  H1  <0> d          -2.837   0.844   1.048  0.00  0.00     0.033 H 
ATOM      9  H2  <0> d          -3.275   1.630  -0.487  0.00  0.00     0.033 H 
ATOM     10  H3  <0> d          -2.414   0.072  -0.499  0.00  0.00     0.033 H 
ENDBRANCH   1   7
BRANCH   5  11
ATOM     11  C6  <0> d          -2.239   4.111   0.044  0.00  0.00     0.217 C 
ATOM     12  O1  <0> d          -3.393   3.727   0.054  0.00  0.00    -0.643 OA
ATOM     13  O2  <0> d          -1.968   5.433   0.048  0.00  0.00    -0.643 OA
ENDBRANCH   5  11
BRANCH   3  14
ATOM     14  C7  <0> d           2.563   1.253  -0.016  0.00  0.00    -0.045 C 
ATOM     15  H5  <0> d           2.893   1.132  -1.047  0.00  0.00     0.034 H 
ATOM     16  H6  <0> d           3.219   1.957   0.496  0.00  0.00     0.034 H 
ATOM     17  H7  <0> d           2.597   0.289   0.493  0.00  0.00     0.034 H 
ENDBRANCH   3  14
TORSDOF 3
