REMARK  2 active torsions:
REMARK  status: ('A' for Active; 'I' for Inactive)
REMARK    1  A    between atoms: C2_2  and  C6_10 
REMARK    2  A    between atoms: C4_5  and  N2_7 
ROOT
ATOM      1  C1  <0> d          -0.016   1.348   0.009  0.00  0.00    -0.017 A 
ATOM      2  C2  <0> d           1.205   1.872   0.001  0.00  0.00    -0.027 A 
ATOM      3  C3  <0> d           2.150   0.685  -0.015  0.00  0.00     0.109 A 
ATOM      4  H1  <0> d           2.761   0.690  -0.918  0.00  0.00     0.082 H 
ATOM      5  C4  <0> d           1.205  -0.501  -0.012  0.00  0.00     0.097 A 
ATOM      6  N1  <0> d           0.002  -0.004   0.002  0.00  0.00    -0.354 N 
ATOM      7  C5  <0> d           3.001   0.681   1.187  0.00  0.00     0.076 C 
ATOM      8  N3  <0> d           3.657   0.677   2.114  0.00  0.00    -0.196 NA
ATOM      9  H2  <0> d          -0.922   1.936   0.025  0.00  0.00     0.111 H 
ATOM     10  H7  <0> d          -0.800  -0.549   0.007  0.00  0.00     0.166 HD
ENDROOT
BRANCH   2  11
ATOM     11  C6  <0> d           1.573   3.333   0.005  0.00  0.00     0.038 C 
ATOM     12  C7  <0> d           1.824   3.772   1.387  0.00  0.00     0.063 C 
ATOM     13  N4  <0> d           2.017   4.110   2.454  0.00  0.00    -0.197 NA
ATOM     14  H5  <0> d           2.472   3.483  -0.593  0.00  0.00     0.061 H 
ATOM     15  H6  <0> d           0.754   3.915  -0.418  0.00  0.00     0.061 H 
ENDBRANCH   2  11
BRANCH   5  16
ATOM     16  N2  <0> d           1.548  -1.825  -0.022  0.00  0.00    -0.388 N 
ATOM     17  H3  <0> d           2.482  -2.084  -0.033  0.00  0.00     0.157 HD
ATOM     18  H4  <0> d           0.856  -2.505  -0.020  0.00  0.00     0.157 HD
ENDBRANCH   5  16
TORSDOF 2
