REMARK  9 active torsions:
REMARK  status: ('A' for Active; 'I' for Inactive)
REMARK    1  A    between atoms: C1_1  and  C2_2 
REMARK    2  A    between atoms: C2_2  and  C3_3 
REMARK    3  A    between atoms: C3_3  and  C4_4 
REMARK    4  A    between atoms: C4_4  and  C5_6 
REMARK    5  A    between atoms: C4_4  and  O2_13 
REMARK    6  A    between atoms: C5_6  and  C6_8 
REMARK    7  A    between atoms: C5_6  and  C7_9 
REMARK    8  A    between atoms: C7_9  and  C8_11 
REMARK    9  A    between atoms: C7_9  and  O1_12 
ROOT
ATOM      1  C4  <0> d           0.002  -0.004   0.002  0.00  0.00     0.041 C 
ATOM      2  H1  <0> d           0.450  -0.366   0.927  0.00  0.00     0.083 H 
ENDROOT
BRANCH   1   3
ATOM      3  C3  <0> d          -0.019   1.526   0.010  0.00  0.00    -0.041 C 
ATOM      4  H9  <0> d           1.004   1.903   0.003  0.00  0.00     0.036 H 
ATOM      5  H10 <0> d          -0.546   1.887  -0.873  0.00  0.00     0.036 H 
BRANCH   3   6
ATOM      6  C2  <0> d          -0.735   2.019   1.269  0.00  0.00    -0.066 C 
ATOM      7  H7  <0> d          -1.757   1.642   1.277  0.00  0.00     0.032 H 
ATOM      8  H8  <0> d          -0.208   1.658   2.152  0.00  0.00     0.032 H 
BRANCH   6   9
ATOM      9  C1  <0> d          -0.756   3.549   1.278  0.00  0.00    -0.076 C 
ATOM     10  H4  <0> d          -1.266   3.901   2.174  0.00  0.00     0.027 H 
ATOM     11  H5  <0> d           0.267   3.926   1.270  0.00  0.00     0.027 H 
ATOM     12  H6  <0> d          -1.283   3.910   0.395  0.00  0.00     0.027 H 
ENDBRANCH   6   9
ENDBRANCH   3   6
ENDBRANCH   1   3
BRANCH   1  13
ATOM     13  C5  <0> d           0.825  -0.496  -1.190  0.00  0.00    -0.008 C 
ATOM     14  H2  <0> d           1.845  -0.120  -1.108  0.00  0.00     0.047 H 
BRANCH  13  15
ATOM     15  C6  <0> d           0.196   0.012  -2.489  0.00  0.00    -0.068 C 
ATOM     16  H11 <0> d          -0.824  -0.364  -2.571  0.00  0.00     0.028 H 
ATOM     17  H12 <0> d           0.181   1.102  -2.483  0.00  0.00     0.028 H 
ATOM     18  H13 <0> d           0.782  -0.339  -3.338  0.00  0.00     0.028 H 
ENDBRANCH  13  15
BRANCH  13  19
ATOM     19  C7  <0> d           0.846  -2.026  -1.199  0.00  0.00     0.037 C 
ATOM     20  H3  <0> d          -0.174  -2.403  -1.280  0.00  0.00     0.083 H 
BRANCH  19  21
ATOM     21  C8  <0> d           1.669  -2.519  -2.391  0.00  0.00    -0.052 C 
ATOM     22  H14 <0> d           2.688  -2.142  -2.309  0.00  0.00     0.030 H 
ATOM     23  H15 <0> d           1.683  -3.608  -2.397  0.00  0.00     0.030 H 
ATOM     24  H16 <0> d           1.221  -2.156  -3.316  0.00  0.00     0.030 H 
ENDBRANCH  19  21
BRANCH  19  25
ATOM     25  O1  <0> d           1.433  -2.501   0.014  0.00  0.00    -0.396 OA
ATOM     26  H17 <0> d           2.343  -2.204   0.153  0.00  0.00     0.210 HD
ENDBRANCH  19  25
ENDBRANCH  13  19
ENDBRANCH   1  13
BRANCH   1  27
ATOM     27  O2  <0> d          -1.335  -0.498  -0.105  0.00  0.00    -0.395 OA
ATOM     28  H18 <0> d          -1.796  -0.214  -0.907  0.00  0.00     0.210 HD
ENDBRANCH   1  27
TORSDOF 9
