REMARK  7 active torsions:
REMARK  status: ('A' for Active; 'I' for Inactive)
REMARK    1  A    between atoms: C1_1  and  C2_2 
REMARK    2  A    between atoms: C2_2  and  C3_3 
REMARK    3  A    between atoms: C2_2  and  C4_4 
REMARK    4  A    between atoms: C4_4  and  O1_5 
REMARK    5  A    between atoms: O1_5  and  C5_6 
REMARK    6  A    between atoms: C5_6  and  C6_7 
REMARK    7  A    between atoms: C6_7  and  C7_8 
ROOT
ATOM      1  C4  <0> d          -4.870   0.772   0.029  0.00  0.00     0.022 C 
ATOM      2  H8  <0> d          -4.849   0.132   0.924  0.00  0.00     0.074 H 
ATOM      3  H9  <0> d          -4.858   0.142  -0.872  0.00  0.00     0.074 H 
ENDROOT
BRANCH   1   4
ATOM      4  C2  <0> d          -6.143   1.622   0.040  0.00  0.00    -0.041 C 
ATOM      5  H4  <0> d          -6.121   2.325  -0.806  0.00  0.00     0.042 H 
BRANCH   4   6
ATOM      6  C1  <0> d          -7.366   0.711  -0.085  0.00  0.00    -0.071 C 
ATOM      7  H1  <0> d          -7.309   0.148  -1.028  0.00  0.00     0.028 H 
ATOM      8  H2  <0> d          -8.280   1.322  -0.077  0.00  0.00     0.028 H 
ATOM      9  H3  <0> d          -7.387   0.008   0.761  0.00  0.00     0.028 H 
ENDBRANCH   4   6
BRANCH   4  10
ATOM     10  C3  <0> d          -6.222   2.405   1.352  0.00  0.00    -0.071 C 
ATOM     11  H5  <0> d          -5.342   3.060   1.442  0.00  0.00     0.028 H 
ATOM     12  H6  <0> d          -6.243   1.702   2.198  0.00  0.00     0.028 H 
ATOM     13  H7  <0> d          -7.136   3.016   1.360  0.00  0.00     0.028 H 
ENDBRANCH   4  10
ENDBRANCH   1   4
BRANCH   1  14
ATOM     14  O1  <0> d          -3.726   1.627   0.029  0.00  0.00    -0.390 OA
BRANCH  14  15
ATOM     15  C5  <0> d          -2.479   0.930   0.019  0.00  0.00     0.028 C 
ATOM     16  H10 <0> d          -2.408   0.293   0.913  0.00  0.00     0.075 H 
ATOM     17  H11 <0> d          -2.416   0.303  -0.883  0.00  0.00     0.075 H 
BRANCH  15  18
ATOM     18  C6  <0> d          -1.329   1.940   0.019  0.00  0.00     0.035 C 
ATOM     19  H12 <0> d          -1.401   2.576  -0.875  0.00  0.00     0.052 H 
ATOM     20  H13 <0> d          -1.392   2.566   0.921  0.00  0.00     0.052 H 
BRANCH  18  21
ATOM     21  C7  <0> d          -0.014   1.204   0.009  0.00  0.00     0.174 C 
ATOM     22  O2  <0> d           0.002  -0.004   0.002  0.00  0.00    -0.648 OA
ATOM     23  O3  <0> d           1.139   1.891   0.001  0.00  0.00    -0.648 OA
ENDBRANCH  18  21
ENDBRANCH  15  18
ENDBRANCH  14  15
ENDBRANCH   1  14
TORSDOF 7
