REMARK  3 active torsions:
REMARK  status: ('A' for Active; 'I' for Inactive)
REMARK    1  A    between atoms: C1_1  and  C2_2 
REMARK    2  A    between atoms: C2_2  and  C3_3 
REMARK    3  A    between atoms: C4_5  and  C7_10 
ROOT
ATOM      1  C3  <0> d          -2.143   1.058   1.278  0.00  0.00     0.127 A 
ATOM      2  N1  <0> d          -2.394  -0.103   1.849  0.00  0.00    -0.238 NA
ATOM      3  C4  <0> d          -3.623  -0.594   1.879  0.00  0.00     0.035 A 
ATOM      4  C5  <0> d          -4.652   0.130   1.298  0.00  0.00    -0.020 A 
ATOM      5  C6  <0> d          -4.349   1.348   0.706  0.00  0.00     0.130 A 
ATOM      6  N2  <0> d          -3.096   1.777   0.720  0.00  0.00    -0.221 NA
ATOM      7 Cl1  <0> d          -5.596   2.299  -0.038  0.00  0.00    -0.062 Cl
ATOM      8  H6  <0> d          -5.664  -0.244   1.307  0.00  0.00     0.091 H 
ENDROOT
BRANCH   1   9
ATOM      9  C2  <0> d          -0.729   1.579   1.267  0.00  0.00    -0.011 C 
ATOM     10  H4  <0> d          -0.202   1.218   2.150  0.00  0.00     0.044 H 
ATOM     11  H5  <0> d          -0.744   2.669   1.273  0.00  0.00     0.044 H 
BRANCH   9  12
ATOM     12  C1  <0> d          -0.013   1.086   0.008  0.00  0.00    -0.070 C 
ATOM     13  H1  <0> d           0.002  -0.004   0.002  0.00  0.00     0.028 H 
ATOM     14  H2  <0> d           1.010   1.463   0.000  0.00  0.00     0.028 H 
ATOM     15  H3  <0> d          -0.540   1.447  -0.875  0.00  0.00     0.028 H 
ENDBRANCH   9  12
ENDBRANCH   1   9
BRANCH   3  16
ATOM     16  C7  <0> d          -3.899  -1.922   2.535  0.00  0.00    -0.035 C 
ATOM     17  H7  <0> d          -4.135  -1.765   3.588  0.00  0.00     0.035 H 
ATOM     18  H8  <0> d          -4.744  -2.402   2.041  0.00  0.00     0.035 H 
ATOM     19  H9  <0> d          -3.019  -2.559   2.451  0.00  0.00     0.035 H 
ENDBRANCH   3  16
TORSDOF 3
