REMARK  2 active torsions:
REMARK  status: ('A' for Active; 'I' for Inactive)
REMARK    1  A    between atoms: C3_3  and  C5_6 
REMARK    2  A    between atoms: C5_6  and  C6_8 
ROOT
ATOM      1  C6  <0> d           1.280   1.981   0.001  0.00  0.00     0.076 C 
ATOM      2  C7  <0> d           2.412   1.040  -0.015  0.00  0.00     0.067 C 
ATOM      3  N1  <0> d           3.285   0.314  -0.028  0.00  0.00    -0.197 NA
ATOM      4  H4  <0> d           1.318   2.561  -0.813  0.00  0.00     0.067 H 
ATOM      5  H5  <0> d           1.338   2.604   0.893  0.00  0.00     0.067 H 
ENDROOT
BRANCH   1   6
ATOM      6  C5  <0> d          -0.014   1.210   0.009  0.00  0.00     0.195 C 
ATOM      7  O2  <0> d           0.002  -0.004   0.002  0.00  0.00    -0.289 OA
BRANCH   6   8
ATOM      8  C3  <0> d          -1.248   1.900   0.018  0.00  0.00     0.121 A 
ATOM      9  C2  <0> d          -2.502   1.324   0.021  0.00  0.00    -0.045 A 
ATOM     10  C1  <0> d          -3.425   2.379   0.031  0.00  0.00    -0.059 A 
ATOM     11  H2  <0> d          -2.728   0.268   0.016  0.00  0.00     0.088 H 
ATOM     12  C4  <0> d          -2.716   3.531   0.034  0.00  0.00     0.019 A 
ATOM     13  H1  <0> d          -4.501   2.288   0.035  0.00  0.00     0.086 H 
ATOM     14  O1  <0> d          -1.410   3.240   0.032  0.00  0.00    -0.319 OA
ATOM     15  H3  <0> d          -3.137   4.526   0.042  0.00  0.00     0.123 H 
ENDBRANCH   6   8
ENDBRANCH   1   6
TORSDOF 2
