REMARK  5 active torsions:
REMARK  status: ('A' for Active; 'I' for Inactive)
REMARK    1  A    between atoms: C1_1  and  C2_2 
REMARK    2  A    between atoms: C2_2  and  C3_3 
REMARK    3  A    between atoms: C2_2  and  C4_4 
REMARK    4  A    between atoms: C7_7  and  O1_11 
REMARK    5  A    between atoms: C8_8  and  N1_10 
ROOT
ATOM      1  C4  <0> d          -1.412  -0.526   0.013  0.00  0.00    -0.052 A 
ATOM      2  C5  <0> d          -2.258  -0.203   1.057  0.00  0.00    -0.074 A 
ATOM      3  C6  <0> d          -3.556  -0.678   1.073  0.00  0.00    -0.048 A 
ATOM      4  C7  <0> d          -4.013  -1.480   0.039  0.00  0.00     0.091 A 
ATOM      5  C8  <0> d          -3.161  -1.806  -1.014  0.00  0.00     0.059 A 
ATOM      6  C9  <0> d          -1.861  -1.321  -1.025  0.00  0.00    -0.049 A 
ATOM      7  H8  <0> d          -1.904   0.421   1.864  0.00  0.00     0.084 H 
ATOM      8  H9  <0> d          -4.215  -0.425   1.890  0.00  0.00     0.087 H 
ATOM      9  H10 <0> d          -1.200  -1.567  -1.842  0.00  0.00     0.087 H 
ENDROOT
BRANCH   1  10
ATOM     10  C2  <0> d           0.002  -0.004   0.002  0.00  0.00    -0.035 C 
ATOM     11  H4  <0> d           0.512  -0.356  -0.895  0.00  0.00     0.046 H 
BRANCH  10  12
ATOM     12  C1  <0> d          -0.019   1.526   0.010  0.00  0.00    -0.069 C 
ATOM     13  H1  <0> d           1.004   1.903   0.003  0.00  0.00     0.028 H 
ATOM     14  H2  <0> d          -0.546   1.887  -0.873  0.00  0.00     0.028 H 
ATOM     15  H3  <0> d          -0.529   1.877   0.907  0.00  0.00     0.028 H 
ENDBRANCH  10  12
BRANCH  10  16
ATOM     16  C3  <0> d           0.742  -0.511   1.242  0.00  0.00    -0.069 C 
ATOM     17  H5  <0> d           0.232  -0.159   2.138  0.00  0.00     0.028 H 
ATOM     18  H6  <0> d           0.757  -1.601   1.236  0.00  0.00     0.028 H 
ATOM     19  H7  <0> d           1.765  -0.134   1.234  0.00  0.00     0.028 H 
ENDBRANCH  10  16
ENDBRANCH   1  10
BRANCH   5  20
ATOM     20  N1  <0> d          -3.617  -2.615  -2.060  0.00  0.00    -0.397 N 
ATOM     21  H11 <0> d          -4.527  -2.951  -2.053  0.00  0.00     0.156 HD
ATOM     22  H12 <0> d          -3.022  -2.841  -2.793  0.00  0.00     0.156 HD
ENDBRANCH   5  20
BRANCH   4  23
ATOM     23  O1  <0> d          -5.290  -1.949   0.053  0.00  0.00    -0.358 OA
ATOM     24  H13 <0> d          -5.927  -1.366  -0.382  0.00  0.00     0.217 HD
ENDBRANCH   4  23
TORSDOF 5
