REMARK  3 active torsions:
REMARK  status: ('A' for Active; 'I' for Inactive)
REMARK    1  A    between atoms: C1_1  and  C2_2 
REMARK    2  A    between atoms: C4_5  and  O2_10 
REMARK    3  A    between atoms: O2_10  and  C7_11 
ROOT
ATOM      1  C2  <0> d           0.002  -0.004   0.002  0.00  0.00    -0.035 C 
ATOM      2  H1  <0> d          -1.020  -0.381   0.010  0.00  0.00     0.045 H 
ATOM      3  C3  <0> d           0.720  -0.498  -1.259  0.00  0.00    -0.013 C 
ATOM      4  C4  <0> d           1.018  -1.994  -1.084  0.00  0.00     0.136 C 
ATOM      5  H2  <0> d           0.091  -2.535  -0.898  0.00  0.00     0.129 H 
ATOM      6  O1  <0> d           1.898  -2.147   0.034  0.00  0.00    -0.333 OA
ATOM      7  C5  <0> d           1.584  -1.491   1.173  0.00  0.00     0.012 C 
ATOM      8  C6  <0> d           0.730  -0.503   1.221  0.00  0.00    -0.078 C 
ATOM      9  H6  <0> d           0.079  -0.350  -2.128  0.00  0.00     0.041 H 
ATOM     10  H7  <0> d           1.652   0.050  -1.390  0.00  0.00     0.041 H 
ATOM     11  H8  <0> d           2.063  -1.798   2.091  0.00  0.00     0.122 H 
ATOM     12  H9  <0> d           0.540  -0.025   2.171  0.00  0.00     0.080 H 
ENDROOT
BRANCH   4  13
ATOM     13  O2  <0> d           1.645  -2.501  -2.264  0.00  0.00    -0.366 OA
BRANCH  13  14
ATOM     14  C7  <0> d           1.760  -3.925  -2.294  0.00  0.00     0.007 C 
ATOM     15  H10 <0> d           2.356  -4.260  -1.444  0.00  0.00     0.066 H 
ATOM     16  H11 <0> d           0.767  -4.372  -2.239  0.00  0.00     0.066 H 
ATOM     17  H12 <0> d           2.246  -4.231  -3.220  0.00  0.00     0.066 H 
ENDBRANCH  13  14
ENDBRANCH   4  13
BRANCH   1  18
ATOM     18  C1  <0> d          -0.019   1.526   0.010  0.00  0.00    -0.069 C 
ATOM     19  H3  <0> d           1.004   1.903   0.003  0.00  0.00     0.028 H 
ATOM     20  H4  <0> d          -0.546   1.887  -0.873  0.00  0.00     0.028 H 
ATOM     21  H5  <0> d          -0.529   1.877   0.907  0.00  0.00     0.028 H 
ENDBRANCH   1  18
TORSDOF 3
