REMARK  5 active torsions:
REMARK  status: ('A' for Active; 'I' for Inactive)
REMARK    1  A    between atoms: C1_1  and  C2_2 
REMARK    2  A    between atoms: C2_2  and  C3_3 
REMARK    3  A    between atoms: C3_3  and  C4_5 
REMARK    4  A    between atoms: C4_5  and  C5_6 
REMARK    5  A    between atoms: C4_5  and  C6_7 
ROOT
ATOM      1  C4  <0> d           1.280   1.975   0.000  0.00  0.00    -0.003 C 
ATOM      2  H6  <0> d           1.144   2.849  -0.465  0.00  0.00     0.050 H 
ENDROOT
BRANCH   1   3
ATOM      3  C3  <0> d          -0.014   1.203   0.009  0.00  0.00     0.130 C 
ATOM      4  O1  <0> d           0.002  -0.004   0.002  0.00  0.00    -0.298 OA
BRANCH   3   5
ATOM      5  C2  <0> d          -1.329   1.939   0.019  0.00  0.00    -0.013 C 
ATOM      6  H4  <0> d          -1.386   2.509   0.839  0.00  0.00     0.043 H 
ATOM      7  H5  <0> d          -1.400   2.570  -0.867  0.00  0.00     0.043 H 
BRANCH   5   8
ATOM      8  C1  <0> d          -2.479   0.929   0.019  0.00  0.00    -0.070 C 
ATOM      9  H1  <0> d          -2.408   0.298   0.905  0.00  0.00     0.028 H 
ATOM     10  H2  <0> d          -3.430   1.461   0.026  0.00  0.00     0.028 H 
ATOM     11  H3  <0> d          -2.417   0.308  -0.875  0.00  0.00     0.028 H 
ENDBRANCH   5   8
ENDBRANCH   3   5
ENDBRANCH   1   3
BRANCH   1  12
ATOM     12  C5  <0> d           1.732   2.228   1.440  0.00  0.00    -0.067 C 
ATOM     13  H7  <0> d           2.669   2.786   1.434  0.00  0.00     0.028 H 
ATOM     14  H8  <0> d           0.970   2.804   1.964  0.00  0.00     0.028 H 
ATOM     15  H9  <0> d           1.881   1.274   1.947  0.00  0.00     0.028 H 
ENDBRANCH   1  12
BRANCH   1  16
ATOM     16  C6  <0> d           2.351   1.166  -0.735  0.00  0.00    -0.067 C 
ATOM     17  H10 <0> d           2.029   0.986  -1.761  0.00  0.00     0.028 H 
ATOM     18  H11 <0> d           3.287   1.724  -0.741  0.00  0.00     0.028 H 
ATOM     19  H12 <0> d           2.499   0.213  -0.228  0.00  0.00     0.028 H 
ENDBRANCH   1  16
TORSDOF 5
