REMARK  1 active torsions:
REMARK  status: ('A' for Active; 'I' for Inactive)
REMARK    1  A    between atoms: C1_1  and  C2_2 
ROOT
ATOM      1  C2  <0> d           0.002  -0.004   0.002  0.00  0.00     0.011 A 
ATOM      2  N1  <0> d           0.008  -0.773  -1.034  0.00  0.00    -0.270 NA
ATOM      3  C3  <0> d           0.028  -2.091  -0.727  0.00  0.00    -0.001 A 
ATOM      4  C4  <0> d           0.037  -2.303   0.585  0.00  0.00    -0.081 A 
ATOM      5  C5  <0> d           0.026  -0.921   1.210  0.00  0.00    -0.012 A 
ATOM      6  H4  <0> d           0.036  -2.880  -1.464  0.00  0.00     0.114 H 
ATOM      7  H5  <0> d           0.052  -3.255   1.095  0.00  0.00     0.079 H 
ATOM      8  H6  <0> d           0.926  -0.756   1.802  0.00  0.00     0.047 H 
ATOM      9  H7  <0> d          -0.868  -0.781   1.818  0.00  0.00     0.047 H 
ENDROOT
BRANCH   1  10
ATOM     10  C1  <0> d          -0.018   1.503   0.010  0.00  0.00    -0.039 C 
ATOM     11  H1  <0> d           1.004   1.880   0.003  0.00  0.00     0.035 H 
ATOM     12  H2  <0> d          -0.545   1.864  -0.873  0.00  0.00     0.035 H 
ATOM     13  H3  <0> d          -0.529   1.854   0.907  0.00  0.00     0.035 H 
ENDBRANCH   1  10
TORSDOF 1
