REMARK  7 active torsions:
REMARK  status: ('A' for Active; 'I' for Inactive)
REMARK    1  A    between atoms: C1_1  and  C2_2 
REMARK    2  A    between atoms: C2_2  and  C3_3 
REMARK    3  A    between atoms: C2_2  and  N1_4 
REMARK    4  A    between atoms: N1_4  and  C4_5 
REMARK       I    between atoms: N1_4  and  C7_8 
REMARK    5  A    between atoms: C4_5  and  C5_6 
REMARK    6  A    between atoms: C4_5  and  C6_7 
REMARK    7  A    between atoms: C7_8  and  C8_10 
ROOT
ATOM      1  N1  <0> d           1.233   1.866  -0.067  0.00  0.00    -0.344 N 
ATOM      2  C7  <0> d           0.071   1.184  -0.051  0.00  0.00     0.216 C 
ATOM      3  O1  <0> d          -0.983   1.783  -0.002  0.00  0.00    -0.274 OA
ENDROOT
BRANCH   1   4
ATOM      4  C2  <0> d           1.223   3.329  -0.132  0.00  0.00     0.008 C 
ATOM      5  H4  <0> d           2.246   3.696  -0.222  0.00  0.00     0.071 H 
BRANCH   4   6
ATOM      6  C1  <0> d           0.412   3.780  -1.348  0.00  0.00    -0.057 C 
ATOM      7  H1  <0> d          -0.631   3.492  -1.216  0.00  0.00     0.030 H 
ATOM      8  H2  <0> d           0.480   4.863  -1.449  0.00  0.00     0.030 H 
ATOM      9  H3  <0> d           0.808   3.306  -2.246  0.00  0.00     0.030 H 
ENDBRANCH   4   6
BRANCH   4  10
ATOM     10  C3  <0> d           0.589   3.892   1.141  0.00  0.00    -0.057 C 
ATOM     11  H5  <0> d           1.167   3.571   2.008  0.00  0.00     0.030 H 
ATOM     12  H6  <0> d           0.582   4.981   1.093  0.00  0.00     0.030 H 
ATOM     13  H7  <0> d          -0.433   3.526   1.231  0.00  0.00     0.030 H 
ENDBRANCH   4  10
ENDBRANCH   1   4
BRANCH   1  14
ATOM     14  C4  <0> d           2.507   1.143  -0.019  0.00  0.00     0.008 C 
ATOM     15  H8  <0> d           2.316   0.079   0.113  0.00  0.00     0.071 H 
BRANCH  14  16
ATOM     16  C5  <0> d           3.269   1.366  -1.327  0.00  0.00    -0.057 C 
ATOM     17  H9  <0> d           3.460   2.431  -1.459  0.00  0.00     0.030 H 
ATOM     18  H10 <0> d           4.217   0.829  -1.291  0.00  0.00     0.030 H 
ATOM     19  H11 <0> d           2.674   0.998  -2.162  0.00  0.00     0.030 H 
ENDBRANCH  14  16
BRANCH  14  20
ATOM     20  C6  <0> d           3.343   1.661   1.153  0.00  0.00    -0.057 C 
ATOM     21  H12 <0> d           2.800   1.502   2.085  0.00  0.00     0.030 H 
ATOM     22  H13 <0> d           4.291   1.124   1.189  0.00  0.00     0.030 H 
ATOM     23  H14 <0> d           3.534   2.726   1.021  0.00  0.00     0.030 H 
ENDBRANCH  14  20
ENDBRANCH   1  14
BRANCH   2  24
ATOM     24  C8  <0> d           0.081  -0.322  -0.088  0.00  0.00    -0.003 C 
ATOM     25  H15 <0> d           0.149  -0.660  -1.122  0.00  0.00     0.040 H 
ATOM     26  H16 <0> d           0.938  -0.694   0.473  0.00  0.00     0.040 H 
ATOM     27  H17 <0> d          -0.838  -0.703   0.358  0.00  0.00     0.040 H 
ENDBRANCH   2  24
TORSDOF 7
