REMARK  5 active torsions:
REMARK  status: ('A' for Active; 'I' for Inactive)
REMARK    1  A    between atoms: C1_1  and  C2_2 
REMARK    2  A    between atoms: C2_2  and  N1_3 
REMARK    3  A    between atoms: N1_3  and  C3_4 
REMARK    4  A    between atoms: C5_6  and  O1_11 
REMARK    5  A    between atoms: C8_9  and  C9_10 
ROOT
ATOM      1  C3  <0> d           0.832  -1.847  -1.433  0.00  0.00     0.036 A 
ATOM      2  C4  <0> d           0.321  -2.762  -0.523  0.00  0.00    -0.025 A 
ATOM      3  C5  <0> d           0.465  -4.120  -0.754  0.00  0.00     0.067 A 
ATOM      4  C6  <0> d           1.120  -4.563  -1.895  0.00  0.00    -0.050 A 
ATOM      5  C7  <0> d           1.629  -3.651  -2.800  0.00  0.00    -0.072 A 
ATOM      6  C8  <0> d           1.482  -2.296  -2.576  0.00  0.00    -0.035 A 
ATOM      7  H7  <0> d          -0.189  -2.415   0.365  0.00  0.00     0.091 H 
ATOM      8  H8  <0> d           1.233  -5.622  -2.076  0.00  0.00     0.087 H 
ATOM      9  H9  <0> d           2.138  -3.998  -3.687  0.00  0.00     0.084 H 
ENDROOT
BRANCH   1  10
ATOM     10  N1  <0> d           0.688  -0.476  -1.203  0.00  0.00    -0.390 N 
ATOM     11  H6  <0> d           1.042   0.162  -1.842  0.00  0.00     0.159 HD
BRANCH  10  12
ATOM     12  C2  <0> d           0.002  -0.004   0.002  0.00  0.00    -0.011 C 
ATOM     13  H4  <0> d           0.529  -0.365   0.885  0.00  0.00     0.063 H 
ATOM     14  H5  <0> d          -1.020  -0.381   0.010  0.00  0.00     0.063 H 
BRANCH  12  15
ATOM     15  C1  <0> d          -0.019   1.526   0.010  0.00  0.00    -0.061 C 
ATOM     16  H1  <0> d           1.004   1.903   0.003  0.00  0.00     0.029 H 
ATOM     17  H2  <0> d          -0.546   1.887  -0.873  0.00  0.00     0.029 H 
ATOM     18  H3  <0> d          -0.529   1.877   0.907  0.00  0.00     0.029 H 
ENDBRANCH  12  15
ENDBRANCH  10  12
ENDBRANCH   1  10
BRANCH   6  19
ATOM     19  C9  <0> d           2.033  -1.304  -3.568  0.00  0.00    -0.049 C 
ATOM     20  H10 <0> d           3.060  -1.056  -3.302  0.00  0.00     0.033 H 
ATOM     21  H11 <0> d           2.011  -1.739  -4.567  0.00  0.00     0.033 H 
ATOM     22  H12 <0> d           1.425  -0.399  -3.553  0.00  0.00     0.033 H 
ENDBRANCH   6  19
BRANCH   3  23
ATOM     23  O1  <0> d          -0.034  -5.019   0.135  0.00  0.00    -0.361 OA
ATOM     24  H13 <0> d          -0.946  -5.285  -0.045  0.00  0.00     0.217 HD
ENDBRANCH   3  23
TORSDOF 5
