REMARK  3 active torsions:
REMARK  status: ('A' for Active; 'I' for Inactive)
REMARK    1  A    between atoms: C1_1  and  C2_2 
REMARK    2  A    between atoms: C3_3  and  C8_9 
REMARK    3  A    between atoms: C7_7  and  N1_8 
ROOT
ATOM      1  C2  <0> d           2.372   1.446  -0.007  0.00  0.00    -0.019 A 
ATOM      2  C3  <0> d           1.147   2.067  -0.258  0.00  0.00     0.049 A 
ATOM      3  C4  <0> d          -0.026   1.310  -0.255  0.00  0.00    -0.066 A 
ATOM      4  C5  <0> d           0.028  -0.046  -0.004  0.00  0.00    -0.080 A 
ATOM      5  C6  <0> d           1.241  -0.660   0.244  0.00  0.00    -0.057 A 
ATOM      6  C7  <0> d           2.415   0.084   0.243  0.00  0.00     0.032 A 
ATOM      7  H4  <0> d          -0.976   1.785  -0.453  0.00  0.00     0.085 H 
ATOM      8  H5  <0> d          -0.881  -0.630  -0.002  0.00  0.00     0.083 H 
ATOM      9  H6  <0> d           1.277  -1.722   0.440  0.00  0.00     0.086 H 
ENDROOT
BRANCH   1  10
ATOM     10  C1  <0> d           3.644   2.256  -0.009  0.00  0.00    -0.048 C 
ATOM     11  H1  <0> d           4.002   2.366  -1.032  0.00  0.00     0.033 H 
ATOM     12  H2  <0> d           3.449   3.240   0.416  0.00  0.00     0.033 H 
ATOM     13  H3  <0> d           4.400   1.745   0.588  0.00  0.00     0.033 H 
ENDBRANCH   1  10
BRANCH   6  14
ATOM     14  N1  <0> d           3.639  -0.542   0.495  0.00  0.00    -0.399 N 
ATOM     15  H7  <0> d           3.669  -1.495   0.671  0.00  0.00     0.156 HD
ATOM     16  H8  <0> d           4.458  -0.023   0.494  0.00  0.00     0.156 HD
ENDBRANCH   6  14
BRANCH   2  17
ATOM     17  C8  <0> d           1.093   3.518  -0.526  0.00  0.00     0.210 C 
ATOM     18  O1  <0> d           2.121   4.154  -0.639  0.00  0.00    -0.644 OA
ATOM     19  O2  <0> d          -0.098   4.137  -0.645  0.00  0.00    -0.644 OA
ENDBRANCH   2  17
TORSDOF 3
