REMARK  3 active torsions:
REMARK  status: ('A' for Active; 'I' for Inactive)
REMARK    1  A    between atoms: C1_1  and  C2_2 
REMARK       I    between atoms: C2_2  and  N1_4 
REMARK    2  A    between atoms: N1_4  and  C3_5 
REMARK    3  A    between atoms: N1_4  and  C4_6 
ROOT
ATOM      1  C2  <0> d          -0.001  -0.001  -0.040  0.00  0.00     0.220 C 
ATOM      2  O1  <0> d           1.058  -0.590  -0.085  0.00  0.00    -0.274 OA
ATOM      3  N1  <0> d          -1.156  -0.694   0.009  0.00  0.00    -0.321 N 
ENDROOT
BRANCH   3   4
ATOM      4  C3  <0> d          -2.428   0.013   0.181  0.00  0.00    -0.011 C 
ATOM      5  H4  <0> d          -2.835   0.270  -0.797  0.00  0.00     0.057 H 
ATOM      6  H5  <0> d          -3.131  -0.629   0.711  0.00  0.00     0.057 H 
ATOM      7  H6  <0> d          -2.262   0.924   0.757  0.00  0.00     0.057 H 
ENDBRANCH   3   4
BRANCH   3   8
ATOM      8  C4  <0> d          -1.140  -2.089  -0.104  0.00  0.00     0.054 A 
ATOM      9  C8  <0> d          -0.569  -2.870   0.891  0.00  0.00     0.028 A 
ATOM     10  N2  <0> d          -0.553  -4.184   0.789  0.00  0.00    -0.271 NA
ATOM     11  H10 <0> d          -0.133  -2.396   1.759  0.00  0.00     0.118 H 
ATOM     12  C7  <0> d          -1.072  -4.806  -0.252  0.00  0.00     0.002 A 
ATOM     13  C6  <0> d          -1.659  -4.096  -1.283  0.00  0.00    -0.064 A 
ATOM     14  H9  <0> d          -1.039  -5.884  -0.298  0.00  0.00     0.114 H 
ATOM     15  C5  <0> d          -1.703  -2.714  -1.214  0.00  0.00    -0.054 A 
ATOM     16  H8  <0> d          -2.082  -4.615  -2.131  0.00  0.00     0.085 H 
ATOM     17  H7  <0> d          -2.159  -2.135  -2.003  0.00  0.00     0.087 H 
ENDBRANCH   3   8
BRANCH   1  18
ATOM     18  C1  <0> d          -0.026   1.506  -0.037  0.00  0.00    -0.002 C 
ATOM     19  H1  <0> d           0.995   1.886  -0.081  0.00  0.00     0.040 H 
ATOM     20  H2  <0> d          -0.583   1.861  -0.904  0.00  0.00     0.040 H 
ATOM     21  H3  <0> d          -0.507   1.860   0.874  0.00  0.00     0.040 H 
ENDBRANCH   1  18
TORSDOF 3
