REMARK  2 active torsions:
REMARK  status: ('A' for Active; 'I' for Inactive)
REMARK    1  A    between atoms: C1_1  and  C2_2 
REMARK    2  A    between atoms: C4_5  and  N4_11 
ROOT
ATOM      1  C2  <0> d           2.949  -1.982  -0.037  0.00  0.00     0.145 A 
ATOM      2  N1  <0> d           1.650  -1.951  -0.025  0.00  0.00    -0.221 NA
ATOM      3  C3  <0> d           1.246  -0.655  -0.013  0.00  0.00     0.157 A 
ATOM      4  C4  <0> d           0.002  -0.004   0.002  0.00  0.00     0.156 A 
ATOM      5  N2  <0> d          -0.016   1.325   0.009  0.00  0.00    -0.222 NA
ATOM      6  C5  <0> d           1.105   2.022   0.002  0.00  0.00     0.091 A 
ATOM      7  N3  <0> d           2.292   1.452  -0.012  0.00  0.00    -0.215 NA
ATOM      8  C6  <0> d           2.409   0.129  -0.020  0.00  0.00     0.205 A 
ATOM      9  O1  <0> d           3.443  -0.733  -0.035  0.00  0.00    -0.275 OA
ATOM     10  H4  <0> d           1.047   3.100   0.008  0.00  0.00     0.146 H 
ENDROOT
BRANCH   1  11
ATOM     11  C1  <0> d           3.781  -3.239  -0.053  0.00  0.00    -0.015 C 
ATOM     12  H1  <0> d           4.838  -2.974  -0.062  0.00  0.00     0.038 H 
ATOM     13  H2  <0> d           3.562  -3.830   0.836  0.00  0.00     0.038 H 
ATOM     14  H3  <0> d           3.544  -3.821  -0.943  0.00  0.00     0.038 H 
ENDBRANCH   1  11
BRANCH   4  15
ATOM     15  N4  <0> d          -1.177  -0.729   0.010  0.00  0.00    -0.382 N 
ATOM     16  H5  <0> d          -2.030  -0.267   0.021  0.00  0.00     0.157 HD
ATOM     17  H6  <0> d          -1.150  -1.698   0.004  0.00  0.00     0.157 HD
ENDBRANCH   4  15
TORSDOF 2
