REMARK  2 active torsions:
REMARK  status: ('A' for Active; 'I' for Inactive)
REMARK    1  A    between atoms: C1_1  and  C2_2 
REMARK    2  A    between atoms: C3_4  and  C4_8 
ROOT
ATOM      1  C2  <0> d           0.002  -0.004   0.002  0.00  0.00     0.144 A 
ATOM      2  N1  <0> d           0.008  -0.774  -1.080  0.00  0.00    -0.207 NA
ATOM      3  C3  <0> d           0.026  -2.031  -0.669  0.00  0.00     0.223 A 
ATOM      4  N2  <0> d           0.032  -2.007   0.683  0.00  0.00    -0.254 N 
ATOM      5  H1  <0> d           0.045  -2.782   1.267  0.00  0.00     0.191 HD
ATOM      6  N3  <0> d           0.023  -0.775   1.061  0.00  0.00    -0.158 NA
ENDROOT
BRANCH   1   7
ATOM      7  C1  <0> d          -0.018   1.503   0.010  0.00  0.00    -0.018 C 
ATOM      8  H2  <0> d           1.004   1.880   0.003  0.00  0.00     0.038 H 
ATOM      9  H3  <0> d          -0.545   1.864  -0.873  0.00  0.00     0.038 H 
ATOM     10  H4  <0> d          -0.529   1.854   0.907  0.00  0.00     0.038 H 
ENDBRANCH   1   7
BRANCH   3  11
ATOM     11  C4  <0> d           0.038  -3.232  -1.525  0.00  0.00     0.248 C 
ATOM     12  O1  <0> d           0.032  -3.116  -2.743  0.00  0.00    -0.642 OA
ATOM     13  O2  <0> d           0.056  -4.345  -1.017  0.00  0.00    -0.642 OA
ENDBRANCH   3  11
TORSDOF 2
