REMARK  8 active torsions:
REMARK  status: ('A' for Active; 'I' for Inactive)
REMARK    1  A    between atoms: C1_1  and  C2_2 
REMARK    2  A    between atoms: C2_2  and  O1_3 
REMARK    3  A    between atoms: O1_3  and  C3_4 
REMARK    4  A    between atoms: C3_4  and  C4_6 
REMARK    5  A    between atoms: C4_6  and  C5_7 
REMARK    6  A    between atoms: C5_7  and  C6_8 
REMARK    7  A    between atoms: N1_9  and  C7_10 
REMARK    8  A    between atoms: N1_9  and  C8_11 
ROOT
ATOM      1  C5  <0> d          -0.019   1.472  -0.195  0.00  0.00     0.008 C 
ATOM      2  N1  <0> d          -1.247   2.047  -0.026  0.00  0.00    -0.393 N 
ENDROOT
BRANCH   1   3
ATOM      3  C4  <0> d           0.122   0.135  -0.072  0.00  0.00     0.011 C 
ATOM      4  H6  <0> d          -0.702  -0.466   0.283  0.00  0.00     0.096 H 
BRANCH   3   5
ATOM      5  C3  <0> d           1.349  -0.479  -0.408  0.00  0.00     0.284 C 
ATOM      6  O2  <0> d           2.240   0.178  -0.913  0.00  0.00    -0.260 OA
BRANCH   5   7
ATOM      7  O1  <0> d           1.533  -1.795  -0.169  0.00  0.00    -0.318 OA
BRANCH   7   8
ATOM      8  C2  <0> d           2.798  -2.350  -0.534  0.00  0.00     0.026 C 
ATOM      9  H4  <0> d           2.956  -2.222  -1.605  0.00  0.00     0.074 H 
ATOM     10  H5  <0> d           3.590  -1.839   0.013  0.00  0.00     0.074 H 
BRANCH   8  11
ATOM     11  C1  <0> d           2.820  -3.840  -0.190  0.00  0.00    -0.056 C 
ATOM     12  H1  <0> d           3.785  -4.264  -0.468  0.00  0.00     0.030 H 
ATOM     13  H2  <0> d           2.662  -3.968   0.881  0.00  0.00     0.030 H 
ATOM     14  H3  <0> d           2.027  -4.351  -0.737  0.00  0.00     0.030 H 
ENDBRANCH   8  11
ENDBRANCH   7   8
ENDBRANCH   5   7
ENDBRANCH   3   5
ENDBRANCH   1   3
BRANCH   1  15
ATOM     15  C6  <0> d           1.176   2.329  -0.523  0.00  0.00    -0.037 C 
ATOM     16  H7  <0> d           1.535   2.084  -1.523  0.00  0.00     0.035 H 
ATOM     17  H8  <0> d           0.890   3.380  -0.488  0.00  0.00     0.035 H 
ATOM     18  H9  <0> d           1.967   2.143   0.203  0.00  0.00     0.035 H 
ENDBRANCH   1  15
BRANCH   2  19
ATOM     19  C7  <0> d          -2.421   1.207   0.224  0.00  0.00    -0.019 C 
ATOM     20  H10 <0> d          -2.543   1.064   1.298  0.00  0.00     0.056 H 
ATOM     21  H11 <0> d          -3.308   1.693  -0.181  0.00  0.00     0.056 H 
ATOM     22  H12 <0> d          -2.285   0.239  -0.259  0.00  0.00     0.056 H 
ENDBRANCH   2  19
BRANCH   2  23
ATOM     23  C8  <0> d          -1.389   3.503  -0.096  0.00  0.00    -0.019 C 
ATOM     24  H13 <0> d          -1.489   3.809  -1.138  0.00  0.00     0.056 H 
ATOM     25  H14 <0> d          -2.276   3.808   0.459  0.00  0.00     0.056 H 
ATOM     26  H15 <0> d          -0.508   3.975   0.339  0.00  0.00     0.056 H 
ENDBRANCH   2  23
TORSDOF 8
