REMARK  3 active torsions:
REMARK  status: ('A' for Active; 'I' for Inactive)
REMARK    1  A    between atoms: C1_1  and  C2_2 
REMARK    2  A    between atoms: C2_2  and  C3_4 
REMARK    3  A    between atoms: C2_2  and  C9_10 
ROOT
ATOM      1  C3  <0> d           0.707  -0.490  -1.238  0.00  0.00    -0.049 A 
ATOM      2  C4  <0> d           2.026  -0.142  -1.464  0.00  0.00    -0.076 A 
ATOM      3  C5  <0> d           2.673  -0.587  -2.602  0.00  0.00    -0.082 A 
ATOM      4  C6  <0> d           2.002  -1.382  -3.512  0.00  0.00    -0.083 A 
ATOM      5  C7  <0> d           0.684  -1.731  -3.285  0.00  0.00    -0.082 A 
ATOM      6  C8  <0> d           0.038  -1.289  -2.146  0.00  0.00    -0.076 A 
ATOM      7  H5  <0> d           2.550   0.479  -0.753  0.00  0.00     0.084 H 
ATOM      8  H6  <0> d           3.703  -0.315  -2.779  0.00  0.00     0.083 H 
ATOM      9  H7  <0> d           2.507  -1.730  -4.401  0.00  0.00     0.083 H 
ATOM     10  H8  <0> d           0.159  -2.352  -3.997  0.00  0.00     0.083 H 
ATOM     11  H9  <0> d          -0.991  -1.565  -1.966  0.00  0.00     0.084 H 
ENDROOT
BRANCH   1  12
ATOM     12  C2  <0> d           0.002  -0.004   0.002  0.00  0.00     0.025 C 
ATOM     13  H1  <0> d          -1.020  -0.381   0.010  0.00  0.00     0.055 H 
BRANCH  12  14
ATOM     14  C1  <0> d          -0.019   1.526   0.010  0.00  0.00    -0.064 C 
ATOM     15  H2  <0> d           1.004   1.903   0.003  0.00  0.00     0.028 H 
ATOM     16  H3  <0> d          -0.546   1.887  -0.873  0.00  0.00     0.028 H 
ATOM     17  H4  <0> d          -0.529   1.877   0.907  0.00  0.00     0.028 H 
ENDBRANCH  12  14
BRANCH  12  18
ATOM     18  C9  <0> d           0.742  -0.511   1.242  0.00  0.00     0.215 C 
ATOM     19  F1  <0> d           0.087  -0.060   2.393  0.00  0.00    -0.214 F 
ATOM     20  F2  <0> d           0.761  -1.910   1.234  0.00  0.00    -0.214 F 
ATOM     21  H10 <0> d           1.765  -0.134   1.234  0.00  0.00     0.146 H 
ENDBRANCH  12  18
ENDBRANCH   1  12
TORSDOF 3
