REMARK  1 active torsions:
REMARK  status: ('A' for Active; 'I' for Inactive)
REMARK    1  A    between atoms: C3_3  and  C6_7 
ROOT
ATOM      1  C1  <0> d          -0.017   1.379   0.010  0.00  0.00    -0.065 A 
ATOM      2  C2  <0> d           1.181   2.072   0.002  0.00  0.00    -0.069 A 
ATOM      3  C3  <0> d           2.371   1.339  -0.013  0.00  0.00    -0.007 A 
ATOM      4  C4  <0> d           2.306  -0.052  -0.020  0.00  0.00     0.013 A 
ATOM      5  N1  <0> d           1.141  -0.668  -0.013  0.00  0.00    -0.272 NA
ATOM      6  C5  <0> d           0.002  -0.004   0.002  0.00  0.00     0.002 A 
ATOM      7  H1  <0> d          -0.956   1.912   0.026  0.00  0.00     0.085 H 
ATOM      8  H2  <0> d           1.196   3.152   0.007  0.00  0.00     0.085 H 
ATOM      9  H3  <0> d           3.217  -0.631  -0.032  0.00  0.00     0.116 H 
ATOM     10  H4  <0> d          -0.931  -0.548   0.008  0.00  0.00     0.114 H 
ENDROOT
BRANCH   3  11
ATOM     11  C6  <0> d           3.683   2.033  -0.023  0.00  0.00    -0.007 A 
ATOM     12  C10 <0> d           3.749   3.424  -0.016  0.00  0.00     0.013 A 
ATOM     13  N2  <0> d           4.913   4.040  -0.019  0.00  0.00    -0.272 NA
ATOM     14  H8  <0> d           2.837   4.003  -0.005  0.00  0.00     0.116 H 
ATOM     15  C9  <0> d           6.053   3.376  -0.038  0.00  0.00     0.002 A 
ATOM     16  C8  <0> d           6.071   1.993  -0.052  0.00  0.00    -0.065 A 
ATOM     17  H7  <0> d           6.985   3.920  -0.044  0.00  0.00     0.114 H 
ATOM     18  C7  <0> d           4.873   1.300  -0.044  0.00  0.00    -0.069 A 
ATOM     19  H6  <0> d           7.010   1.460  -0.068  0.00  0.00     0.085 H 
ATOM     20  H5  <0> d           4.858   0.220  -0.053  0.00  0.00     0.085 H 
ENDBRANCH   3  11
TORSDOF 1
