REMARK  2 active torsions:
REMARK  status: ('A' for Active; 'I' for Inactive)
REMARK    1  A    between atoms: C1_1  and  N1_2 
REMARK    2  A    between atoms: N1_2  and  N2_3 
ROOT
ATOM      1  N2  <0> d           0.002  -0.004   0.002  0.00  0.00    -0.261 N 
ATOM      2  C2  <0> d          -0.016   1.351   0.009  0.00  0.00     0.103 A 
ATOM      3  N3  <0> d           1.224   1.756  -0.000  0.00  0.00    -0.143 NA
ATOM      4  N4  <0> d           2.012   0.739  -0.013  0.00  0.00    -0.143 NA
ATOM      5  C3  <0> d           1.309  -0.361  -0.012  0.00  0.00     0.103 A 
ATOM      6  H5  <0> d          -0.895   1.979   0.017  0.00  0.00     0.148 H 
ATOM      7  H6  <0> d           1.698  -1.368  -0.022  0.00  0.00     0.148 H 
ENDROOT
BRANCH   1   8
ATOM      8  N1  <0> d          -1.078  -0.841   0.008  0.00  0.00    -0.236 NA
ATOM      9  H4  <0> d          -1.678  -0.650   0.796  0.00  0.00     0.146 HD
BRANCH   8  10
ATOM     10  C1  <0> d          -0.654  -2.247  -0.004  0.00  0.00    -0.018 C 
ATOM     11  H1  <0> d          -1.534  -2.891   0.001  0.00  0.00     0.050 H 
ATOM     12  H2  <0> d          -0.066  -2.442  -0.900  0.00  0.00     0.050 H 
ATOM     13  H3  <0> d          -0.049  -2.452   0.879  0.00  0.00     0.050 H 
ENDBRANCH   8  10
ENDBRANCH   1   8
TORSDOF 2
