REMARK  1 active torsions:
REMARK  status: ('A' for Active; 'I' for Inactive)
REMARK    1  A    between atoms: C4_5  and  O1_11 
ROOT
ATOM      1  C1  <0> d          -0.699   1.789  -1.220  0.00  0.00    -0.050 C 
ATOM      2  C2  <0> d          -0.013   1.086   0.008  0.00  0.00    -0.035 C 
ATOM      3  H1  <0> d           0.002  -0.004   0.002  0.00  0.00     0.046 H 
ATOM      4  C3  <0> d           1.378   1.797  -0.002  0.00  0.00    -0.034 C 
ATOM      5  C4  <0> d           1.045   3.248  -0.427  0.00  0.00     0.043 C 
ATOM      6  H2  <0> d           1.325   3.951   0.357  0.00  0.00     0.084 H 
ATOM      7  C5  <0> d          -0.505   3.229  -0.621  0.00  0.00    -0.013 C 
ATOM      8  H3  <0> d          -0.932   4.064  -1.176  0.00  0.00     0.050 H 
ATOM      9  C6  <0> d          -1.055   3.000   0.793  0.00  0.00    -0.100 C 
ATOM     10  C7  <0> d          -0.763   1.750   1.169  0.00  0.00    -0.102 C 
ATOM     11  H4  <0> d          -0.137   1.656  -2.145  0.00  0.00     0.035 H 
ATOM     12  H5  <0> d          -1.746   1.506  -1.331  0.00  0.00     0.035 H 
ATOM     13  H6  <0> d           1.823   1.782   0.994  0.00  0.00     0.037 H 
ATOM     14  H7  <0> d           2.043   1.328  -0.727  0.00  0.00     0.037 H 
ATOM     15  H8  <0> d          -1.584   3.728   1.390  0.00  0.00     0.077 H 
ATOM     16  H9  <0> d          -1.003   1.285   2.114  0.00  0.00     0.076 H 
ENDROOT
BRANCH   5  17
ATOM     17  O1  <0> d           1.704   3.576  -1.652  0.00  0.00    -0.395 OA
ATOM     18  H10 <0> d           2.668   3.538  -1.602  0.00  0.00     0.210 HD
ENDBRANCH   5  17
TORSDOF 1
