REMARK  6 active torsions:
REMARK  status: ('A' for Active; 'I' for Inactive)
REMARK    1  A    between atoms: C1_1  and  C2_2 
REMARK    2  A    between atoms: C2_2  and  C3_3 
REMARK    3  A    between atoms: C2_2  and  C4_4 
REMARK    4  A    between atoms: C4_4  and  C5_6 
REMARK    5  A    between atoms: C4_4  and  O1_9 
REMARK    6  A    between atoms: C5_6  and  C6_7 
ROOT
ATOM      1  C4  <0> d          -2.164   1.050   1.278  0.00  0.00     0.041 C 
ATOM      2  H1  <0> d          -2.149  -0.040   1.272  0.00  0.00     0.083 H 
ENDROOT
BRANCH   1   3
ATOM      3  C2  <0> d          -0.729   1.579   1.267  0.00  0.00    -0.036 C 
ATOM      4  H5  <0> d          -0.744   2.669   1.273  0.00  0.00     0.042 H 
BRANCH   3   5
ATOM      5  C1  <0> d          -0.013   1.086   0.008  0.00  0.00    -0.071 C 
ATOM      6  H2  <0> d           0.002  -0.004   0.002  0.00  0.00     0.028 H 
ATOM      7  H3  <0> d           1.010   1.463   0.000  0.00  0.00     0.028 H 
ATOM      8  H4  <0> d          -0.540   1.447  -0.875  0.00  0.00     0.028 H 
ENDBRANCH   3   5
BRANCH   3   9
ATOM      9  C3  <0> d           0.011   1.072   2.506  0.00  0.00    -0.071 C 
ATOM     10  H6  <0> d           1.034   1.450   2.499  0.00  0.00     0.028 H 
ATOM     11  H7  <0> d          -0.499   1.424   3.403  0.00  0.00     0.028 H 
ATOM     12  H8  <0> d           0.026  -0.018   2.500  0.00  0.00     0.028 H 
ENDBRANCH   3   9
ENDBRANCH   1   3
BRANCH   1  13
ATOM     13  C5  <0> d          -2.904   1.556   0.038  0.00  0.00    -0.026 C 
ATOM     14  H9  <0> d          -2.997   2.641   0.088  0.00  0.00     0.042 H 
ATOM     15  H10 <0> d          -2.346   1.281  -0.856  0.00  0.00     0.042 H 
BRANCH  13  16
ATOM     16  C6  <0> d          -4.277   0.937  -0.016  0.00  0.00    -0.110 C 
ATOM     17  C7  <0> d          -5.338   1.702  -0.097  0.00  0.00    -0.125 C 
ATOM     18  H12 <0> d          -6.322   1.258  -0.135  0.00  0.00     0.066 H 
ATOM     19  H13 <0> d          -5.228   2.776  -0.125  0.00  0.00     0.066 H 
ATOM     20  H11 <0> d          -4.386  -0.137   0.013  0.00  0.00     0.075 H 
ENDBRANCH  13  16
ENDBRANCH   1  13
BRANCH   1  21
ATOM     21  O1  <0> d          -2.833   1.510   2.453  0.00  0.00    -0.395 OA
ATOM     22  H14 <0> d          -2.884   2.474   2.525  0.00  0.00     0.210 HD
ENDBRANCH   1  21
TORSDOF 6
