REMARK  2 active torsions:
REMARK  status: ('A' for Active; 'I' for Inactive)
REMARK    1  A    between atoms: C1_1  and  C2_2 
REMARK    2  A    between atoms: C4_4  and  C7_8 
ROOT
ATOM      1  C2  <0> d          -0.718   1.572   1.248  0.00  0.00    -0.043 A 
ATOM      2  C3  <0> d          -0.005   1.808   2.410  0.00  0.00    -0.058 A 
ATOM      3  C4  <0> d          -0.704   2.260   3.537  0.00  0.00     0.058 A 
ATOM      4  C5  <0> d          -2.084   2.452   3.442  0.00  0.00     0.018 A 
ATOM      5  N1  <0> d          -2.717   2.213   2.313  0.00  0.00    -0.271 NA
ATOM      6  C6  <0> d          -2.084   1.792   1.234  0.00  0.00     0.007 A 
ATOM      7  H4  <0> d           1.062   1.648   2.448  0.00  0.00     0.086 H 
ATOM      8  H5  <0> d          -2.636   2.799   4.302  0.00  0.00     0.116 H 
ATOM      9  H6  <0> d          -2.641   1.612   0.327  0.00  0.00     0.115 H 
ENDROOT
BRANCH   1  10
ATOM     10  C1  <0> d          -0.013   1.086   0.008  0.00  0.00    -0.050 C 
ATOM     11  H1  <0> d           0.002  -0.004   0.002  0.00  0.00     0.033 H 
ATOM     12  H2  <0> d           1.010   1.463   0.000  0.00  0.00     0.033 H 
ATOM     13  H3  <0> d          -0.540   1.447  -0.875  0.00  0.00     0.033 H 
ENDBRANCH   1  10
BRANCH   3  14
ATOM     14  C7  <0> d           0.006   2.528   4.804  0.00  0.00     0.210 C 
ATOM     15  O1  <0> d           1.207   2.358   4.875  0.00  0.00    -0.644 OA
ATOM     16  O2  <0> d          -0.677   2.962   5.880  0.00  0.00    -0.644 OA
ENDBRANCH   3  14
TORSDOF 2
