REMARK  4 active torsions:
REMARK  status: ('A' for Active; 'I' for Inactive)
REMARK    1  A    between atoms: C1_1  and  C2_2 
REMARK    2  A    between atoms: C3_3  and  N3_10 
REMARK    3  A    between atoms: C4_4  and  C6_8 
REMARK    4  A    between atoms: N2_6  and  C5_7 
ROOT
ATOM      1  C2  <0> d           0.002  -0.004   0.002  0.00  0.00     0.055 A 
ATOM      2  C3  <0> d           1.307  -0.385  -0.013  0.00  0.00     0.087 A 
ATOM      3  C4  <0> d           2.053   0.822  -0.013  0.00  0.00     0.181 A 
ATOM      4  N1  <0> d           1.183   1.815   0.001  0.00  0.00    -0.163 NA
ATOM      5  N2  <0> d          -0.016   1.355   0.009  0.00  0.00    -0.276 N 
ENDROOT
BRANCH   1   6
ATOM      6  C1  <0> d          -1.198  -0.916   0.009  0.00  0.00    -0.034 C 
ATOM      7  H1  <0> d          -1.496  -1.131  -1.018  0.00  0.00     0.035 H 
ATOM      8  H2  <0> d          -0.944  -1.847   0.515  0.00  0.00     0.035 H 
ATOM      9  H3  <0> d          -2.021  -0.430   0.532  0.00  0.00     0.035 H 
ENDBRANCH   1   6
BRANCH   5  10
ATOM     10  C5  <0> d          -1.229   2.176   0.020  0.00  0.00     0.003 C 
ATOM     11  H4  <0> d          -1.525   2.374   1.050  0.00  0.00     0.059 H 
ATOM     12  H5  <0> d          -1.033   3.120  -0.490  0.00  0.00     0.059 H 
ATOM     13  H6  <0> d          -2.032   1.646  -0.493  0.00  0.00     0.059 H 
ENDBRANCH   5  10
BRANCH   2  14
ATOM     14  N3  <0> d           1.809  -1.694  -0.024  0.00  0.00    -0.395 N 
ATOM     15  H7  <0> d           1.199  -2.448  -0.021  0.00  0.00     0.156 HD
ATOM     16  H8  <0> d           2.767  -1.846  -0.034  0.00  0.00     0.156 HD
ENDBRANCH   2  14
BRANCH   3  17
ATOM     17  C6  <0> d           3.521   0.944  -0.026  0.00  0.00     0.233 C 
ATOM     18  O1  <0> d           4.214  -0.054  -0.038  0.00  0.00    -0.643 OA
ATOM     19  O2  <0> d           4.096   2.163  -0.025  0.00  0.00    -0.643 OA
ENDBRANCH   3  17
TORSDOF 4
