REMARK  0 active torsions:
REMARK  status: ('A' for Active; 'I' for Inactive)
ROOT
ATOM      1  C1  <0> d          -0.017   1.380   0.010  0.00  0.00    -0.040 A 
ATOM      2  C2  <0> d           1.170   2.088   0.002  0.00  0.00    -0.040 A 
ATOM      3  C3  <0> d           2.380   1.416  -0.013  0.00  0.00     0.158 A 
ATOM      4  C4  <0> d           2.401   0.029  -0.021  0.00  0.00     0.196 A 
ATOM      5  C5  <0> d           1.212  -0.681  -0.013  0.00  0.00     0.196 A 
ATOM      6  C6  <0> d           0.002  -0.004   0.002  0.00  0.00     0.158 A 
ATOM      7  F1  <0> d          -1.159  -0.695   0.010  0.00  0.00    -0.203 F 
ATOM      8  F2  <0> d           1.231  -2.032  -0.021  0.00  0.00    -0.199 F 
ATOM      9  F3  <0> d           3.581  -0.628  -0.036  0.00  0.00    -0.199 F 
ATOM     10  F4  <0> d           3.539   2.110  -0.021  0.00  0.00    -0.203 F 
ATOM     11  H1  <0> d          -0.959   1.906   0.026  0.00  0.00     0.088 H 
ATOM     12  H2  <0> d           1.154   3.168   0.008  0.00  0.00     0.088 H 
ENDROOT
TORSDOF 0
