REMARK  5 active torsions:
REMARK  status: ('A' for Active; 'I' for Inactive)
REMARK    1  A    between atoms: C1_1  and  O1_2 
REMARK    2  A    between atoms: O1_2  and  C2_3 
REMARK    3  A    between atoms: C2_3  and  C3_5 
REMARK    4  A    between atoms: C3_5  and  C4_6 
REMARK    5  A    between atoms: C4_6  and  C5_7 
ROOT
ATOM      1  C3  <0> d          -2.479   0.930   0.019  0.00  0.00     0.025 C 
ATOM      2  H4  <0> d          -2.417   0.309  -0.875  0.00  0.00     0.048 H 
ATOM      3  H5  <0> d          -2.408   0.299   0.905  0.00  0.00     0.048 H 
ENDROOT
BRANCH   1   4
ATOM      4  C2  <0> d          -3.794   1.665   0.029  0.00  0.00     0.258 C 
ATOM      5  O2  <0> d          -3.810   2.874   0.036  0.00  0.00    -0.265 OA
BRANCH   4   6
ATOM      6  O1  <0> d          -4.947   0.979   0.031  0.00  0.00    -0.326 OA
BRANCH   6   7
ATOM      7  C1  <0> d          -6.176   1.753   0.041  0.00  0.00     0.013 C 
ATOM      8  H1  <0> d          -6.205   2.376   0.934  0.00  0.00     0.067 H 
ATOM      9  H2  <0> d          -6.213   2.386  -0.846  0.00  0.00     0.067 H 
ATOM     10  H3  <0> d          -7.031   1.077   0.041  0.00  0.00     0.067 H 
ENDBRANCH   6   7
ENDBRANCH   4   6
ENDBRANCH   1   4
BRANCH   1  11
ATOM     11  C4  <0> d          -1.329   1.940   0.019  0.00  0.00     0.024 C 
ATOM     12  H6  <0> d          -1.391   2.561   0.913  0.00  0.00     0.049 H 
ATOM     13  H7  <0> d          -1.400   2.570  -0.867  0.00  0.00     0.049 H 
BRANCH  11  14
ATOM     14  C5  <0> d          -0.014   1.204   0.009  0.00  0.00     0.172 C 
ATOM     15  O3  <0> d           0.002  -0.004   0.002  0.00  0.00    -0.648 OA
ATOM     16  O4  <0> d           1.139   1.891   0.001  0.00  0.00    -0.648 OA
ENDBRANCH  11  14
ENDBRANCH   1  11
TORSDOF 5
