REMARK  5 active torsions:
REMARK  status: ('A' for Active; 'I' for Inactive)
REMARK    1  A    between atoms: C1_1  and  C2_2 
REMARK    2  A    between atoms: C6_6  and  C11_12 
REMARK    3  A    between atoms: C7_7  and  N1_8 
REMARK    4  A    between atoms: N1_8  and  C8_9 
REMARK    5  A    between atoms: C8_9  and  C9_10 
ROOT
ATOM      1  C9  <0> d          -0.626  -2.017   1.151  0.00  0.00    -0.103 C 
ATOM      2  C10 <0> d          -0.595  -3.190   1.117  0.00  0.00    -0.153 C 
ATOM      3  H10 <0> d          -0.567  -4.239   1.087  0.00  0.00     0.166 H 
ENDROOT
BRANCH   1   4
ATOM      4  C8  <0> d          -0.665  -0.546   1.193  0.00  0.00     0.035 C 
ATOM      5  H8  <0> d          -0.152  -0.195   2.088  0.00  0.00     0.075 H 
ATOM      6  H9  <0> d          -1.702  -0.211   1.213  0.00  0.00     0.075 H 
BRANCH   4   7
ATOM      7  N1  <0> d           0.002  -0.004   0.002  0.00  0.00    -0.281 NA
ATOM      8  H7  <0> d          -0.415  -0.367  -0.842  0.00  0.00     0.128 HD
BRANCH   7   9
ATOM      9  C7  <0> d          -0.017   1.393   0.010  0.00  0.00     0.021 A 
ATOM     10  C2  <0> d          -1.228   2.072   0.019  0.00  0.00    -0.040 A 
ATOM     11  C3  <0> d          -1.243   3.453   0.031  0.00  0.00    -0.075 A 
ATOM     12  C4  <0> d          -0.054   4.159   0.024  0.00  0.00    -0.082 A 
ATOM     13  H4  <0> d          -2.185   3.982   0.042  0.00  0.00     0.084 H 
ATOM     14  C5  <0> d           1.153   3.486   0.009  0.00  0.00    -0.075 A 
ATOM     15  H5  <0> d          -0.069   5.239   0.029  0.00  0.00     0.083 H 
ATOM     16  C6  <0> d           1.176   2.105   0.002  0.00  0.00    -0.040 A 
ATOM     17  H6  <0> d           2.080   4.040   0.004  0.00  0.00     0.084 H 
BRANCH  10  18
ATOM     18  C1  <0> d          -2.525   1.304   0.022  0.00  0.00    -0.050 C 
ATOM     19  H1  <0> d          -2.832   1.113   1.050  0.00  0.00     0.033 H 
ATOM     20  H2  <0> d          -3.293   1.886  -0.485  0.00  0.00     0.033 H 
ATOM     21  H3  <0> d          -2.386   0.355  -0.498  0.00  0.00     0.033 H 
ENDBRANCH  10  18
BRANCH  16  22
ATOM     22  C11 <0> d           2.492   1.372  -0.013  0.00  0.00    -0.050 C 
ATOM     23  H11 <0> d           2.800   1.200  -1.045  0.00  0.00     0.033 H 
ATOM     24  H12 <0> d           3.247   1.970   0.496  0.00  0.00     0.033 H 
ATOM     25  H13 <0> d           2.381   0.415   0.497  0.00  0.00     0.033 H 
ENDBRANCH  16  22
ENDBRANCH   7   9
ENDBRANCH   4   7
ENDBRANCH   1   4
TORSDOF 5
