REMARK  3 active torsions:
REMARK  status: ('A' for Active; 'I' for Inactive)
REMARK    1  A    between atoms: C1_1  and  C2_2 
REMARK    2  A    between atoms: C4_5  and  C10_14 
REMARK    3  A    between atoms: C6_7  and  C9_13 
ROOT
ATOM      1  C2  <0> d          -0.747   1.590  -1.236  0.00  0.00    -0.038 C 
ATOM      2  H1  <0> d          -0.603   2.666  -1.336  0.00  0.00     0.042 H 
ATOM      3  C3  <0> d          -0.013   1.086   0.008  0.00  0.00    -0.041 C 
ATOM      4  C4  <0> d          -0.710   1.567   1.247  0.00  0.00    -0.087 C 
ATOM      5  C5  <0> d          -1.919   2.020   1.272  0.00  0.00    -0.096 C 
ATOM      6  C6  <0> d          -2.797   2.136   0.060  0.00  0.00    -0.025 C 
ATOM      7  H2  <0> d          -3.803   1.799   0.309  0.00  0.00     0.047 H 
ATOM      8  C7  <0> d          -2.241   1.278  -1.078  0.00  0.00     0.040 C 
ATOM      9  H3  <0> d          -2.764   1.513  -2.004  0.00  0.00     0.064 H 
ATOM     10  C8  <0> d          -2.416  -0.148  -0.754  0.00  0.00     0.065 C 
ATOM     11  N1  <0> d          -2.552  -1.247  -0.504  0.00  0.00    -0.197 NA
ATOM     12  H7  <0> d           0.002  -0.004   0.002  0.00  0.00     0.040 H 
ATOM     13  H8  <0> d           1.011   1.461   0.000  0.00  0.00     0.040 H 
ATOM     14  H9  <0> d          -2.324   2.334   2.223  0.00  0.00     0.077 H 
ENDROOT
BRANCH   1  15
ATOM     15  C1  <0> d          -0.202   0.881  -2.478  0.00  0.00    -0.071 C 
ATOM     16  H4  <0> d          -0.354  -0.194  -2.378  0.00  0.00     0.028 H 
ATOM     17  H5  <0> d          -0.727   1.242  -3.362  0.00  0.00     0.028 H 
ATOM     18  H6  <0> d           0.863   1.090  -2.577  0.00  0.00     0.028 H 
ENDBRANCH   1  15
BRANCH   6  19
ATOM     19  C9  <0> d          -2.852   3.598  -0.388  0.00  0.00    -0.068 C 
ATOM     20  H10 <0> d          -3.499   3.687  -1.260  0.00  0.00     0.028 H 
ATOM     21  H11 <0> d          -3.248   4.211   0.422  0.00  0.00     0.028 H 
ATOM     22  H12 <0> d          -1.848   3.938  -0.643  0.00  0.00     0.028 H 
ENDBRANCH   6  19
BRANCH   4  23
ATOM     23  C10 <0> d           0.049   1.520   2.548  0.00  0.00    -0.055 C 
ATOM     24  H13 <0> d           0.584   2.458   2.691  0.00  0.00     0.033 H 
ATOM     25  H14 <0> d          -0.650   1.371   3.371  0.00  0.00     0.033 H 
ATOM     26  H15 <0> d           0.762   0.695   2.523  0.00  0.00     0.033 H 
ENDBRANCH   4  23
TORSDOF 3
