REMARK  3 active torsions:
REMARK  status: ('A' for Active; 'I' for Inactive)
REMARK    1  A    between atoms: C1_1  and  C2_2 
REMARK    2  A    between atoms: C2_2  and  C3_3 
REMARK    3  A    between atoms: C3_3  and  C4_5 
ROOT
ATOM      1  C3  <0> d          -0.014   1.210   0.009  0.00  0.00     0.182 C 
ATOM      2  O1  <0> d           0.002  -0.004   0.002  0.00  0.00    -0.290 OA
ENDROOT
BRANCH   1   3
ATOM      3  C2  <0> d           1.280   1.981   0.001  0.00  0.00    -0.006 C 
ATOM      4  H4  <0> d           1.318   2.561  -0.813  0.00  0.00     0.044 H 
ATOM      5  H5  <0> d           1.338   2.604   0.893  0.00  0.00     0.044 H 
BRANCH   3   6
ATOM      6  C1  <0> d           2.457   1.003  -0.016  0.00  0.00    -0.070 C 
ATOM      7  H1  <0> d           2.416   0.371   0.871  0.00  0.00     0.028 H 
ATOM      8  H2  <0> d           2.399   0.381  -0.909  0.00  0.00     0.028 H 
ATOM      9  H3  <0> d           3.393   1.561  -0.022  0.00  0.00     0.028 H 
ENDBRANCH   3   6
ENDBRANCH   1   3
BRANCH   1  10
ATOM     10  C4  <0> d          -1.248   1.900   0.018  0.00  0.00     0.120 A 
ATOM     11  O2  <0> d          -1.410   3.240   0.032  0.00  0.00    -0.319 OA
ATOM     12  C7  <0> d          -2.716   3.531   0.034  0.00  0.00     0.019 A 
ATOM     13  C6  <0> d          -3.425   2.379   0.031  0.00  0.00    -0.059 A 
ATOM     14  H8  <0> d          -3.137   4.526   0.042  0.00  0.00     0.123 H 
ATOM     15  C5  <0> d          -2.502   1.324   0.021  0.00  0.00    -0.045 A 
ATOM     16  H7  <0> d          -4.501   2.288   0.035  0.00  0.00     0.086 H 
ATOM     17  H6  <0> d          -2.728   0.268   0.016  0.00  0.00     0.088 H 
ENDBRANCH   1  10
TORSDOF 3
