REMARK  5 active torsions:
REMARK  status: ('A' for Active; 'I' for Inactive)
REMARK    1  A    between atoms: C1_1  and  C2_2 
REMARK    2  A    between atoms: C2_2  and  C3_3 
REMARK    3  A    between atoms: C2_2  and  C4_4 
REMARK    4  A    between atoms: C2_2  and  N1_5 
REMARK    5  A    between atoms: C5_6  and  N3_10 
ROOT
ATOM      1  C2  <0> d          -1.576   4.333   0.038  0.00  0.00     0.046 C 
ENDROOT
BRANCH   1   2
ATOM      2  C1  <0> d          -0.714   5.597   0.037  0.00  0.00    -0.052 C 
ATOM      3  H1  <0> d          -0.071   5.603   0.929  0.00  0.00     0.030 H 
ATOM      4  H2  <0> d          -1.363   6.484   0.047  0.00  0.00     0.030 H 
ATOM      5  H3  <0> d          -0.087   5.612  -0.867  0.00  0.00     0.030 H 
ENDBRANCH   1   2
BRANCH   1   6
ATOM      6  C3  <0> d          -2.471   4.325  -1.203  0.00  0.00    -0.052 C 
ATOM      7  H4  <0> d          -3.091   3.417  -1.203  0.00  0.00     0.030 H 
ATOM      8  H5  <0> d          -1.843   4.340  -2.107  0.00  0.00     0.030 H 
ATOM      9  H6  <0> d          -3.120   5.213  -1.193  0.00  0.00     0.030 H 
ENDBRANCH   1   6
BRANCH   1  10
ATOM     10  C4  <0> d          -2.449   4.312   1.295  0.00  0.00    -0.052 C 
ATOM     11  H7  <0> d          -3.069   3.404   1.296  0.00  0.00     0.030 H 
ATOM     12  H8  <0> d          -3.098   5.200   1.305  0.00  0.00     0.030 H 
ATOM     13  H9  <0> d          -1.806   4.318   2.188  0.00  0.00     0.030 H 
ENDBRANCH   1  10
BRANCH   1  14
ATOM     14  N1  <0> d          -0.711   3.151   0.024  0.00  0.00    -0.246 N 
ATOM     15  N2  <0> d           0.689   3.155   0.012  0.00  0.00    -0.182 NA
ATOM     16  C7  <0> d           1.106   1.915   0.002  0.00  0.00     0.025 A 
ATOM     17  C6  <0> d          -0.013   1.076   0.008  0.00  0.00    -0.021 A 
ATOM     18  H11 <0> d           2.137   1.594  -0.009  0.00  0.00     0.117 H 
ATOM     19  C5  <0> d          -1.124   1.863   0.017  0.00  0.00     0.119 A 
ATOM     20  H10 <0> d           0.002  -0.004   0.002  0.00  0.00     0.091 H 
BRANCH  19  21
ATOM     21  N3  <0> d          -2.444   1.422   0.021  0.00  0.00    -0.384 N 
ATOM     22  H12 <0> d          -2.664   0.344   0.013  0.00  0.00     0.157 HD
ATOM     23  H13 <0> d          -3.268   2.151   0.030  0.00  0.00     0.157 HD
ENDBRANCH  19  21
ENDBRANCH   1  14
TORSDOF 5
