REMARK  4 active torsions:
REMARK  status: ('A' for Active; 'I' for Inactive)
REMARK    1  A    between atoms: C1_1  and  C2_2 
REMARK    2  A    between atoms: C2_2  and  O1_3 
REMARK    3  A    between atoms: O1_3  and  C3_4 
REMARK    4  A    between atoms: C3_4  and  C4_6 
ROOT
ATOM      1  C3  <0> d           0.776  -1.798  -1.335  0.00  0.00     0.331 C 
ATOM      2  O2  <0> d           0.312  -2.548  -0.500  0.00  0.00    -0.256 OA
ENDROOT
BRANCH   1   3
ATOM      3  O1  <0> d           0.671  -0.465  -1.174  0.00  0.00    -0.316 OA
BRANCH   3   4
ATOM      4  C2  <0> d           0.002  -0.004   0.002  0.00  0.00     0.026 C 
ATOM      5  H4  <0> d           0.529  -0.365   0.885  0.00  0.00     0.074 H 
ATOM      6  H5  <0> d          -1.020  -0.381   0.010  0.00  0.00     0.074 H 
BRANCH   4   7
ATOM      7  C1  <0> d          -0.019   1.526   0.010  0.00  0.00    -0.056 C 
ATOM      8  H1  <0> d           1.004   1.903   0.003  0.00  0.00     0.030 H 
ATOM      9  H2  <0> d          -0.546   1.887  -0.873  0.00  0.00     0.030 H 
ATOM     10  H3  <0> d          -0.529   1.877   0.907  0.00  0.00     0.030 H 
ENDBRANCH   4   7
ENDBRANCH   3   4
ENDBRANCH   1   3
BRANCH   1  11
ATOM     11  C4  <0> d           1.458  -2.349  -2.532  0.00  0.00     0.225 A 
ATOM     12  N2  <0> d           1.552  -3.663  -2.674  0.00  0.00    -0.236 NA
ATOM     13  C7  <0> d           2.147  -4.188  -3.730  0.00  0.00     0.006 A 
ATOM     14  C6  <0> d           2.688  -3.344  -4.691  0.00  0.00    -0.049 A 
ATOM     15  H8  <0> d           2.217  -5.259  -3.843  0.00  0.00     0.114 H 
ATOM     16  C5  <0> d           2.576  -1.972  -4.507  0.00  0.00     0.006 A 
ATOM     17  H7  <0> d           3.184  -3.745  -5.563  0.00  0.00     0.087 H 
ATOM     18  N1  <0> d           1.962  -1.516  -3.430  0.00  0.00    -0.236 NA
ATOM     19  H6  <0> d           2.985  -1.288  -5.235  0.00  0.00     0.114 H 
ENDBRANCH   1  11
TORSDOF 4
