REMARK  9 active torsions:
REMARK  status: ('A' for Active; 'I' for Inactive)
REMARK    1  A    between atoms: C1_1  and  C2_2 
REMARK    2  A    between atoms: C2_2  and  O1_3 
REMARK    3  A    between atoms: O1_3  and  C3_4 
REMARK    4  A    between atoms: C3_4  and  C4_5 
REMARK    5  A    between atoms: C4_5  and  C5_6 
REMARK    6  A    between atoms: C5_6  and  C6_7 
REMARK    7  A    between atoms: C6_7  and  O2_8 
REMARK    8  A    between atoms: O2_8  and  C7_9 
REMARK    9  A    between atoms: C7_9  and  C8_10 
ROOT
ATOM      1  C4  <0> d           1.139   3.547   0.010  0.00  0.00    -0.043 C 
ATOM      2  H8  <0> d           0.585   3.866  -0.873  0.00  0.00     0.036 H 
ATOM      3  H9  <0> d           0.602   3.857   0.907  0.00  0.00     0.036 H 
ENDROOT
BRANCH   1   4
ATOM      4  C3  <0> d           1.280   2.024   0.001  0.00  0.00     0.019 C 
ATOM      5  H6  <0> d           1.834   1.705   0.884  0.00  0.00     0.074 H 
ATOM      6  H7  <0> d           1.817   1.714  -0.896  0.00  0.00     0.074 H 
BRANCH   4   7
ATOM      7  O1  <0> d          -0.017   1.425   0.010  0.00  0.00    -0.391 OA
BRANCH   7   8
ATOM      8  C2  <0> d           0.002  -0.004   0.002  0.00  0.00     0.016 C 
ATOM      9  H4  <0> d           0.512  -0.356  -0.895  0.00  0.00     0.073 H 
ATOM     10  H5  <0> d           0.529  -0.365   0.885  0.00  0.00     0.073 H 
BRANCH   8  11
ATOM     11  C1  <0> d          -1.433  -0.534   0.013  0.00  0.00    -0.056 C 
ATOM     12  H1  <0> d          -1.419  -1.623   0.007  0.00  0.00     0.030 H 
ATOM     13  H2  <0> d          -1.944  -0.182   0.910  0.00  0.00     0.030 H 
ATOM     14  H3  <0> d          -1.960  -0.173  -0.870  0.00  0.00     0.030 H 
ENDBRANCH   8  11
ENDBRANCH   7   8
ENDBRANCH   4   7
ENDBRANCH   1   4
BRANCH   1  15
ATOM     15  C5  <0> d           2.528   4.188   0.000  0.00  0.00    -0.043 C 
ATOM     16  H10 <0> d           3.081   3.869   0.883  0.00  0.00     0.036 H 
ATOM     17  H11 <0> d           3.064   3.879  -0.896  0.00  0.00     0.036 H 
BRANCH  15  18
ATOM     18  C6  <0> d           2.386   5.712   0.010  0.00  0.00     0.019 C 
ATOM     19  H12 <0> d           1.833   6.031  -0.873  0.00  0.00     0.074 H 
ATOM     20  H13 <0> d           1.849   6.021   0.907  0.00  0.00     0.074 H 
BRANCH  18  21
ATOM     21  O2  <0> d           3.684   6.311   0.001  0.00  0.00    -0.391 OA
BRANCH  21  22
ATOM     22  C7  <0> d           3.664   7.740   0.009  0.00  0.00     0.016 C 
ATOM     23  H14 <0> d           3.137   8.101  -0.874  0.00  0.00     0.073 H 
ATOM     24  H15 <0> d           3.154   8.091   0.905  0.00  0.00     0.073 H 
BRANCH  22  25
ATOM     25  C8  <0> d           5.100   8.269  -0.002  0.00  0.00    -0.056 C 
ATOM     26  H16 <0> d           5.610   7.918  -0.899  0.00  0.00     0.030 H 
ATOM     27  H17 <0> d           5.085   9.359   0.004  0.00  0.00     0.030 H 
ATOM     28  H18 <0> d           5.627   7.908   0.881  0.00  0.00     0.030 H 
ENDBRANCH  22  25
ENDBRANCH  21  22
ENDBRANCH  18  21
ENDBRANCH  15  18
ENDBRANCH   1  15
TORSDOF 9
