REMARK  4 active torsions:
REMARK  status: ('A' for Active; 'I' for Inactive)
REMARK    1  A    between atoms: C1_1  and  C2_2 
REMARK    2  A    between atoms: C2_2  and  C3_4 
REMARK    3  A    between atoms: C2_2  and  C9_10 
REMARK    4  A    between atoms: C3_4  and  C4_5 
ROOT
ATOM      1  C4  <0> d          -2.050  -0.348  -1.381  0.00  0.00    -0.053 C 
ATOM      2  C5  <0> d          -2.251   1.172  -1.551  0.00  0.00    -0.062 C 
ATOM      3  C6  <0> d          -3.611   1.296  -2.280  0.00  0.00    -0.065 C 
ATOM      4  C7  <0> d          -4.453   0.171  -1.628  0.00  0.00    -0.065 C 
ATOM      5  C8  <0> d          -3.451  -0.984  -1.430  0.00  0.00    -0.062 C 
ATOM      6  H7  <0> d          -1.435  -0.738  -2.191  0.00  0.00     0.040 H 
ATOM      7  H8  <0> d          -2.293   1.662  -0.578  0.00  0.00     0.033 H 
ATOM      8  H9  <0> d          -1.452   1.596  -2.159  0.00  0.00     0.033 H 
ATOM      9  H10 <0> d          -4.061   2.272  -2.095  0.00  0.00     0.033 H 
ATOM     10  H11 <0> d          -3.494   1.120  -3.349  0.00  0.00     0.033 H 
ATOM     11  H12 <0> d          -4.851   0.500  -0.668  0.00  0.00     0.033 H 
ATOM     12  H13 <0> d          -5.261  -0.135  -2.292  0.00  0.00     0.033 H 
ATOM     13  H14 <0> d          -3.515  -1.682  -2.265  0.00  0.00     0.033 H 
ATOM     14  H15 <0> d          -3.658  -1.502  -0.493  0.00  0.00     0.033 H 
ENDROOT
BRANCH   1  15
ATOM     15  C3  <0> d          -1.388  -0.642  -0.033  0.00  0.00    -0.050 C 
ATOM     16  H5  <0> d          -1.388  -1.717   0.145  0.00  0.00     0.034 H 
ATOM     17  H6  <0> d          -1.943  -0.142   0.761  0.00  0.00     0.034 H 
BRANCH  15  18
ATOM     18  C2  <0> d           0.053  -0.127  -0.050  0.00  0.00     0.027 C 
ATOM     19  H1  <0> d           0.060   0.922  -0.343  0.00  0.00     0.056 H 
BRANCH  18  20
ATOM     20  C1  <0> d           0.662  -0.272   1.346  0.00  0.00    -0.064 C 
ATOM     21  H2  <0> d           1.679   0.122   1.341  0.00  0.00     0.028 H 
ATOM     22  H3  <0> d           0.060   0.285   2.065  0.00  0.00     0.028 H 
ATOM     23  H4  <0> d           0.681  -1.325   1.627  0.00  0.00     0.028 H 
ENDBRANCH  18  20
BRANCH  18  24
ATOM     24  C9  <0> d           0.861  -0.930  -1.036  0.00  0.00     0.176 C 
ATOM     25  O1  <0> d           0.334  -1.830  -1.667  0.00  0.00    -0.648 OA
ATOM     26  O2  <0> d           2.042  -0.679  -1.203  0.00  0.00    -0.648 OA
ENDBRANCH  18  24
ENDBRANCH  15  18
ENDBRANCH   1  15
TORSDOF 4
