REMARK  1 active torsions:
REMARK  status: ('A' for Active; 'I' for Inactive)
REMARK    1  A    between atoms: C1_1  and  N1_2 
ROOT
ATOM      1  N1  <0> d          -1.127   2.239   0.019  0.00  0.00    -0.335 N 
ATOM      2  C2  <0> d          -0.694   3.516   0.027  0.00  0.00     0.068 A 
ATOM      3  N2  <0> d           0.610   3.539   0.015  0.00  0.00    -0.230 NA
ATOM      4  C3  <0> d           1.083   2.280   0.004  0.00  0.00     0.175 A 
ATOM      5  C4  <0> d          -0.017   1.428   0.010  0.00  0.00     0.156 A 
ATOM      6  C5  <0> d           0.002  -0.004   0.002  0.00  0.00     0.121 C 
ATOM      7  N3  <0> d           0.018  -1.140  -0.004  0.00  0.00    -0.190 NA
ATOM      8  C6  <0> d           2.460   1.889  -0.011  0.00  0.00     0.123 C 
ATOM      9  N4  <0> d           3.553   1.578  -0.023  0.00  0.00    -0.190 NA
ATOM     10  H4  <0> d          -1.330   4.388   0.037  0.00  0.00     0.143 H 
ENDROOT
BRANCH   1  11
ATOM     11  C1  <0> d          -2.523   1.798   0.022  0.00  0.00    -0.012 C 
ATOM     12  H1  <0> d          -2.866   1.683   1.050  0.00  0.00     0.057 H 
ATOM     13  H2  <0> d          -3.140   2.540  -0.485  0.00  0.00     0.057 H 
ATOM     14  H3  <0> d          -2.604   0.843  -0.497  0.00  0.00     0.057 H 
ENDBRANCH   1  11
TORSDOF 1
