REMARK  4 active torsions:
REMARK  status: ('A' for Active; 'I' for Inactive)
REMARK    1  A    between atoms: C2_2  and  N3_10 
REMARK    2  A    between atoms: C4_4  and  N2_9 
REMARK    3  A    between atoms: C5_5  and  O1_8 
REMARK    4  A    between atoms: C6_6  and  N1_7 
ROOT
ATOM      1  C1  <0> d          -0.013   1.076   0.008  0.00  0.00    -0.030 A 
ATOM      2  C2  <0> d           1.180   1.786   0.000  0.00  0.00     0.030 A 
ATOM      3  C3  <0> d           1.163   3.174   0.008  0.00  0.00    -0.030 A 
ATOM      4  C4  <0> d          -0.047   3.854   0.022  0.00  0.00     0.063 A 
ATOM      5  C5  <0> d          -1.243   3.144   0.029  0.00  0.00     0.118 A 
ATOM      6  C6  <0> d          -1.224   1.753   0.017  0.00  0.00     0.063 A 
ATOM      7  H1  <0> d           0.002  -0.004   0.002  0.00  0.00     0.090 H 
ATOM      8  H2  <0> d           2.092   3.725   0.002  0.00  0.00     0.090 H 
ENDROOT
BRANCH   2   9
ATOM      9  N3  <0> d           2.401   1.102  -0.015  0.00  0.00    -0.399 N 
ATOM     10  H8  <0> d           2.413   0.132  -0.019  0.00  0.00     0.156 HD
ATOM     11  H9  <0> d           3.234   1.598  -0.020  0.00  0.00     0.156 HD
ENDBRANCH   2   9
BRANCH   6  12
ATOM     12  N1  <0> d          -2.427   1.037   0.019  0.00  0.00    -0.397 N 
ATOM     13  H3  <0> d          -2.414   0.067   0.014  0.00  0.00     0.156 HD
ATOM     14  H4  <0> d          -3.273   1.510   0.026  0.00  0.00     0.156 HD
ENDBRANCH   6  12
BRANCH   4  15
ATOM     15  N2  <0> d          -0.064   5.253   0.029  0.00  0.00    -0.397 N 
ATOM     16  H6  <0> d           0.770   5.748   0.024  0.00  0.00     0.156 HD
ATOM     17  H7  <0> d          -0.909   5.728   0.039  0.00  0.00     0.156 HD
ENDBRANCH   4  15
BRANCH   5  18
ATOM     18  O1  <0> d          -2.431   3.810   0.044  0.00  0.00    -0.356 OA
ATOM     19  H5  <0> d          -2.782   4.007  -0.835  0.00  0.00     0.218 HD
ENDBRANCH   5  18
TORSDOF 4
