REMARK  3 active torsions:
REMARK  status: ('A' for Active; 'I' for Inactive)
REMARK    1  A    between atoms: C1_1  and  C2_2 
REMARK    2  A    between atoms: C3_3  and  C6_8 
REMARK    3  A    between atoms: C4_4  and  C5_7 
REMARK       I    between atoms: C6_8  and  N2_10 
ROOT
ATOM      1  C2  <0> d          -0.718   1.572   1.248  0.00  0.00     0.076 A 
ATOM      2  C3  <0> d          -0.117   1.870   2.557  0.00  0.00     0.089 A 
ATOM      3  C4  <0> d          -1.198   2.268   3.306  0.00  0.00     0.092 A 
ATOM      4  O1  <0> d          -2.260   2.195   2.501  0.00  0.00    -0.217 OA
ATOM      5  N1  <0> d          -1.986   1.822   1.387  0.00  0.00    -0.132 NA
ENDROOT
BRANCH   2   6
ATOM      6  C6  <0> d           1.296   1.768   2.965  0.00  0.00     0.254 C 
ATOM      7  O2  <0> d           2.037   2.723   2.833  0.00  0.00    -0.268 OA
ATOM      8  N2  <0> d           1.766   0.616   3.483  0.00  0.00    -0.366 N 
ATOM      9  H7  <0> d           1.174  -0.145   3.589  0.00  0.00     0.159 HD
ATOM     10  H8  <0> d           2.695   0.549   3.752  0.00  0.00     0.159 HD
ENDBRANCH   2   6
BRANCH   1  11
ATOM     11  C1  <0> d          -0.013   1.086   0.008  0.00  0.00    -0.032 C 
ATOM     12  H1  <0> d           0.002  -0.004   0.002  0.00  0.00     0.035 H 
ATOM     13  H2  <0> d           1.010   1.463   0.000  0.00  0.00     0.035 H 
ATOM     14  H3  <0> d          -0.540   1.447  -0.875  0.00  0.00     0.035 H 
ENDBRANCH   1  11
BRANCH   3  15
ATOM     15  C5  <0> d          -1.186   2.701   4.749  0.00  0.00    -0.028 C 
ATOM     16  H4  <0> d          -1.028   3.778   4.804  0.00  0.00     0.036 H 
ATOM     17  H5  <0> d          -2.141   2.450   5.212  0.00  0.00     0.036 H 
ATOM     18  H6  <0> d          -0.381   2.188   5.276  0.00  0.00     0.036 H 
ENDBRANCH   3  15
TORSDOF 3
