REMARK  4 active torsions:
REMARK  status: ('A' for Active; 'I' for Inactive)
REMARK    1  A    between atoms: C1_1  and  C2_2 
REMARK    2  A    between atoms: C2_2  and  O1_3 
REMARK    3  A    between atoms: O1_3  and  C3_4 
REMARK    4  A    between atoms: C3_4  and  C4_6 
ROOT
ATOM      1  C3  <0> d           0.002  -0.004   0.002  0.00  0.00     0.296 C 
ATOM      2  O2  <0> d           1.062  -0.597  -0.011  0.00  0.00    -0.259 OA
ENDROOT
BRANCH   1   3
ATOM      3  O1  <0> d          -0.016   1.343   0.009  0.00  0.00    -0.318 OA
BRANCH   3   4
ATOM      4  C2  <0> d           1.268   2.020   0.001  0.00  0.00     0.026 C 
ATOM      5  H4  <0> d           1.838   1.730   0.884  0.00  0.00     0.074 H 
ATOM      6  H5  <0> d           1.821   1.739  -0.896  0.00  0.00     0.074 H 
BRANCH   4   7
ATOM      7  C1  <0> d           1.047   3.534   0.011  0.00  0.00    -0.056 C 
ATOM      8  H1  <0> d           0.495   3.814   0.908  0.00  0.00     0.030 H 
ATOM      9  H2  <0> d           2.012   4.042   0.005  0.00  0.00     0.030 H 
ATOM     10  H3  <0> d           0.478   3.824  -0.872  0.00  0.00     0.030 H 
ENDBRANCH   4   7
ENDBRANCH   3   4
ENDBRANCH   1   3
BRANCH   1  11
ATOM     11  C4  <0> d          -1.267  -0.760   0.010  0.00  0.00     0.074 A 
ATOM     12  C7  <0> d          -1.271  -2.160   0.003  0.00  0.00     0.021 A 
ATOM     13  N2  <0> d          -2.429  -2.796   0.011  0.00  0.00    -0.253 NA
ATOM     14  H8  <0> d          -0.343  -2.711  -0.009  0.00  0.00     0.116 H 
ATOM     15  C6  <0> d          -3.568  -2.131   0.026  0.00  0.00     0.086 A 
ATOM     16  N1  <0> d          -3.610  -0.813   0.033  0.00  0.00    -0.253 NA
ATOM     17  H7  <0> d          -4.496  -2.683   0.032  0.00  0.00     0.146 H 
ATOM     18  C5  <0> d          -2.500  -0.097   0.031  0.00  0.00     0.021 A 
ATOM     19  H6  <0> d          -2.542   0.982   0.042  0.00  0.00     0.116 H 
ENDBRANCH   1  11
TORSDOF 4
