REMARK  2 active torsions:
REMARK  status: ('A' for Active; 'I' for Inactive)
REMARK    1  A    between atoms: C1_1  and  C2_2 
REMARK    2  A    between atoms: C2_2  and  C9_11 
ROOT
ATOM      1  C2  <0> d           0.002  -0.004   0.002  0.00  0.00     0.057 C 
ATOM      2  C3  <0> d          -1.443  -0.548   0.024  0.00  0.00    -0.032 C 
ATOM      3  C4  <0> d          -1.322  -1.772   0.974  0.00  0.00    -0.010 C 
ATOM      4  C5  <0> d          -0.242  -1.272   1.957  0.00  0.00     0.165 C 
ATOM      5  O1  <0> d           0.665  -0.488   1.178  0.00  0.00    -0.345 OA
ATOM      6  C6  <0> d           0.482  -2.471   2.591  0.00  0.00    -0.011 C 
ATOM      7  C7  <0> d           0.692  -1.988   4.053  0.00  0.00    -0.040 C 
ATOM      8  C8  <0> d          -0.585  -1.135   4.269  0.00  0.00     0.023 C 
ATOM      9  O2  <0> d          -0.833  -0.502   3.001  0.00  0.00    -0.355 OA
ATOM     10  H4  <0> d          -2.130   0.194   0.432  0.00  0.00     0.037 H 
ATOM     11  H5  <0> d          -1.755  -0.860  -0.973  0.00  0.00     0.037 H 
ATOM     12  H6  <0> d          -2.264  -1.964   1.489  0.00  0.00     0.041 H 
ATOM     13  H7  <0> d          -0.984  -2.656   0.435  0.00  0.00     0.041 H 
ATOM     14  H8  <0> d          -0.143  -3.363   2.562  0.00  0.00     0.041 H 
ATOM     15  H9  <0> d           1.439  -2.651   2.100  0.00  0.00     0.041 H 
ATOM     16  H10 <0> d           0.723  -2.830   4.744  0.00  0.00     0.036 H 
ATOM     17  H11 <0> d           1.591  -1.377   4.140  0.00  0.00     0.036 H 
ATOM     18  H12 <0> d          -1.424  -1.774   4.544  0.00  0.00     0.074 H 
ATOM     19  H13 <0> d          -0.412  -0.384   5.039  0.00  0.00     0.074 H 
ENDROOT
BRANCH   1  20
ATOM     20  C1  <0> d          -0.019   1.526   0.010  0.00  0.00    -0.048 C 
ATOM     21  H1  <0> d           1.004   1.903   0.003  0.00  0.00     0.031 H 
ATOM     22  H2  <0> d          -0.546   1.887  -0.873  0.00  0.00     0.031 H 
ATOM     23  H3  <0> d          -0.529   1.877   0.907  0.00  0.00     0.031 H 
ENDBRANCH   1  20
BRANCH   1  24
ATOM     24  C9  <0> d           0.729  -0.506  -1.247  0.00  0.00    -0.048 C 
ATOM     25  H14 <0> d           1.749  -0.122  -1.253  0.00  0.00     0.031 H 
ATOM     26  H15 <0> d           0.751  -1.596  -1.241  0.00  0.00     0.031 H 
ATOM     27  H16 <0> d           0.204  -0.159  -2.137  0.00  0.00     0.031 H 
ENDBRANCH   1  24
TORSDOF 2
