REMARK  0 active torsions:
REMARK  status: ('A' for Active; 'I' for Inactive)
ROOT
ATOM      1  C1  <0> d          -0.019   1.527   0.010  0.00  0.00     0.039 C 
ATOM      2  C2  <0> d           0.002  -0.004   0.002  0.00  0.00     0.039 C 
ATOM      3  O1  <0> d           0.788  -0.469   1.103  0.00  0.00    -0.387 OA
ATOM      4  C3  <0> d           2.133   0.019   1.093  0.00  0.00     0.039 C 
ATOM      5  C4  <0> d           2.112   1.550   1.102  0.00  0.00     0.039 C 
ATOM      6  O2  <0> d           1.326   2.015   0.000  0.00  0.00    -0.387 OA
ATOM      7  H1  <0> d          -0.544   1.889  -0.873  0.00  0.00     0.077 H 
ATOM      8  H2  <0> d          -0.527   1.880   0.908  0.00  0.00     0.077 H 
ATOM      9  H3  <0> d          -1.016  -0.383   0.095  0.00  0.00     0.077 H 
ATOM     10  H4  <0> d           0.438  -0.357  -0.932  0.00  0.00     0.077 H 
ATOM     11  H5  <0> d           2.659  -0.343   1.977  0.00  0.00     0.077 H 
ATOM     12  H6  <0> d           2.642  -0.334   0.196  0.00  0.00     0.077 H 
ATOM     13  H7  <0> d           1.675   1.903   2.036  0.00  0.00     0.077 H 
ATOM     14  H8  <0> d           3.130   1.929   1.009  0.00  0.00     0.077 H 
ENDROOT
TORSDOF 0
