REMARK  3 active torsions:
REMARK  status: ('A' for Active; 'I' for Inactive)
REMARK    1  A    between atoms: C2_2  and  O4_12 
REMARK    2  A    between atoms: C3_4  and  O3_11 
REMARK    3  A    between atoms: C5_8  and  O2_10 
ROOT
ATOM      1  C1  <0> d           1.145   3.086   0.008  0.00  0.00     0.007 C 
ATOM      2  C2  <0> d           2.539   3.720   0.059  0.00  0.00     0.066 C 
ATOM      3  H1  <0> d           3.094   3.453  -0.841  0.00  0.00     0.087 H 
ATOM      4  C3  <0> d           3.280   3.197   1.293  0.00  0.00     0.081 C 
ATOM      5  H2  <0> d           2.752   3.508   2.194  0.00  0.00     0.090 H 
ATOM      6  C4  <0> d           3.339   1.669   1.233  0.00  0.00     0.049 C 
ATOM      7  O1  <0> d           2.012   1.145   1.157  0.00  0.00    -0.359 OA
ATOM      8  C5  <0> d           1.286   1.562  -0.002  0.00  0.00     0.131 C 
ATOM      9  H3  <0> d           1.823   1.252  -0.898  0.00  0.00     0.128 H 
ATOM     10  H4  <0> d           0.630   3.410  -0.897  0.00  0.00     0.044 H 
ATOM     11  H5  <0> d           0.573   3.393   0.883  0.00  0.00     0.044 H 
ATOM     12  H6  <0> d           3.903   1.360   0.353  0.00  0.00     0.078 H 
ATOM     13  H7  <0> d           3.829   1.289   2.130  0.00  0.00     0.078 H 
ENDROOT
BRANCH   2  14
ATOM     14  O4  <0> d           2.415   5.141   0.140  0.00  0.00    -0.393 OA
ATOM     15  H10 <0> d           1.948   5.539  -0.608  0.00  0.00     0.210 HD
ENDBRANCH   2  14
BRANCH   4  16
ATOM     16  O3  <0> d           4.608   3.726   1.311  0.00  0.00    -0.391 OA
ATOM     17  H9  <0> d           5.136   3.436   2.067  0.00  0.00     0.210 HD
ENDBRANCH   4  16
BRANCH   8  18
ATOM     18  O2  <0> d          -0.011   0.963   0.007  0.00  0.00    -0.371 OA
ATOM     19  H8  <0> d           0.002  -0.004   0.002  0.00  0.00     0.212 HD
ENDBRANCH   8  18
TORSDOF 3
