REMARK  2 active torsions:
REMARK  status: ('A' for Active; 'I' for Inactive)
REMARK    1  A    between atoms: C1_1  and  C2_2 
REMARK    2  A    between atoms: C5_5  and  N2_8 
ROOT
ATOM      1  C2  <0> d          -3.618   2.944   0.035  0.00  0.00    -0.043 A 
ATOM      2  C3  <0> d          -2.452   3.699   0.034  0.00  0.00    -0.051 A 
ATOM      3  C4  <0> d          -1.237   3.037   0.030  0.00  0.00     0.080 A 
ATOM      4  C5  <0> d          -1.225   1.645   0.017  0.00  0.00     0.142 A 
ATOM      5  N1  <0> d          -2.358   0.962   0.018  0.00  0.00    -0.242 NA
ATOM      6  C6  <0> d          -3.531   1.567   0.027  0.00  0.00     0.010 A 
ATOM      7 Cl1  <0> d           0.252   3.930   0.036  0.00  0.00    -0.080 Cl
ATOM      8  H4  <0> d          -2.493   4.778   0.040  0.00  0.00     0.087 H 
ATOM      9  H5  <0> d          -4.436   0.977   0.028  0.00  0.00     0.115 H 
ENDROOT
BRANCH   1  10
ATOM     10  C1  <0> d          -4.963   3.623   0.045  0.00  0.00    -0.050 C 
ATOM     11  H1  <0> d          -4.824   4.714   0.050  0.00  0.00     0.033 H 
ATOM     12  H2  <0> d          -5.520   3.320   0.944  0.00  0.00     0.033 H 
ATOM     13  H3  <0> d          -5.528   3.329  -0.853  0.00  0.00     0.033 H 
ENDBRANCH   1  10
BRANCH   4  14
ATOM     14  N2  <0> d          -0.011   0.966   0.007  0.00  0.00    -0.383 N 
ATOM     15  H6  <0> d           0.004  -0.134  -0.003  0.00  0.00     0.157 HD
ATOM     16  H7  <0> d           0.934   1.529   0.011  0.00  0.00     0.157 HD
ENDBRANCH   4  14
TORSDOF 2
