REMARK  8 active torsions:
REMARK  status: ('A' for Active; 'I' for Inactive)
REMARK    1  A    between atoms: C1_1  and  C2_2 
REMARK    2  A    between atoms: C2_2  and  C3_3 
REMARK    3  A    between atoms: C3_3  and  C4_4 
REMARK    4  A    between atoms: C4_4  and  C5_6 
REMARK    5  A    between atoms: C4_4  and  C6_7 
REMARK    6  A    between atoms: C6_7  and  C7_9 
REMARK    7  A    between atoms: C6_7  and  O1_11 
REMARK    8  A    between atoms: C7_9  and  C8_10 
ROOT
ATOM      1  C4  <0> d           0.763  -2.041   1.233  0.00  0.00    -0.033 C 
ATOM      2  H1  <0> d          -0.257  -2.417   1.151  0.00  0.00     0.043 H 
ENDROOT
BRANCH   1   3
ATOM      3  C3  <0> d           0.742  -0.511   1.242  0.00  0.00    -0.060 C 
ATOM      4  H8  <0> d           1.765  -0.134   1.234  0.00  0.00     0.033 H 
ATOM      5  H9  <0> d           0.232  -0.159   2.138  0.00  0.00     0.033 H 
BRANCH   3   6
ATOM      6  C2  <0> d           0.002  -0.004   0.002  0.00  0.00    -0.068 C 
ATOM      7  H6  <0> d          -1.020  -0.381   0.010  0.00  0.00     0.032 H 
ATOM      8  H7  <0> d           0.512  -0.356  -0.895  0.00  0.00     0.032 H 
BRANCH   6   9
ATOM      9  C1  <0> d          -0.019   1.526   0.010  0.00  0.00    -0.077 C 
ATOM     10  H3  <0> d           1.004   1.903   0.003  0.00  0.00     0.027 H 
ATOM     11  H4  <0> d          -0.546   1.887  -0.873  0.00  0.00     0.027 H 
ATOM     12  H5  <0> d          -0.529   1.877   0.907  0.00  0.00     0.027 H 
ENDBRANCH   6   9
ENDBRANCH   3   6
ENDBRANCH   1   3
BRANCH   1  13
ATOM     13  C5  <0> d           1.586  -2.533   0.041  0.00  0.00    -0.071 C 
ATOM     14  H10 <0> d           2.605  -2.156   0.123  0.00  0.00     0.028 H 
ATOM     15  H11 <0> d           1.601  -3.623   0.035  0.00  0.00     0.028 H 
ATOM     16  H12 <0> d           1.138  -2.171  -0.884  0.00  0.00     0.028 H 
ENDBRANCH   1  13
BRANCH   1  17
ATOM     17  C6  <0> d           1.392  -2.549   2.532  0.00  0.00     0.038 C 
ATOM     18  H2  <0> d           2.411  -2.173   2.614  0.00  0.00     0.083 H 
BRANCH  17  19
ATOM     19  C7  <0> d           1.413  -4.079   2.523  0.00  0.00    -0.044 C 
ATOM     20  H13 <0> d           0.390  -4.457   2.531  0.00  0.00     0.036 H 
ATOM     21  H14 <0> d           1.923  -4.431   1.627  0.00  0.00     0.036 H 
BRANCH  19  22
ATOM     22  C8  <0> d           2.152  -4.586   3.763  0.00  0.00    -0.074 C 
ATOM     23  H15 <0> d           3.175  -4.209   3.755  0.00  0.00     0.027 H 
ATOM     24  H16 <0> d           1.642  -4.235   4.660  0.00  0.00     0.027 H 
ATOM     25  H17 <0> d           2.167  -5.676   3.757  0.00  0.00     0.027 H 
ENDBRANCH  19  22
ENDBRANCH  17  19
BRANCH  17  26
ATOM     26  O1  <0> d           0.623  -2.090   3.645  0.00  0.00    -0.395 OA
ATOM     27  H18 <0> d          -0.297  -2.387   3.638  0.00  0.00     0.210 HD
ENDBRANCH  17  26
ENDBRANCH   1  17
TORSDOF 8
