REMARK  1 active torsions:
REMARK  status: ('A' for Active; 'I' for Inactive)
REMARK    1  A    between atoms: C3_3  and  C6_8 
REMARK       I    between atoms: C6_8  and  N2_10 
ROOT
ATOM      1  C1  <0> d          -0.013   1.076   0.008  0.00  0.00    -0.065 A 
ATOM      2  C2  <0> d          -1.216   1.758   0.017  0.00  0.00    -0.063 A 
ATOM      3  C3  <0> d          -1.186   3.158   0.030  0.00  0.00     0.072 A 
ATOM      4  C4  <0> d           0.052   3.805   0.022  0.00  0.00     0.141 A 
ATOM      5  N1  <0> d           1.172   3.110   0.008  0.00  0.00    -0.248 NA
ATOM      6  C5  <0> d           1.172   1.790   0.001  0.00  0.00     0.004 A 
ATOM      7 Cl1  <0> d           0.117   5.540   0.031  0.00  0.00    -0.061 Cl
ATOM      8  H1  <0> d           0.002  -0.004   0.002  0.00  0.00     0.085 H 
ATOM      9  H2  <0> d          -2.155   1.225   0.019  0.00  0.00     0.085 H 
ATOM     10  H3  <0> d           2.112   1.260  -0.012  0.00  0.00     0.114 H 
ENDROOT
BRANCH   3  11
ATOM     11  C6  <0> d          -2.441   3.937   0.047  0.00  0.00     0.252 C 
ATOM     12  O1  <0> d          -2.403   5.152   0.053  0.00  0.00    -0.268 OA
ATOM     13  N2  <0> d          -3.629   3.300   0.055  0.00  0.00    -0.366 N 
ATOM     14  H4  <0> d          -3.660   2.331   0.050  0.00  0.00     0.159 HD
ATOM     15  H5  <0> d          -4.454   3.811   0.065  0.00  0.00     0.159 HD
ENDBRANCH   3  11
TORSDOF 1
