REMARK  2 active torsions:
REMARK  status: ('A' for Active; 'I' for Inactive)
REMARK    1  A    between atoms: C1_1  and  C2_2 
REMARK    2  A    between atoms: C2_2  and  C3_4 
ROOT
ATOM      1  C3  <0> d           1.102   3.192   0.009  0.00  0.00     0.027 A 
ATOM      2  C4  <0> d           1.171   1.790   0.001  0.00  0.00    -0.067 A 
ATOM      3  C5  <0> d          -0.013   1.076   0.008  0.00  0.00    -0.065 A 
ATOM      4  C6  <0> d          -1.216   1.758   0.017  0.00  0.00     0.002 A 
ATOM      5  N1  <0> d          -1.253   3.077   0.031  0.00  0.00    -0.272 NA
ATOM      6  C7  <0> d          -0.155   3.804   0.024  0.00  0.00     0.015 A 
ATOM      7  H4  <0> d           2.125   1.283  -0.012  0.00  0.00     0.085 H 
ATOM      8  H5  <0> d           0.002  -0.004   0.002  0.00  0.00     0.085 H 
ATOM      9  H6  <0> d          -2.142   1.202   0.018  0.00  0.00     0.114 H 
ATOM     10  H7  <0> d          -0.226   4.882   0.031  0.00  0.00     0.116 H 
ENDROOT
BRANCH   1  11
ATOM     11  C2  <0> d           2.330   4.003   0.002  0.00  0.00     0.157 C 
ATOM     12  O1  <0> d           3.414   3.460  -0.011  0.00  0.00    -0.293 OA
BRANCH  11  13
ATOM     13  C1  <0> d           2.240   5.507   0.011  0.00  0.00    -0.017 C 
ATOM     14  H1  <0> d           1.278   5.783   0.021  0.00  0.00     0.038 H 
ATOM     15  H2  <0> d           2.739   5.895   0.898  0.00  0.00     0.038 H 
ATOM     16  H3  <0> d           2.722   5.905  -0.881  0.00  0.00     0.038 H 
ENDBRANCH  11  13
ENDBRANCH   1  11
TORSDOF 2
