REMARK  4 active torsions:
REMARK  status: ('A' for Active; 'I' for Inactive)
REMARK    1  A    between atoms: C1_1  and  C2_2 
REMARK    2  A    between atoms: C2_2  and  O1_3 
REMARK    3  A    between atoms: O1_3  and  C3_4 
REMARK    4  A    between atoms: C3_4  and  C4_6 
ROOT
ATOM      1  O1  <0> d           0.671  -0.465  -1.174  0.00  0.00    -0.315 OA
ENDROOT
BRANCH   1   2
ATOM      2  C2  <0> d           0.002  -0.004   0.002  0.00  0.00     0.026 C 
ATOM      3  H4  <0> d           0.529  -0.365   0.885  0.00  0.00     0.074 H 
ATOM      4  H5  <0> d          -1.020  -0.381   0.010  0.00  0.00     0.074 H 
BRANCH   2   5
ATOM      5  C1  <0> d          -0.019   1.526   0.010  0.00  0.00    -0.056 C 
ATOM      6  H1  <0> d           1.004   1.903   0.003  0.00  0.00     0.030 H 
ATOM      7  H2  <0> d          -0.546   1.887  -0.873  0.00  0.00     0.030 H 
ATOM      8  H3  <0> d          -0.529   1.877   0.907  0.00  0.00     0.030 H 
ENDBRANCH   2   5
ENDBRANCH   1   2
BRANCH   1   9
ATOM      9  C3  <0> d           0.776  -1.799  -1.335  0.00  0.00     0.333 C 
ATOM     10  O2  <0> d           0.312  -2.550  -0.500  0.00  0.00    -0.256 OA
BRANCH   9  11
ATOM     11  C4  <0> d           1.454  -2.347  -2.526  0.00  0.00     0.248 A 
ATOM     12  N3  <0> d           1.629  -3.626  -2.811  0.00  0.00    -0.214 NA
ATOM     13  C5  <0> d           2.280  -3.688  -3.968  0.00  0.00     0.110 A 
ATOM     14  N2  <0> d           2.509  -2.467  -4.382  0.00  0.00    -0.141 NA
ATOM     15  H6  <0> d           2.574  -4.593  -4.479  0.00  0.00     0.149 H 
ATOM     16  N1  <0> d           2.019  -1.636  -3.528  0.00  0.00    -0.122 NA
ENDBRANCH   9  11
ENDBRANCH   1   9
TORSDOF 4
