REMARK  2 active torsions:
REMARK  status: ('A' for Active; 'I' for Inactive)
REMARK    1  A    between atoms: C1_1  and  C2_2 
REMARK    2  A    between atoms: C5_7  and  C6_8 
ROOT
ATOM      1  C2  <0> d           0.637   3.204   0.013  0.00  0.00    -0.027 A 
ATOM      2  C3  <0> d           1.079   1.878   0.002  0.00  0.00    -0.060 A 
ATOM      3  C4  <0> d          -0.013   1.076   0.008  0.00  0.00    -0.022 A 
ATOM      4  N1  <0> d          -1.122   1.845   0.017  0.00  0.00    -0.360 N 
ATOM      5  H1  <0> d          -2.035   1.519   0.019  0.00  0.00     0.165 HD
ATOM      6  C5  <0> d          -0.742   3.168   0.026  0.00  0.00     0.115 A 
ATOM      7  H5  <0> d           2.109   1.550  -0.010  0.00  0.00     0.086 H 
ATOM      8  H6  <0> d           0.002  -0.004   0.002  0.00  0.00     0.111 H 
ENDROOT
BRANCH   1   9
ATOM      9  C1  <0> d           1.503   4.438   0.012  0.00  0.00    -0.049 C 
ATOM     10  H2  <0> d           1.702   4.741  -1.016  0.00  0.00     0.033 H 
ATOM     11  H3  <0> d           0.987   5.243   0.536  0.00  0.00     0.033 H 
ATOM     12  H4  <0> d           2.445   4.221   0.516  0.00  0.00     0.033 H 
ENDBRANCH   1   9
BRANCH   6  13
ATOM     13  C6  <0> d          -1.639   4.327   0.041  0.00  0.00     0.227 C 
ATOM     14  O1  <0> d          -1.178   5.452   0.043  0.00  0.00    -0.643 OA
ATOM     15  O2  <0> d          -2.975   4.145   0.053  0.00  0.00    -0.643 OA
ENDBRANCH   6  13
TORSDOF 2
