REMARK  4 active torsions:
REMARK  status: ('A' for Active; 'I' for Inactive)
REMARK    1  A    between atoms: C1_1  and  C2_2 
REMARK    2  A    between atoms: C4_5  and  N3_10 
REMARK    3  A    between atoms: C5_6  and  O1_8 
REMARK    4  A    between atoms: O1_8  and  C6_9 
ROOT
ATOM      1  C2  <0> d           0.002  -0.004   0.002  0.00  0.00     0.124 A 
ATOM      2  N1  <0> d           0.005  -0.637  -1.153  0.00  0.00    -0.244 NA
ATOM      3  C3  <0> d           0.023  -1.960  -1.207  0.00  0.00     0.034 A 
ATOM      4  C4  <0> d           0.038  -2.684  -0.022  0.00  0.00     0.097 A 
ATOM      5  C5  <0> d           0.035  -1.976   1.185  0.00  0.00     0.194 A 
ATOM      6  N2  <0> d           0.022  -0.650   1.151  0.00  0.00    -0.208 NA
ATOM      7  H4  <0> d           0.025  -2.470  -2.159  0.00  0.00     0.118 H 
ENDROOT
BRANCH   5   8
ATOM      8  O1  <0> d           0.049  -2.635   2.370  0.00  0.00    -0.338 OA
BRANCH   8   9
ATOM      9  C6  <0> d           0.044  -1.838   3.556  0.00  0.00     0.012 C 
ATOM     10  H5  <0> d           0.925  -1.197   3.567  0.00  0.00     0.067 H 
ATOM     11  H6  <0> d          -0.855  -1.220   3.575  0.00  0.00     0.067 H 
ATOM     12  H7  <0> d           0.056  -2.488   4.431  0.00  0.00     0.067 H 
ENDBRANCH   8   9
ENDBRANCH   5   8
BRANCH   4  13
ATOM     13  N3  <0> d           0.057  -4.083  -0.035  0.00  0.00    -0.394 N 
ATOM     14  H8  <0> d           0.059  -4.561  -0.879  0.00  0.00     0.156 HD
ATOM     15  H9  <0> d           0.068  -4.576   0.801  0.00  0.00     0.156 HD
ENDBRANCH   4  13
BRANCH   1  16
ATOM     16  C1  <0> d          -0.018   1.503   0.010  0.00  0.00    -0.019 C 
ATOM     17  H1  <0> d           1.004   1.880   0.003  0.00  0.00     0.037 H 
ATOM     18  H2  <0> d          -0.545   1.864  -0.873  0.00  0.00     0.037 H 
ATOM     19  H3  <0> d          -0.529   1.854   0.907  0.00  0.00     0.037 H 
ENDBRANCH   1  16
TORSDOF 4
