REMARK  4 active torsions:
REMARK  status: ('A' for Active; 'I' for Inactive)
REMARK    1  A    between atoms: C1_1  and  C2_2 
REMARK    2  A    between atoms: C2_2  and  O1_3 
REMARK    3  A    between atoms: O1_3  and  C3_4 
REMARK    4  A    between atoms: C3_4  and  C4_5 
ROOT
ATOM      1  C4  <0> d          -0.753   1.593  -1.232  0.00  0.00     0.059 C 
ATOM      2  H1  <0> d          -0.860   2.676  -1.182  0.00  0.00     0.086 H 
ATOM      3  C5  <0> d           0.025   1.201  -2.503  0.00  0.00    -0.037 C 
ATOM      4  C6  <0> d          -0.982   0.352  -3.317  0.00  0.00    -0.043 C 
ATOM      5  C7  <0> d          -2.340   0.796  -2.717  0.00  0.00     0.020 C 
ATOM      6  O2  <0> d          -2.049   0.977  -1.313  0.00  0.00    -0.384 OA
ATOM      7  H9  <0> d           0.315   2.090  -3.062  0.00  0.00     0.036 H 
ATOM      8  H10 <0> d           0.903   0.608  -2.245  0.00  0.00     0.036 H 
ATOM      9  H11 <0> d          -0.927   0.596  -4.378  0.00  0.00     0.036 H 
ATOM     10  H12 <0> d          -0.814  -0.712  -3.154  0.00  0.00     0.036 H 
ATOM     11  H13 <0> d          -2.668   1.736  -3.163  0.00  0.00     0.074 H 
ATOM     12  H14 <0> d          -3.094   0.022  -2.860  0.00  0.00     0.074 H 
ENDROOT
BRANCH   1  13
ATOM     13  C3  <0> d          -0.013   1.086   0.008  0.00  0.00     0.043 C 
ATOM     14  H7  <0> d           0.002  -0.004   0.002  0.00  0.00     0.078 H 
ATOM     15  H8  <0> d           1.010   1.463   0.000  0.00  0.00     0.078 H 
BRANCH  13  16
ATOM     16  O1  <0> d          -0.682   1.547   1.184  0.00  0.00    -0.389 OA
BRANCH  16  17
ATOM     17  C2  <0> d          -0.068   1.127   2.404  0.00  0.00     0.016 C 
ATOM     18  H5  <0> d          -0.054   0.037   2.448  0.00  0.00     0.073 H 
ATOM     19  H6  <0> d           0.954   1.505   2.446  0.00  0.00     0.073 H 
BRANCH  17  20
ATOM     20  C1  <0> d          -0.864   1.675   3.590  0.00  0.00    -0.056 C 
ATOM     21  H2  <0> d          -0.877   2.764   3.546  0.00  0.00     0.030 H 
ATOM     22  H3  <0> d          -1.885   1.296   3.548  0.00  0.00     0.030 H 
ATOM     23  H4  <0> d          -0.396   1.354   4.521  0.00  0.00     0.030 H 
ENDBRANCH  17  20
ENDBRANCH  16  17
ENDBRANCH  13  16
ENDBRANCH   1  13
TORSDOF 4
