REMARK  3 active torsions:
REMARK  status: ('A' for Active; 'I' for Inactive)
REMARK    1  A    between atoms: C1_1  and  N1_2 
REMARK    2  A    between atoms: N1_2  and  C2_3 
REMARK    3  A    between atoms: N1_2  and  C3_4 
ROOT
ATOM      1  C3  <0> d           2.328   1.372  -0.013  0.00  0.00     0.704 A 
ATOM      2  N2  <0> d           1.158   2.067   0.002  0.00  0.00    -0.154 N 
ATOM      3  H1  <0> d           1.172   3.167   0.008  0.00  0.00     0.187 HD
ATOM      4  C4  <0> d          -0.017   1.402   0.010  0.00  0.00     0.260 A 
ATOM      5  O1  <0> d          -1.075   2.009   0.018  0.00  0.00    -0.268 OA
ATOM      6  C5  <0> d           0.002  -0.004   0.002  0.00  0.00     0.001 A 
ATOM      7  C6  <0> d           1.206  -0.647  -0.013  0.00  0.00     0.026 A 
ATOM      8  N3  <0> d           2.337   0.054  -0.020  0.00  0.00    -0.077 NA
ATOM      9  H8  <0> d          -0.920  -0.566   0.007  0.00  0.00     0.094 H 
ATOM     10  H9  <0> d           1.240  -1.727  -0.019  0.00  0.00     0.116 H 
ENDROOT
BRANCH   1  11
ATOM     11  N1  <0> d           3.515   2.053  -0.021  0.00  0.00    -0.225 N 
BRANCH  11  12
ATOM     12  C1  <0> d           4.782   1.317  -0.036  0.00  0.00    -0.003 C 
ATOM     13  H2  <0> d           4.578   0.237  -0.040  0.00  0.00     0.057 H 
ATOM     14  H3  <0> d           5.367   1.577   0.858  0.00  0.00     0.057 H 
ATOM     15  H4  <0> d           5.351   1.587  -0.939  0.00  0.00     0.057 H 
ENDBRANCH  11  12
BRANCH  11  16
ATOM     16  C2  <0> d           3.519   3.518  -0.013  0.00  0.00    -0.003 C 
ATOM     17  H5  <0> d           2.483   3.888  -0.001  0.00  0.00     0.057 H 
ATOM     18  H6  <0> d           4.030   3.888  -0.914  0.00  0.00     0.057 H 
ATOM     19  H7  <0> d           4.047   3.879   0.883  0.00  0.00     0.057 H 
ENDBRANCH  11  16
ENDBRANCH   1  11
TORSDOF 3
