REMARK  6 active torsions:
REMARK  status: ('A' for Active; 'I' for Inactive)
REMARK    1  A    between atoms: C1_1  and  C2_2 
REMARK    2  A    between atoms: C2_2  and  C3_3 
REMARK    3  A    between atoms: C2_2  and  C4_4 
REMARK    4  A    between atoms: C4_4  and  C5_6 
REMARK    5  A    between atoms: C4_4  and  O1_10 
REMARK    6  A    between atoms: C5_6  and  C8_9 
ROOT
ATOM      1  C4  <0> d           0.011   1.072   2.506  0.00  0.00     0.045 C 
ATOM      2  H1  <0> d           0.104  -0.013   2.456  0.00  0.00     0.084 H 
ENDROOT
BRANCH   1   3
ATOM      3  C2  <0> d          -0.729   1.579   1.267  0.00  0.00    -0.035 C 
ATOM      4  H5  <0> d          -1.751   1.202   1.275  0.00  0.00     0.042 H 
BRANCH   3   5
ATOM      5  C1  <0> d          -0.013   1.086   0.008  0.00  0.00    -0.071 C 
ATOM      6  H2  <0> d           0.002  -0.004   0.002  0.00  0.00     0.028 H 
ATOM      7  H3  <0> d           1.010   1.463   0.000  0.00  0.00     0.028 H 
ATOM      8  H4  <0> d          -0.540   1.447  -0.875  0.00  0.00     0.028 H 
ENDBRANCH   3   5
BRANCH   3   9
ATOM      9  C3  <0> d          -0.750   3.109   1.275  0.00  0.00    -0.071 C 
ATOM     10  H6  <0> d          -1.277   3.470   0.392  0.00  0.00     0.028 H 
ATOM     11  H7  <0> d          -1.260   3.461   2.172  0.00  0.00     0.028 H 
ATOM     12  H8  <0> d           0.273   3.486   1.268  0.00  0.00     0.028 H 
ENDBRANCH   3   9
ENDBRANCH   1   3
BRANCH   1  13
ATOM     13  C5  <0> d          -0.772   1.460   3.762  0.00  0.00    -0.018 A 
ATOM     14  C7  <0> d          -0.192   1.040   5.114  0.00  0.00    -0.055 A 
ATOM     15  C6  <0> d          -0.152   2.509   4.687  0.00  0.00    -0.055 A 
ATOM     16  H11 <0> d          -0.896   0.764   5.900  0.00  0.00     0.034 H 
ATOM     17  H12 <0> d           0.747   0.488   5.109  0.00  0.00     0.034 H 
ATOM     18  H9  <0> d           0.815   2.923   4.401  0.00  0.00     0.034 H 
ATOM     19  H10 <0> d          -0.828   3.199   5.191  0.00  0.00     0.034 H 
BRANCH  13  20
ATOM     20  C8  <0> d          -2.296   1.459   3.616  0.00  0.00    -0.067 C 
ATOM     21  H13 <0> d          -2.633   0.460   3.339  0.00  0.00     0.028 H 
ATOM     22  H14 <0> d          -2.752   1.747   4.563  0.00  0.00     0.028 H 
ATOM     23  H15 <0> d          -2.587   2.168   2.841  0.00  0.00     0.028 H 
ENDBRANCH  13  20
ENDBRANCH   1  13
BRANCH   1  24
ATOM     24  O1  <0> d           1.313   1.660   2.557  0.00  0.00    -0.394 OA
ATOM     25  H16 <0> d           1.307   2.626   2.603  0.00  0.00     0.210 HD
ENDBRANCH   1  24
TORSDOF 6
