REMARK  4 active torsions:
REMARK  status: ('A' for Active; 'I' for Inactive)
REMARK    1  A    between atoms: C1_1  and  C2_2 
REMARK    2  A    between atoms: C2_2  and  C3_3 
REMARK    3  A    between atoms: C2_2  and  C4_4 
REMARK    4  A    between atoms: C4_4  and  C6_8 
ROOT
ATOM      1  C4  <0> d          -0.729   1.579   1.267  0.00  0.00     0.058 C 
ATOM      2  H1  <0> d          -0.744   2.669   1.273  0.00  0.00     0.070 H 
ATOM      3  C5  <0> d          -0.017   1.092   2.459  0.00  0.00     0.069 C 
ATOM      4  N1  <0> d           0.532   0.715   3.380  0.00  0.00    -0.197 NA
ENDROOT
BRANCH   1   5
ATOM      5  C2  <0> d          -0.013   1.086   0.008  0.00  0.00    -0.042 C 
ATOM      6  H5  <0> d           0.002  -0.004   0.002  0.00  0.00     0.041 H 
BRANCH   5   7
ATOM      7  C1  <0> d           1.423   1.615  -0.003  0.00  0.00    -0.072 C 
ATOM      8  H2  <0> d           1.408   2.705   0.003  0.00  0.00     0.028 H 
ATOM      9  H3  <0> d           1.950   1.254   0.880  0.00  0.00     0.028 H 
ATOM     10  H4  <0> d           1.933   1.264  -0.900  0.00  0.00     0.028 H 
ENDBRANCH   5   7
BRANCH   5  11
ATOM     11  C3  <0> d          -0.753   1.593  -1.232  0.00  0.00    -0.072 C 
ATOM     12  H6  <0> d          -0.242   1.241  -2.128  0.00  0.00     0.028 H 
ATOM     13  H7  <0> d          -1.775   1.215  -1.224  0.00  0.00     0.028 H 
ATOM     14  H8  <0> d          -0.767   2.683  -1.226  0.00  0.00     0.028 H 
ENDBRANCH   5  11
ENDBRANCH   1   5
BRANCH   1  15
ATOM     15  C6  <0> d          -2.143   1.058   1.278  0.00  0.00    -0.040 A 
ATOM     16  C11 <0> d          -3.205   1.942   1.292  0.00  0.00    -0.075 A 
ATOM     17  C10 <0> d          -4.502   1.463   1.302  0.00  0.00    -0.082 A 
ATOM     18  H13 <0> d          -3.022   3.006   1.297  0.00  0.00     0.084 H 
ATOM     19  C9  <0> d          -4.736   0.101   1.297  0.00  0.00    -0.083 A 
ATOM     20  H12 <0> d          -5.332   2.154   1.315  0.00  0.00     0.083 H 
ATOM     21  C8  <0> d          -3.674  -0.783   1.281  0.00  0.00    -0.082 A 
ATOM     22  H11 <0> d          -5.750  -0.273   1.305  0.00  0.00     0.083 H 
ATOM     23  C7  <0> d          -2.377  -0.305   1.267  0.00  0.00    -0.075 A 
ATOM     24  H10 <0> d          -3.857  -1.848   1.277  0.00  0.00     0.083 H 
ATOM     25  H9  <0> d          -1.547  -0.995   1.251  0.00  0.00     0.084 H 
ENDBRANCH   1  15
TORSDOF 4
