REMARK  1 active torsions:
REMARK  status: ('A' for Active; 'I' for Inactive)
REMARK    1  A    between atoms: C1_1  and  C2_2 
ROOT
ATOM      1  C2  <0> d           0.002  -0.004   0.002  0.00  0.00     0.121 A 
ATOM      2  N1  <0> d          -0.006  -0.639  -1.153  0.00  0.00    -0.246 NA
ATOM      3  C3  <0> d           0.017  -1.962  -1.199  0.00  0.00     0.005 A 
ATOM      4  C4  <0> d           0.037  -2.678  -0.013  0.00  0.00    -0.049 A 
ATOM      5  C5  <0> d           0.040  -1.974   1.182  0.00  0.00     0.005 A 
ATOM      6  N2  <0> d           0.022  -0.652   1.150  0.00  0.00    -0.246 NA
ATOM      7  H4  <0> d           0.014  -2.476  -2.149  0.00  0.00     0.114 H 
ATOM      8  H5  <0> d           0.052  -3.757  -0.019  0.00  0.00     0.087 H 
ATOM      9  H6  <0> d           0.056  -2.499   2.126  0.00  0.00     0.114 H 
ENDROOT
BRANCH   1  10
ATOM     10  C1  <0> d          -0.018   1.503   0.010  0.00  0.00    -0.020 C 
ATOM     11  H1  <0> d           1.004   1.880   0.003  0.00  0.00     0.037 H 
ATOM     12  H2  <0> d          -0.545   1.864  -0.873  0.00  0.00     0.037 H 
ATOM     13  H3  <0> d          -0.529   1.854   0.907  0.00  0.00     0.037 H 
ENDBRANCH   1  10
TORSDOF 1
