REMARK  1 active torsions:
REMARK  status: ('A' for Active; 'I' for Inactive)
REMARK    1  A    between atoms: C1_1  and  C2_2 
ROOT
ATOM      1  C2  <0> d          -0.359  -2.183  -0.006  0.00  0.00     0.102 A 
ATOM      2  N1  <0> d          -0.979  -0.972   0.006  0.00  0.00    -0.328 N 
ATOM      3  H1  <0> d          -1.967  -0.813   0.017  0.00  0.00     0.169 HD
ATOM      4  C3  <0> d           0.002  -0.004   0.002  0.00  0.00     0.157 A 
ATOM      5  C4  <0> d           1.225  -0.699  -0.013  0.00  0.00     0.104 A 
ATOM      6  N2  <0> d           0.933  -2.023  -0.018  0.00  0.00    -0.232 NA
ATOM      7  C5  <0> d           2.418   0.030  -0.021  0.00  0.00    -0.050 A 
ATOM      8  C6  <0> d           2.339   1.410  -0.012  0.00  0.00    -0.064 A 
ATOM      9  C7  <0> d           1.097   2.024   0.003  0.00  0.00     0.005 A 
ATOM     10  N3  <0> d          -0.016   1.319   0.009  0.00  0.00    -0.241 NA
ATOM     11  H5  <0> d           3.375  -0.471  -0.032  0.00  0.00     0.087 H 
ATOM     12  H6  <0> d           3.240   2.006  -0.017  0.00  0.00     0.085 H 
ATOM     13  H7  <0> d           1.040   3.102   0.009  0.00  0.00     0.114 H 
ENDROOT
BRANCH   1  14
ATOM     14  C1  <0> d          -1.064  -3.515  -0.006  0.00  0.00    -0.021 C 
ATOM     15  H2  <0> d          -1.244  -3.831  -1.033  0.00  0.00     0.037 H 
ATOM     16  H3  <0> d          -0.442  -4.255   0.498  0.00  0.00     0.037 H 
ATOM     17  H4  <0> d          -2.015  -3.422   0.518  0.00  0.00     0.037 H 
ENDBRANCH   1  14
TORSDOF 1
