REMARK  3 active torsions:
REMARK  status: ('A' for Active; 'I' for Inactive)
REMARK    1  A    between atoms: C1_1  and  C2_2 
REMARK    2  A    between atoms: C2_2  and  N1_3 
REMARK    3  A    between atoms: N1_3  and  C3_4 
ROOT
ATOM      1  N1  <0> d           0.002  -0.004   0.002  0.00  0.00    -0.368 N 
ATOM      2  H6  <0> d          -0.831  -0.500   0.007  0.00  0.00     0.161 HD
ENDROOT
BRANCH   1   3
ATOM      3  C2  <0> d           1.281  -0.719  -0.013  0.00  0.00    -0.009 C 
ATOM      4  H4  <0> d           1.840  -0.443  -0.907  0.00  0.00     0.063 H 
ATOM      5  H5  <0> d           1.857  -0.453   0.873  0.00  0.00     0.063 H 
BRANCH   3   6
ATOM      6  C1  <0> d           1.021  -2.227  -0.019  0.00  0.00    -0.061 C 
ATOM      7  H1  <0> d           1.973  -2.759  -0.031  0.00  0.00     0.029 H 
ATOM      8  H2  <0> d           0.462  -2.503   0.874  0.00  0.00     0.029 H 
ATOM      9  H3  <0> d           0.445  -2.493  -0.905  0.00  0.00     0.029 H 
ENDBRANCH   3   6
ENDBRANCH   1   3
BRANCH   1  10
ATOM     10  C3  <0> d          -0.017   1.383   0.010  0.00  0.00     0.189 A 
ATOM     11  S1  <0> d          -1.403   2.516   0.021  0.00  0.00    -0.042 SA
ATOM     12  C4  <0> d          -0.422   4.014   0.028  0.00  0.00     0.065 A 
ATOM     13  N3  <0> d           0.789   3.496   0.013  0.00  0.00    -0.153 NA
ATOM     14  H7  <0> d          -0.734   5.048   0.036  0.00  0.00     0.129 H 
ATOM     15  N2  <0> d           0.987   2.250   0.005  0.00  0.00    -0.124 NA
ENDBRANCH   1  10
TORSDOF 3
