REMARK  1 active torsions:
REMARK  status: ('A' for Active; 'I' for Inactive)
REMARK    1  A    between atoms: C3_3  and  N2_10 
ROOT
ATOM      1  C1  <0> d           0.002  -0.004   0.002  0.00  0.00    -0.079 A 
ATOM      2  C2  <0> d           1.202  -0.687  -0.013  0.00  0.00    -0.056 A 
ATOM      3  C3  <0> d           2.401   0.011  -0.021  0.00  0.00     0.048 A 
ATOM      4  C4  <0> d           2.388   1.416  -0.014  0.00  0.00     0.092 A 
ATOM      5  C5  <0> d           1.165   2.094   0.002  0.00  0.00     0.057 A 
ATOM      6  C6  <0> d          -0.017   1.381   0.010  0.00  0.00    -0.060 A 
ATOM      7 Cl1  <0> d           1.133   3.829   0.011  0.00  0.00    -0.083 Cl
ATOM      8  C7  <0> d           3.618   2.148  -0.021  0.00  0.00     0.103 C 
ATOM      9  N1  <0> d           4.594   2.730  -0.028  0.00  0.00    -0.191 NA
ATOM     10  H1  <0> d          -0.928  -0.553   0.008  0.00  0.00     0.083 H 
ATOM     11  H2  <0> d           1.207  -1.767  -0.018  0.00  0.00     0.087 H 
ATOM     12  H3  <0> d          -0.961   1.905   0.017  0.00  0.00     0.086 H 
ENDROOT
BRANCH   3  13
ATOM     13  N2  <0> d           3.610  -0.675  -0.035  0.00  0.00    -0.398 N 
ATOM     14  H4  <0> d           3.617  -1.645  -0.040  0.00  0.00     0.156 HD
ATOM     15  H5  <0> d           4.447  -0.184  -0.041  0.00  0.00     0.156 HD
ENDBRANCH   3  13
TORSDOF 1
