REMARK  5 active torsions:
REMARK  status: ('A' for Active; 'I' for Inactive)
REMARK    1  A    between atoms: C1_1  and  C2_2 
REMARK    2  A    between atoms: C2_2  and  C8_11 
REMARK    3  A    between atoms: C4_5  and  N1_8 
REMARK    4  A    between atoms: N1_8  and  C6_9 
REMARK    5  A    between atoms: N1_8  and  C7_10 
ROOT
ATOM      1  C2  <0> d          -3.336  -2.141   1.295  0.00  0.00    -0.004 C 
ATOM      2  C3  <0> d          -2.589  -2.607   0.040  0.00  0.00     0.033 C 
ATOM      3  O1  <0> d          -1.304  -1.978   0.004  0.00  0.00    -0.336 OA
ATOM      4  C4  <0> d          -1.362  -0.549   0.012  0.00  0.00     0.324 C 
ATOM      5  O2  <0> d          -2.043  -0.106   1.188  0.00  0.00    -0.336 OA
ATOM      6  C5  <0> d          -3.378  -0.609   1.305  0.00  0.00     0.033 C 
ATOM      7  H4  <0> d          -2.467  -3.700   0.071  0.00  0.00     0.075 H 
ATOM      8  H5  <0> d          -3.165  -2.328  -0.854  0.00  0.00     0.075 H 
ATOM      9  H6  <0> d          -1.926  -0.213  -0.870  0.00  0.00     0.182 H 
ATOM     10  H7  <0> d          -3.984  -0.253   0.459  0.00  0.00     0.075 H 
ATOM     11  H8  <0> d          -3.825  -0.260   2.248  0.00  0.00     0.075 H 
ENDROOT
BRANCH   4  12
ATOM     12  N1  <0> d           0.002  -0.004   0.002  0.00  0.00     0.135 N 
BRANCH  12  13
ATOM     13  C6  <0> d          -0.018   1.465   0.010  0.00  0.00     0.101 C 
ATOM     14  H9  <0> d           1.014   1.845   0.002  0.00  0.00     0.072 H 
ATOM     15  H10 <0> d          -0.533   1.819   0.915  0.00  0.00     0.072 H 
ATOM     16  H11 <0> d          -0.550   1.829  -0.881  0.00  0.00     0.072 H 
ENDBRANCH  12  13
BRANCH  12  17
ATOM     17  C7  <0> d           0.786  -0.526   1.129  0.00  0.00     0.101 C 
ATOM     18  H12 <0> d           1.801  -0.103   1.098  0.00  0.00     0.072 H 
ATOM     19  H13 <0> d           0.844  -1.622   1.060  0.00  0.00     0.072 H 
ATOM     20  H14 <0> d           0.300  -0.244   2.075  0.00  0.00     0.072 H 
ENDBRANCH  12  17
ENDBRANCH   4  12
BRANCH   1  21
ATOM     21  C1  <0> d          -4.763  -2.693   1.277  0.00  0.00    -0.065 C 
ATOM     22  H1  <0> d          -4.731  -3.792   1.269  0.00  0.00     0.028 H 
ATOM     23  H2  <0> d          -5.283  -2.335   0.376  0.00  0.00     0.028 H 
ATOM     24  H3  <0> d          -5.301  -2.348   2.172  0.00  0.00     0.028 H 
ENDBRANCH   1  21
BRANCH   1  25
ATOM     25  C8  <0> d          -2.607  -2.644   2.542  0.00  0.00    -0.065 C 
ATOM     26  H15 <0> d          -1.582  -2.247   2.554  0.00  0.00     0.028 H 
ATOM     27  H16 <0> d          -2.574  -3.744   2.528  0.00  0.00     0.028 H 
ATOM     28  H17 <0> d          -3.142  -2.305   3.442  0.00  0.00     0.028 H 
ENDBRANCH   1  25
TORSDOF 5
