REMARK  2 active torsions:
REMARK  status: ('A' for Active; 'I' for Inactive)
REMARK    1  A    between atoms: C1_1  and  C2_2 
REMARK    2  A    between atoms: C6_6  and  N3_11 
ROOT
ATOM      1  C2  <0> d           1.131  -0.680  -0.012  0.00  0.00     0.033 A 
ATOM      2  C3  <0> d           2.360  -0.038  -0.021  0.00  0.00    -0.058 A 
ATOM      3  C4  <0> d           2.402   1.344  -0.014  0.00  0.00    -0.063 A 
ATOM      4  C5  <0> d           1.191   2.038   0.002  0.00  0.00     0.067 A 
ATOM      5  C6  <0> d           0.832   3.463   0.013  0.00  0.00     0.163 A 
ATOM      6  N1  <0> d          -0.470   3.532   0.026  0.00  0.00    -0.108 NA
ATOM      7  O1  <0> d          -1.014   2.228   0.018  0.00  0.00    -0.190 OA
ATOM      8  C7  <0> d          -0.016   1.321   0.009  0.00  0.00     0.208 A 
ATOM      9  N2  <0> d           0.002  -0.004   0.002  0.00  0.00    -0.227 NA
ATOM     10  H4  <0> d           3.275  -0.612  -0.033  0.00  0.00     0.086 H 
ATOM     11  H5  <0> d           3.345   1.871  -0.020  0.00  0.00     0.085 H 
ENDROOT
BRANCH   1  12
ATOM     12  C1  <0> d           1.088  -2.187  -0.020  0.00  0.00    -0.035 C 
ATOM     13  H1  <0> d           2.114  -2.583  -0.032  0.00  0.00     0.035 H 
ATOM     14  H2  <0> d           0.550  -2.534  -0.914  0.00  0.00     0.035 H 
ATOM     15  H3  <0> d           0.568  -2.543   0.882  0.00  0.00     0.035 H 
ENDBRANCH   1  12
BRANCH   5  16
ATOM     16  N3  <0> d           1.714   4.535   0.010  0.00  0.00    -0.381 N 
ATOM     17  H6  <0> d           1.327   5.565   0.019  0.00  0.00     0.157 HD
ATOM     18  H7  <0> d           2.799   4.355  -0.001  0.00  0.00     0.157 HD
ENDBRANCH   5  16
TORSDOF 2
