REMARK  3 active torsions:
REMARK  status: ('A' for Active; 'I' for Inactive)
REMARK    1  A    between atoms: C1_1  and  C2_2 
REMARK    2  A    between atoms: C6_6  and  C7_8 
REMARK    3  A    between atoms: C6_6  and  C8_9 
ROOT
ATOM      1  C2  <0> d           0.049  -0.134  -0.198  0.00  0.00     0.146 C 
ATOM      2  C3  <0> d           0.814  -0.742  -1.377  0.00  0.00    -0.024 C 
ATOM      3  C4  <0> d           0.883  -2.262  -1.202  0.00  0.00    -0.059 C 
ATOM      4  C5  <0> d           1.542  -2.580   0.144  0.00  0.00    -0.037 C 
ATOM      5  C6  <0> d           0.749  -1.902   1.264  0.00  0.00     0.056 C 
ATOM      6  O1  <0> d           0.697  -0.494   1.024  0.00  0.00    -0.356 OA
ATOM      7  C9  <0> d          -1.331  -0.646  -0.192  0.00  0.00     0.097 C 
ATOM      8  N1  <0> d          -2.396  -1.042  -0.187  0.00  0.00    -0.194 NA
ATOM      9  H4  <0> d           0.297  -0.505  -2.307  0.00  0.00     0.038 H 
ATOM     10  H5  <0> d           1.824  -0.332  -1.406  0.00  0.00     0.038 H 
ATOM     11  H6  <0> d          -0.124  -2.678  -1.222  0.00  0.00     0.033 H 
ATOM     12  H7  <0> d           1.474  -2.695  -2.009  0.00  0.00     0.033 H 
ATOM     13  H8  <0> d           1.545  -3.659   0.302  0.00  0.00     0.037 H 
ATOM     14  H9  <0> d           2.566  -2.208   0.146  0.00  0.00     0.037 H 
ENDROOT
BRANCH   1  15
ATOM     15  C1  <0> d           0.027   1.389  -0.335  0.00  0.00    -0.035 C 
ATOM     16  H1  <0> d           1.049   1.768  -0.340  0.00  0.00     0.033 H 
ATOM     17  H2  <0> d          -0.466   1.664  -1.267  0.00  0.00     0.033 H 
ATOM     18  H3  <0> d          -0.516   1.822   0.505  0.00  0.00     0.033 H 
ENDBRANCH   1  15
BRANCH   5  19
ATOM     19  C7  <0> d          -0.673  -2.467   1.298  0.00  0.00    -0.048 C 
ATOM     20  H10 <0> d          -0.668  -3.433   1.803  0.00  0.00     0.031 H 
ATOM     21  H11 <0> d          -1.325  -1.778   1.835  0.00  0.00     0.031 H 
ATOM     22  H12 <0> d          -1.038  -2.592   0.278  0.00  0.00     0.031 H 
ENDBRANCH   5  19
BRANCH   5  23
ATOM     23  C8  <0> d           1.434  -2.165   2.606  0.00  0.00    -0.048 C 
ATOM     24  H13 <0> d           2.447  -1.762   2.583  0.00  0.00     0.031 H 
ATOM     25  H14 <0> d           0.870  -1.682   3.404  0.00  0.00     0.031 H 
ATOM     26  H15 <0> d           1.475  -3.239   2.789  0.00  0.00     0.031 H 
ENDBRANCH   5  23
TORSDOF 3
