REMARK  5 active torsions:
REMARK  status: ('A' for Active; 'I' for Inactive)
REMARK    1  A    between atoms: C1_1  and  C2_2 
REMARK    2  A    between atoms: C2_2  and  N1_3 
REMARK    3  A    between atoms: C4_5  and  C7_9 
REMARK    4  A    between atoms: C5_6  and  C6_8 
REMARK    5  A    between atoms: C7_9  and  O1_10 
ROOT
ATOM      1  N1  <0> d           0.287   5.069   0.027  0.00  0.00    -0.280 N 
ATOM      2  C3  <0> d          -0.016   3.754   0.023  0.00  0.00     0.009 A 
ATOM      3  C4  <0> d           1.147   3.062   0.008  0.00  0.00     0.008 A 
ATOM      4  C5  <0> d           2.197   3.986   0.008  0.00  0.00     0.060 A 
ATOM      5  N2  <0> d           1.683   5.189   0.013  0.00  0.00    -0.177 NA
ATOM      6  H6  <0> d          -1.009   3.329   0.031  0.00  0.00     0.115 H 
ENDROOT
BRANCH   1   7
ATOM      7  C2  <0> d          -0.673   6.175   0.043  0.00  0.00     0.013 C 
ATOM      8  H4  <0> d          -0.593   6.739  -0.886  0.00  0.00     0.066 H 
ATOM      9  H5  <0> d          -1.684   5.777   0.141  0.00  0.00     0.066 H 
BRANCH   7  10
ATOM     10  C1  <0> d          -0.371   7.096   1.226  0.00  0.00    -0.059 C 
ATOM     11  H1  <0> d          -1.086   7.919   1.238  0.00  0.00     0.029 H 
ATOM     12  H2  <0> d          -0.451   6.532   2.155  0.00  0.00     0.029 H 
ATOM     13  H3  <0> d           0.639   7.493   1.128  0.00  0.00     0.029 H 
ENDBRANCH   7  10
ENDBRANCH   1   7
BRANCH   4  14
ATOM     14  C6  <0> d           3.667   3.654  -0.001  0.00  0.00    -0.033 C 
ATOM     15  H7  <0> d           4.016   3.579  -1.030  0.00  0.00     0.035 H 
ATOM     16  H8  <0> d           4.220   4.438   0.515  0.00  0.00     0.035 H 
ATOM     17  H9  <0> d           3.827   2.702   0.507  0.00  0.00     0.035 H 
ENDBRANCH   4  14
BRANCH   3  18
ATOM     18  C7  <0> d           1.286   1.562  -0.002  0.00  0.00     0.044 C 
ATOM     19  H10 <0> d           1.840   1.243   0.881  0.00  0.00     0.081 H 
ATOM     20  H11 <0> d           1.823   1.252  -0.899  0.00  0.00     0.081 H 
BRANCH  18  21
ATOM     21  O1  <0> d          -0.011   0.963   0.007  0.00  0.00    -0.396 OA
ATOM     22  H12 <0> d           0.002  -0.004   0.002  0.00  0.00     0.209 HD
ENDBRANCH  18  21
ENDBRANCH   3  18
TORSDOF 5
