REMARK  5 active torsions:
REMARK  status: ('A' for Active; 'I' for Inactive)
REMARK    1  A    between atoms: C1_1  and  C2_2 
REMARK    2  A    between atoms: C2_2  and  C3_3 
REMARK    3  A    between atoms: C6_6  and  O1_9 
REMARK    4  A    between atoms: O1_9  and  C9_10 
REMARK    5  A    between atoms: C9_10  and  C10_11 
ROOT
ATOM      1  C3  <0> d           1.208  -0.680  -0.013  0.00  0.00    -0.058 A 
ATOM      2  C4  <0> d           0.002  -0.004   0.002  0.00  0.00    -0.074 A 
ATOM      3  C5  <0> d          -0.017   1.377   0.010  0.00  0.00    -0.050 A 
ATOM      4  C6  <0> d           1.176   2.086   0.002  0.00  0.00     0.068 A 
ATOM      5  C7  <0> d           2.385   1.405  -0.013  0.00  0.00    -0.050 A 
ATOM      6  C8  <0> d           2.398   0.024  -0.021  0.00  0.00    -0.074 A 
ATOM      7  H6  <0> d          -0.926  -0.556   0.008  0.00  0.00     0.084 H 
ATOM      8  H7  <0> d          -0.959   1.905   0.017  0.00  0.00     0.087 H 
ATOM      9  H8  <0> d           3.314   1.955  -0.019  0.00  0.00     0.087 H 
ATOM     10  H9  <0> d           3.339  -0.506  -0.033  0.00  0.00     0.084 H 
ENDROOT
BRANCH   4  11
ATOM     11  O1  <0> d           1.160   3.445   0.009  0.00  0.00    -0.352 OA
BRANCH  11  12
ATOM     12  C9  <0> d           2.426   4.108   0.001  0.00  0.00     0.023 C 
ATOM     13  H10 <0> d           2.994   3.818   0.884  0.00  0.00     0.074 H 
ATOM     14  H11 <0> d           2.978   3.827  -0.896  0.00  0.00     0.074 H 
BRANCH  12  15
ATOM     15  C10 <0> d           2.208   5.623   0.010  0.00  0.00    -0.056 C 
ATOM     16  H12 <0> d           1.656   5.905   0.907  0.00  0.00     0.030 H 
ATOM     17  H13 <0> d           3.173   6.129   0.004  0.00  0.00     0.030 H 
ATOM     18  H14 <0> d           1.639   5.914  -0.873  0.00  0.00     0.030 H 
ENDBRANCH  12  15
ENDBRANCH  11  12
ENDBRANCH   4  11
BRANCH   1  19
ATOM     19  C2  <0> d           1.226  -2.187  -0.021  0.00  0.00    -0.044 C 
ATOM     20  H4  <0> d           2.125  -2.543   0.482  0.00  0.00     0.039 H 
ATOM     21  H5  <0> d           0.345  -2.563   0.500  0.00  0.00     0.039 H 
BRANCH  19  22
ATOM     22  C1  <0> d           1.217  -2.690  -1.466  0.00  0.00    -0.073 C 
ATOM     23  H1  <0> d           0.318  -2.334  -1.969  0.00  0.00     0.028 H 
ATOM     24  H2  <0> d           2.098  -2.313  -1.986  0.00  0.00     0.028 H 
ATOM     25  H3  <0> d           1.230  -3.780  -1.472  0.00  0.00     0.028 H 
ENDBRANCH  19  22
ENDBRANCH   1  19
TORSDOF 5
