REMARK  3 active torsions:
REMARK  status: ('A' for Active; 'I' for Inactive)
REMARK    1  A    between atoms: C2_2  and  C3_3 
REMARK    2  A    between atoms: C3_3  and  N1_4 
REMARK    3  A    between atoms: N1_4  and  C4_5 
ROOT
ATOM      1  C4  <0> d           0.953  -1.847  -1.358  0.00  0.00     0.067 A 
ATOM      2  C5  <0> d           0.374  -2.764  -0.490  0.00  0.00    -0.054 A 
ATOM      3  C6  <0> d           0.534  -4.118  -0.711  0.00  0.00    -0.081 A 
ATOM      4  C7  <0> d           1.277  -4.562  -1.789  0.00  0.00    -0.080 A 
ATOM      5  C8  <0> d           1.860  -3.654  -2.653  0.00  0.00    -0.043 A 
ATOM      6  C9  <0> d           1.701  -2.296  -2.441  0.00  0.00     0.142 A 
ATOM      7  F1  <0> d           2.271  -1.409  -3.285  0.00  0.00    -0.204 F 
ATOM      8  H7  <0> d          -0.203  -2.418   0.354  0.00  0.00     0.087 H 
ATOM      9  H8  <0> d           0.080  -4.831  -0.038  0.00  0.00     0.083 H 
ATOM     10  H9  <0> d           1.403  -5.622  -1.956  0.00  0.00     0.083 H 
ATOM     11  H10 <0> d           2.440  -4.004  -3.494  0.00  0.00     0.088 H 
ENDROOT
BRANCH   1  12
ATOM     12  N1  <0> d           0.790  -0.475  -1.139  0.00  0.00    -0.384 N 
ATOM     13  H6  <0> d           1.253   0.249  -1.825  0.00  0.00     0.160 HD
BRANCH  12  14
ATOM     14  C3  <0> d           0.002  -0.004   0.002  0.00  0.00     0.007 C 
ATOM     15  H4  <0> d           0.454  -0.370   0.936  0.00  0.00     0.070 H 
ATOM     16  H5  <0> d          -1.027  -0.384  -0.081  0.00  0.00     0.070 H 
BRANCH  14  17
ATOM     17  C2  <0> d          -0.018   1.503   0.010  0.00  0.00    -0.095 C 
ATOM     18  C1  <0> d          -1.162   2.142   0.019  0.00  0.00    -0.123 C 
ATOM     19  H1  <0> d          -1.177   3.242   0.025  0.00  0.00     0.066 H 
ATOM     20  H2  <0> d          -2.107   1.579   0.021  0.00  0.00     0.066 H 
ATOM     21  H3  <0> d           0.927   2.066   0.009  0.00  0.00     0.078 H 
ENDBRANCH  14  17
ENDBRANCH  12  14
ENDBRANCH   1  12
TORSDOF 3
