REMARK  5 active torsions:
REMARK  status: ('A' for Active; 'I' for Inactive)
REMARK    1  A    between atoms: C1_1  and  C2_2 
REMARK    2  A    between atoms: C2_2  and  C3_3 
REMARK    3  A    between atoms: C3_3  and  C7_8 
REMARK    4  A    between atoms: C7_8  and  O2_10 
REMARK    5  A    between atoms: O2_10  and  C8_11 
ROOT
ATOM      1  C3  <0> d          -1.433  -0.534   0.013  0.00  0.00     0.243 C 
ATOM      2  C4  <0> d          -1.424  -2.076  -0.015  0.00  0.00    -0.021 C 
ATOM      3  C5  <0> d          -2.621  -2.417  -0.942  0.00  0.00    -0.037 C 
ATOM      4  C6  <0> d          -2.552  -1.267  -1.977  0.00  0.00     0.113 C 
ATOM      5  N1  <0> d          -2.145  -0.079  -1.196  0.00  0.00     0.103 N 
ATOM      6  H6  <0> d          -0.491  -2.449  -0.439  0.00  0.00     0.037 H 
ATOM      7  H7  <0> d          -1.583  -2.481   0.984  0.00  0.00     0.037 H 
ATOM      8  H8  <0> d          -2.480  -3.384  -1.423  0.00  0.00     0.035 H 
ATOM      9  H9  <0> d          -3.561  -2.390  -0.391  0.00  0.00     0.035 H 
ATOM     10  H10 <0> d          -1.809  -1.490  -2.743  0.00  0.00     0.079 H 
ATOM     11  H11 <0> d          -3.530  -1.105  -2.431  0.00  0.00     0.079 H 
ATOM     12  H12 <0> d          -2.945   0.486  -0.954  0.00  0.00     0.317 HD
ENDROOT
BRANCH   1  13
ATOM     13  C2  <0> d           0.002  -0.004   0.002  0.00  0.00    -0.025 C 
ATOM     14  H4  <0> d           0.512  -0.356  -0.895  0.00  0.00     0.037 H 
ATOM     15  H5  <0> d           0.529  -0.365   0.885  0.00  0.00     0.037 H 
BRANCH  13  16
ATOM     16  C1  <0> d          -0.019   1.526   0.010  0.00  0.00    -0.074 C 
ATOM     17  H1  <0> d           1.004   1.903   0.003  0.00  0.00     0.027 H 
ATOM     18  H2  <0> d          -0.546   1.887  -0.873  0.00  0.00     0.027 H 
ATOM     19  H3  <0> d          -0.529   1.877   0.907  0.00  0.00     0.027 H 
ENDBRANCH  13  16
ENDBRANCH   1  13
BRANCH   1  20
ATOM     20  C7  <0> d          -2.151  -0.044   1.244  0.00  0.00     0.297 C 
ATOM     21  O1  <0> d          -2.208  -0.744   2.228  0.00  0.00    -0.262 OA
BRANCH  20  22
ATOM     22  O2  <0> d          -2.726   1.169   1.249  0.00  0.00    -0.324 OA
BRANCH  22  23
ATOM     23  C8  <0> d          -3.389   1.568   2.450  0.00  0.00     0.013 C 
ATOM     24  H13 <0> d          -4.189   0.863   2.675  0.00  0.00     0.067 H 
ATOM     25  H14 <0> d          -2.674   1.580   3.273  0.00  0.00     0.067 H 
ATOM     26  H15 <0> d          -3.808   2.565   2.319  0.00  0.00     0.067 H 
ENDBRANCH  22  23
ENDBRANCH  20  22
ENDBRANCH   1  20
TORSDOF 5
