REMARK  4 active torsions:
REMARK  status: ('A' for Active; 'I' for Inactive)
REMARK    1  A    between atoms: C1_1  and  C2_2 
REMARK    2  A    between atoms: C5_5  and  O2_9 
REMARK    3  A    between atoms: C6_6  and  O1_8 
REMARK    4  A    between atoms: O2_9  and  C8_10 
ROOT
ATOM      1  C2  <0> d          -1.241   3.133   0.031  0.00  0.00    -0.059 A 
ATOM      2  C3  <0> d          -1.219   1.751   0.017  0.00  0.00    -0.074 A 
ATOM      3  C4  <0> d          -0.013   1.076   0.008  0.00  0.00    -0.048 A 
ATOM      4  C5  <0> d           1.178   1.785   0.000  0.00  0.00     0.101 A 
ATOM      5  C6  <0> d           1.155   3.176   0.008  0.00  0.00     0.099 A 
ATOM      6  C7  <0> d          -0.057   3.846   0.023  0.00  0.00    -0.043 A 
ATOM      7  H4  <0> d          -2.146   1.197   0.018  0.00  0.00     0.084 H 
ATOM      8  H5  <0> d           0.002  -0.004   0.002  0.00  0.00     0.087 H 
ATOM      9  H6  <0> d          -0.077   4.926   0.029  0.00  0.00     0.088 H 
ENDROOT
BRANCH   4  10
ATOM     10  O2  <0> d           2.365   1.123  -0.015  0.00  0.00    -0.353 OA
BRANCH  10  11
ATOM     11  C8  <0> d           2.312  -0.305  -0.023  0.00  0.00     0.010 C 
ATOM     12  H8  <0> d           1.794  -0.654   0.870  0.00  0.00     0.066 H 
ATOM     13  H9  <0> d           1.776  -0.644  -0.909  0.00  0.00     0.066 H 
ATOM     14  H10 <0> d           3.325  -0.707  -0.035  0.00  0.00     0.066 H 
ENDBRANCH  10  11
ENDBRANCH   4  10
BRANCH   5  15
ATOM     15  O1  <0> d           2.321   3.877   0.001  0.00  0.00    -0.358 OA
ATOM     16  H7  <0> d           2.650   4.084  -0.884  0.00  0.00     0.217 HD
ENDBRANCH   5  15
BRANCH   1  17
ATOM     17  C1  <0> d          -2.559   3.864   0.047  0.00  0.00    -0.051 C 
ATOM     18  H1  <0> d          -2.887   4.045  -0.977  0.00  0.00     0.033 H 
ATOM     19  H2  <0> d          -3.304   3.259   0.565  0.00  0.00     0.033 H 
ATOM     20  H3  <0> d          -2.441   4.816   0.565  0.00  0.00     0.033 H 
ENDBRANCH   1  17
TORSDOF 4
