REMARK  8 active torsions:
REMARK  status: ('A' for Active; 'I' for Inactive)
REMARK    1  A    between atoms: C1_1  and  C2_2 
REMARK    2  A    between atoms: C2_2  and  C3_3 
REMARK    3  A    between atoms: C3_3  and  C4_4 
REMARK    4  A    between atoms: C4_4  and  C5_5 
REMARK    5  A    between atoms: C5_5  and  C6_6 
REMARK    6  A    between atoms: C7_7  and  C8_8 
REMARK    7  A    between atoms: C8_8  and  C9_9 
REMARK    8  A    between atoms: C9_9  and  O1_10 
ROOT
ATOM      1  C5  <0> d           0.070   1.099   0.059  0.00  0.00    -0.050 C 
ATOM      2  H10 <0> d          -0.068   0.024  -0.050  0.00  0.00     0.038 H 
ATOM      3  H11 <0> d           1.133   1.320   0.158  0.00  0.00     0.038 H 
ENDROOT
BRANCH   1   4
ATOM      4  C4  <0> d          -0.486   1.814  -1.173  0.00  0.00    -0.062 C 
ATOM      5  H8  <0> d          -1.549   1.593  -1.272  0.00  0.00     0.033 H 
ATOM      6  H9  <0> d          -0.348   2.889  -1.064  0.00  0.00     0.033 H 
BRANCH   4   7
ATOM      7  C3  <0> d           0.254   1.329  -2.422  0.00  0.00    -0.065 C 
ATOM      8  H6  <0> d           1.316   1.550  -2.323  0.00  0.00     0.033 H 
ATOM      9  H7  <0> d           0.115   0.253  -2.531  0.00  0.00     0.033 H 
BRANCH   7  10
ATOM     10  C2  <0> d          -0.303   2.043  -3.655  0.00  0.00    -0.069 C 
ATOM     11  H4  <0> d          -1.366   1.822  -3.753  0.00  0.00     0.032 H 
ATOM     12  H5  <0> d          -0.165   3.119  -3.545  0.00  0.00     0.032 H 
BRANCH  10  13
ATOM     13  C1  <0> d           0.436   1.558  -4.903  0.00  0.00    -0.077 C 
ATOM     14  H1  <0> d           1.499   1.779  -4.804  0.00  0.00     0.027 H 
ATOM     15  H2  <0> d           0.298   0.483  -5.013  0.00  0.00     0.027 H 
ATOM     16  H3  <0> d           0.040   2.067  -5.781  0.00  0.00     0.027 H 
ENDBRANCH  10  13
ENDBRANCH   7  10
ENDBRANCH   4   7
ENDBRANCH   1   4
BRANCH   1  17
ATOM     17  C6  <0> d          -0.658   1.577   1.289  0.00  0.00    -0.106 C 
ATOM     18  C7  <0> d          -1.196   0.709   2.110  0.00  0.00    -0.105 C 
ATOM     19  H13 <0> d          -1.821   1.050   2.923  0.00  0.00     0.076 H 
ATOM     20  H12 <0> d          -0.738   2.634   1.493  0.00  0.00     0.076 H 
BRANCH  18  21
ATOM     21  C8  <0> d          -0.943  -0.764   1.921  0.00  0.00    -0.030 C 
ATOM     22  H14 <0> d          -1.874  -1.260   1.647  0.00  0.00     0.042 H 
ATOM     23  H15 <0> d          -0.208  -0.908   1.129  0.00  0.00     0.042 H 
BRANCH  21  24
ATOM     24  C9  <0> d          -0.411  -1.362   3.225  0.00  0.00     0.020 C 
ATOM     25  H16 <0> d           0.520  -0.866   3.499  0.00  0.00     0.074 H 
ATOM     26  H17 <0> d          -1.147  -1.218   4.017  0.00  0.00     0.074 H 
BRANCH  24  27
ATOM     27  O1  <0> d          -0.172  -2.759   3.046  0.00  0.00    -0.401 OA
ATOM     28  H18 <0> d           0.168  -3.205   3.834  0.00  0.00     0.209 HD
ENDBRANCH  24  27
ENDBRANCH  21  24
ENDBRANCH  18  21
ENDBRANCH   1  17
TORSDOF 8
