REMARK  6 active torsions:
REMARK  status: ('A' for Active; 'I' for Inactive)
REMARK    1  A    between atoms: C1_1  and  C2_2 
REMARK    2  A    between atoms: C2_2  and  C3_3 
REMARK    3  A    between atoms: C3_3  and  C4_4 
REMARK    4  A    between atoms: C3_3  and  C5_5 
REMARK    5  A    between atoms: C3_3  and  O1_11 
REMARK    6  A    between atoms: N3_8  and  C6_10 
ROOT
ATOM      1  C3  <0> d           3.507   0.656  -0.028  0.00  0.00     0.119 C 
ENDROOT
BRANCH   1   2
ATOM      2  C2  <0> d           4.011   2.095   0.101  0.00  0.00    -0.033 C 
ATOM      3  H4  <0> d           3.565   2.707  -0.683  0.00  0.00     0.037 H 
ATOM      4  H5  <0> d           3.729   2.493   1.076  0.00  0.00     0.037 H 
BRANCH   2   5
ATOM      5  C1  <0> d           5.534   2.117  -0.039  0.00  0.00    -0.073 C 
ATOM      6  H1  <0> d           5.893   3.142   0.053  0.00  0.00     0.027 H 
ATOM      7  H2  <0> d           5.979   1.504   0.745  0.00  0.00     0.027 H 
ATOM      8  H3  <0> d           5.815   1.719  -1.014  0.00  0.00     0.027 H 
ENDBRANCH   2   5
ENDBRANCH   1   2
BRANCH   1   9
ATOM      9  C4  <0> d           4.008   0.056  -1.343  0.00  0.00    -0.041 C 
ATOM     10  H6  <0> d           3.633   0.648  -2.178  0.00  0.00     0.032 H 
ATOM     11  H7  <0> d           5.098   0.062  -1.354  0.00  0.00     0.032 H 
ATOM     12  H8  <0> d           3.649  -0.969  -1.435  0.00  0.00     0.032 H 
ENDBRANCH   1   9
BRANCH   1  13
ATOM     13  C5  <0> d           2.000   0.648  -0.014  0.00  0.00     0.205 A 
ATOM     14  N4  <0> d           1.226  -0.409  -0.012  0.00  0.00    -0.133 NA
ATOM     15  N3  <0> d           0.002  -0.004   0.002  0.00  0.00    -0.173 N 
ATOM     16  N2  <0> d          -0.015   1.284   0.009  0.00  0.00    -0.047 NA
ATOM     17  N1  <0> d           1.200   1.714  -0.000  0.00  0.00    -0.110 NA
BRANCH  15  18
ATOM     18  C6  <0> d          -1.180  -0.870   0.009  0.00  0.00     0.021 C 
ATOM     19  H9  <0> d          -1.483  -1.079  -1.016  0.00  0.00     0.062 H 
ATOM     20  H10 <0> d          -0.942  -1.805   0.516  0.00  0.00     0.062 H 
ATOM     21  H11 <0> d          -1.994  -0.369   0.534  0.00  0.00     0.062 H 
ENDBRANCH  15  18
ENDBRANCH   1  13
BRANCH   1  22
ATOM     22  O1  <0> d           3.998  -0.120   1.067  0.00  0.00    -0.382 OA
ATOM     23  H12 <0> d           3.719   0.203   1.935  0.00  0.00     0.211 HD
ENDBRANCH   1  22
TORSDOF 6
