REMARK  2 active torsions:
REMARK  status: ('A' for Active; 'I' for Inactive)
REMARK    1  A    between atoms: C1_1  and  C2_2 
REMARK    2  A    between atoms: C10_11  and  C11_12 
ROOT
ATOM      1  C2  <0> d          -2.381   5.216   0.052  0.00  0.00    -0.038 A 
ATOM      2  C3  <0> d          -1.145   5.860   0.043  0.00  0.00     0.009 A 
ATOM      3  N1  <0> d          -0.018   5.190   0.029  0.00  0.00    -0.260 NA
ATOM      4  C4  <0> d          -0.004   3.853   0.022  0.00  0.00     0.067 A 
ATOM      5  C5  <0> d           1.207   3.140   0.007  0.00  0.00    -0.054 A 
ATOM      6  C6  <0> d           1.190   1.780   0.000  0.00  0.00    -0.081 A 
ATOM      7  C7  <0> d          -0.013   1.076   0.008  0.00  0.00    -0.082 A 
ATOM      8  C8  <0> d          -1.206   1.731   0.017  0.00  0.00    -0.070 A 
ATOM      9  C9  <0> d          -1.226   3.135   0.031  0.00  0.00    -0.001 A 
ATOM     10  C10 <0> d          -2.438   3.851   0.046  0.00  0.00    -0.042 A 
ATOM     11  H4  <0> d          -1.115   6.939   0.049  0.00  0.00     0.115 H 
ATOM     12  H5  <0> d           2.148   3.671   0.001  0.00  0.00     0.087 H 
ATOM     13  H6  <0> d           2.123   1.237  -0.012  0.00  0.00     0.083 H 
ATOM     14  H7  <0> d           0.002  -0.004   0.002  0.00  0.00     0.083 H 
ATOM     15  H8  <0> d          -2.131   1.175   0.018  0.00  0.00     0.084 H 
ENDROOT
BRANCH   1  16
ATOM     16  C1  <0> d          -3.652   6.024   0.069  0.00  0.00    -0.049 C 
ATOM     17  H1  <0> d          -3.949   6.214   1.101  0.00  0.00     0.033 H 
ATOM     18  H2  <0> d          -3.487   6.972  -0.442  0.00  0.00     0.033 H 
ATOM     19  H3  <0> d          -4.442   5.470  -0.440  0.00  0.00     0.033 H 
ENDBRANCH   1  16
BRANCH  10  20
ATOM     20  C11 <0> d          -3.762   3.131   0.055  0.00  0.00    -0.050 C 
ATOM     21  H9  <0> d          -4.072   2.953   1.084  0.00  0.00     0.033 H 
ATOM     22  H10 <0> d          -4.511   3.743  -0.449  0.00  0.00     0.033 H 
ATOM     23  H11 <0> d          -3.661   2.179  -0.465  0.00  0.00     0.033 H 
ENDBRANCH  10  20
TORSDOF 2
