REMARK  2 active torsions:
REMARK  status: ('A' for Active; 'I' for Inactive)
REMARK    1  A    between atoms: C2_2  and  N4_9 
REMARK    2  A    between atoms: C3_4  and  N3_8 
ROOT
ATOM      1  C1  <0> d          -0.017   1.394   0.010  0.00  0.00     0.027 A 
ATOM      2  C2  <0> d           1.191   2.078   0.002  0.00  0.00     0.145 A 
ATOM      3  N1  <0> d           2.341   1.393  -0.013  0.00  0.00    -0.048 NA
ATOM      4  C3  <0> d           2.350   0.077  -0.020  0.00  0.00     0.702 A 
ATOM      5  N2  <0> d           1.192  -0.639  -0.013  0.00  0.00    -0.154 N 
ATOM      6  C4  <0> d           0.002  -0.004   0.002  0.00  0.00     0.263 A 
ATOM      7  O1  <0> d          -1.041  -0.639   0.009  0.00  0.00    -0.268 OA
ATOM      8  H1  <0> d          -0.953   1.932   0.026  0.00  0.00     0.098 H 
ATOM      9  H6  <0> d           1.223  -1.609  -0.019  0.00  0.00     0.187 HD
ENDROOT
BRANCH   2  10
ATOM     10  N4  <0> d           1.206   3.458   0.009  0.00  0.00    -0.383 N 
ATOM     11  H4  <0> d           0.371   3.952   0.019  0.00  0.00     0.157 HD
ATOM     12  H5  <0> d           2.051   3.933   0.003  0.00  0.00     0.157 HD
ENDBRANCH   2  10
BRANCH   4  13
ATOM     13  N3  <0> d           3.548  -0.586  -0.035  0.00  0.00    -0.233 N 
ATOM     14  H2  <0> d           4.379  -0.085  -0.040  0.00  0.00     0.174 HD
ATOM     15  H3  <0> d           3.566  -1.555  -0.040  0.00  0.00     0.174 HD
ENDBRANCH   4  13
TORSDOF 2
