REMARK  2 active torsions:
REMARK  status: ('A' for Active; 'I' for Inactive)
REMARK    1  A    between atoms: C3_3  and  N3_7 
REMARK    2  A    between atoms: N3_7  and  C5_8 
ROOT
ATOM      1  C5  <0> d           3.695   3.371  -0.016  0.00  0.00     0.011 C 
ATOM      2  C6  <0> d           4.141   3.967  -1.361  0.00  0.00    -0.046 C 
ATOM      3  C7  <0> d           4.989   4.961  -0.550  0.00  0.00    -0.061 C 
ATOM      4  C8  <0> d           5.012   3.907   0.569  0.00  0.00    -0.046 C 
ATOM      5  H5  <0> d           2.807   3.847   0.400  0.00  0.00     0.072 H 
ATOM      6  H6  <0> d           4.733   3.282  -1.968  0.00  0.00     0.035 H 
ATOM      7  H7  <0> d           3.333   4.438  -1.920  0.00  0.00     0.035 H 
ATOM      8  H8  <0> d           5.969   5.157  -0.985  0.00  0.00     0.033 H 
ATOM      9  H9  <0> d           4.455   5.872  -0.280  0.00  0.00     0.033 H 
ATOM     10  H10 <0> d           4.906   4.328   1.569  0.00  0.00     0.035 H 
ATOM     11  H11 <0> d           5.842   3.205   0.491  0.00  0.00     0.035 H 
ENDROOT
BRANCH   1  12
ATOM     12  N3  <0> d           3.607   1.909  -0.023  0.00  0.00    -0.369 N 
ATOM     13  H4  <0> d           4.416   1.375  -0.033  0.00  0.00     0.161 HD
BRANCH  12  14
ATOM     14  C3  <0> d           2.363   1.287  -0.014  0.00  0.00     0.146 A 
ATOM     15  C2  <0> d           1.198   2.052   0.002  0.00  0.00    -0.036 A 
ATOM     16  C1  <0> d          -0.017   1.383   0.010  0.00  0.00    -0.061 A 
ATOM     17  H2  <0> d           1.240   3.131   0.007  0.00  0.00     0.089 H 
ATOM     18  C4  <0> d           0.002  -0.004   0.002  0.00  0.00     0.024 A 
ATOM     19  H1  <0> d          -0.950   1.927   0.026  0.00  0.00     0.086 H 
ATOM     20  N2  <0> d           1.152  -0.648  -0.012  0.00  0.00    -0.161 NA
ATOM     21  H3  <0> d          -0.926  -0.557   0.008  0.00  0.00     0.117 H 
ATOM     22  N1  <0> d           2.280  -0.036  -0.020  0.00  0.00    -0.133 NA
ENDBRANCH  12  14
ENDBRANCH   1  12
TORSDOF 2
