REMARK  1 active torsions:
REMARK  status: ('A' for Active; 'I' for Inactive)
REMARK    1  A    between atoms: C1_1  and  C2_2 
ROOT
ATOM      1  C2  <0> d           1.152   1.670   0.000  0.00  0.00     0.026 A 
ATOM      2  C3  <0> d           1.126   3.026   0.007  0.00  0.00     0.023 A 
ATOM      3  N1  <0> d          -0.028   3.688   0.022  0.00  0.00    -0.266 NA
ATOM      4  C4  <0> d          -1.171   3.047   0.029  0.00  0.00     0.067 A 
ATOM      5  C5  <0> d          -1.185   1.634   0.017  0.00  0.00     0.263 A 
ATOM      6  O1  <0> d          -2.242   1.026   0.018  0.00  0.00    -0.267 OA
ATOM      7  N2  <0> d          -0.011   0.966   0.007  0.00  0.00    -0.325 N 
ATOM      8  H1  <0> d           0.012  -0.134   0.006  0.00  0.00     0.169 HD
ATOM      9  H5  <0> d           2.055   3.576   0.002  0.00  0.00     0.117 H 
ATOM     10  H6  <0> d          -2.100   3.598   0.041  0.00  0.00     0.123 H 
ENDROOT
BRANCH   1  11
ATOM     11  C1  <0> d           2.471   0.943  -0.016  0.00  0.00    -0.036 C 
ATOM     12  H2  <0> d           3.293   1.675  -0.020  0.00  0.00     0.035 H 
ATOM     13  H3  <0> d           2.534   0.317  -0.918  0.00  0.00     0.035 H 
ATOM     14  H4  <0> d           2.551   0.307   0.878  0.00  0.00     0.035 H 
ENDBRANCH   1  11
TORSDOF 1
