REMARK  0 active torsions:
REMARK  status: ('A' for Active; 'I' for Inactive)
ROOT
ATOM      1  C1  <0> d           3.867  -0.618   1.701  0.00  0.00    -0.082 A 
ATOM      2  C2  <0> d           3.015  -1.707   1.703  0.00  0.00    -0.082 A 
ATOM      3  C3  <0> d           1.746  -1.591   1.171  0.00  0.00    -0.075 A 
ATOM      4  C4  <0> d           1.323  -0.386   0.636  0.00  0.00    -0.034 A 
ATOM      5  C5  <0> d           2.174   0.703   0.633  0.00  0.00    -0.051 A 
ATOM      6  C6  <0> d           3.446   0.584   1.167  0.00  0.00    -0.076 A 
ATOM      7  C7  <0> d           1.484   1.891  -0.002  0.00  0.00    -0.039 C 
ATOM      8  C8  <0> d          -0.019   1.539   0.011  0.00  0.00    -0.042 C 
ATOM      9  C9  <0> d           0.002  -0.004   0.002  0.00  0.00     0.056 C 
ATOM     10  H1  <0> d          -0.123  -0.444  -0.999  0.00  0.00     0.070 H 
ATOM     11  C10 <0> d          -1.118  -0.534   0.796  0.00  0.00     0.068 C 
ATOM     12  N1  <0> d          -1.982  -0.944   1.409  0.00  0.00    -0.197 NA
ATOM     13  H2  <0> d           4.859  -0.707   2.117  0.00  0.00     0.083 H 
ATOM     14  H3  <0> d           3.342  -2.648   2.121  0.00  0.00     0.083 H 
ATOM     15  H4  <0> d           1.081  -2.442   1.174  0.00  0.00     0.084 H 
ATOM     16  H5  <0> d           4.112   1.435   1.166  0.00  0.00     0.084 H 
ATOM     17  H6  <0> d           1.693   2.795   0.588  0.00  0.00     0.040 H 
ATOM     18  H7  <0> d           1.859   2.028  -1.027  0.00  0.00     0.040 H 
ATOM     19  H8  <0> d          -0.485   1.956   0.915  0.00  0.00     0.035 H 
ATOM     20  H9  <0> d          -0.503   1.965  -0.881  0.00  0.00     0.035 H 
ENDROOT
TORSDOF 0
