REMARK  5 active torsions:
REMARK  status: ('A' for Active; 'I' for Inactive)
REMARK    1  A    between atoms: C1_1  and  C2_2 
REMARK    2  A    between atoms: C2_2  and  O1_3 
REMARK    3  A    between atoms: O1_3  and  C3_4 
REMARK    4  A    between atoms: C3_4  and  C4_6 
REMARK    5  A    between atoms: C4_6  and  N1_7 
ROOT
ATOM      1  C3  <0> d           0.002  -0.004   0.002  0.00  0.00     0.278 C 
ATOM      2  O2  <0> d          -0.504  -0.620   0.910  0.00  0.00    -0.263 OA
ENDROOT
BRANCH   1   3
ATOM      3  O1  <0> d           0.583  -0.662  -1.014  0.00  0.00    -0.321 OA
BRANCH   3   4
ATOM      4  C2  <0> d           0.565  -2.112  -0.956  0.00  0.00     0.025 C 
ATOM      5  H4  <0> d           1.083  -2.446  -0.057  0.00  0.00     0.074 H 
ATOM      6  H5  <0> d          -0.467  -2.463  -0.932  0.00  0.00     0.074 H 
BRANCH   4   7
ATOM      7  C1  <0> d           1.268  -2.681  -2.190  0.00  0.00    -0.056 C 
ATOM      8  H1  <0> d           1.255  -3.770  -2.146  0.00  0.00     0.030 H 
ATOM      9  H2  <0> d           0.750  -2.347  -3.089  0.00  0.00     0.030 H 
ATOM     10  H3  <0> d           2.300  -2.331  -2.214  0.00  0.00     0.030 H 
ENDBRANCH   4   7
ENDBRANCH   3   4
ENDBRANCH   1   3
BRANCH   1  11
ATOM     11  C4  <0> d          -0.018   1.503   0.010  0.00  0.00     0.099 C 
ATOM     12  H6  <0> d           1.004   1.880   0.003  0.00  0.00     0.083 H 
ATOM     13  H7  <0> d          -0.545   1.864  -0.873  0.00  0.00     0.083 H 
BRANCH  11  14
ATOM     14  N1  <0> d          -0.704   1.975   1.216  0.00  0.00    -0.233 N 
ATOM     15  N4  <0> d          -1.893   1.651   1.598  0.00  0.00    -0.044 NA
ATOM     16  N3  <0> d          -2.155   2.261   2.701  0.00  0.00    -0.024 NA
ATOM     17  N2  <0> d          -1.144   2.983   3.042  0.00  0.00    -0.122 NA
ATOM     18  C5  <0> d          -0.210   2.825   2.135  0.00  0.00     0.108 A 
ATOM     19  H8  <0> d           0.765   3.288   2.127  0.00  0.00     0.149 H 
ENDBRANCH  11  14
ENDBRANCH   1  11
TORSDOF 5
