REMARK  2 active torsions:
REMARK  status: ('A' for Active; 'I' for Inactive)
REMARK    1  A    between atoms: C1_1  and  C2_2 
REMARK    2  A    between atoms: C5_6  and  O1_9 
ROOT
ATOM      1  C2  <0> d          -0.729   1.579   1.267  0.00  0.00    -0.055 C 
ATOM      2  H1  <0> d          -1.771   1.260   1.266  0.00  0.00     0.039 H 
ATOM      3  C3  <0> d          -0.622   3.119   1.391  0.00  0.00    -0.060 C 
ATOM      4  C4  <0> d          -0.807   3.391   2.898  0.00  0.00    -0.041 C 
ATOM      5  C5  <0> d          -0.413   2.096   3.630  0.00  0.00     0.036 C 
ATOM      6  H2  <0> d          -1.263   1.713   4.195  0.00  0.00     0.082 H 
ATOM      7  C6  <0> d          -0.003   1.082   2.542  0.00  0.00    -0.038 C 
ATOM      8  H6  <0> d           0.358   3.462   1.059  0.00  0.00     0.033 H 
ATOM      9  H7  <0> d          -1.411   3.604   0.817  0.00  0.00     0.033 H 
ATOM     10  H8  <0> d          -1.847   3.637   3.109  0.00  0.00     0.036 H 
ATOM     11  H9  <0> d          -0.159   4.209   3.213  0.00  0.00     0.036 H 
ATOM     12  H10 <0> d          -0.341   0.080   2.807  0.00  0.00     0.037 H 
ATOM     13  H11 <0> d           1.077   1.093   2.395  0.00  0.00     0.037 H 
ENDROOT
BRANCH   1  14
ATOM     14  C1  <0> d          -0.013   1.086   0.008  0.00  0.00    -0.073 C 
ATOM     15  H3  <0> d           0.002  -0.004   0.002  0.00  0.00     0.028 H 
ATOM     16  H4  <0> d           1.010   1.463   0.000  0.00  0.00     0.028 H 
ATOM     17  H5  <0> d          -0.540   1.447  -0.875  0.00  0.00     0.028 H 
ENDBRANCH   1  14
BRANCH   5  18
ATOM     18  O1  <0> d           0.687   2.344   4.507  0.00  0.00    -0.396 OA
ATOM     19  H12 <0> d           0.492   2.974   5.214  0.00  0.00     0.210 HD
ENDBRANCH   5  18
TORSDOF 2
