REMARK  1 active torsions:
REMARK  status: ('A' for Active; 'I' for Inactive)
REMARK    1  A    between atoms: C7_12  and  C8_14 
ROOT
ATOM      1  C1  <0> d          -0.800   3.055   1.258  0.00  0.00    -0.050 C 
ATOM      2  C2  <0> d           0.680   3.405   0.833  0.00  0.00    -0.038 A 
ATOM      3  H1  <0> d           1.320   4.045   1.439  0.00  0.00     0.042 H 
ATOM      4  C3  <0> d           0.651   3.429  -0.773  0.00  0.00    -0.026 A 
ATOM      5  H2  <0> d           1.268   4.080  -1.392  0.00  0.00     0.043 H 
ATOM      6  C4  <0> d           1.148   2.197   0.003  0.00  0.00     0.013 A 
ATOM      7  H3  <0> d           2.047   1.900   0.325  0.00  0.00     0.053 H 
ATOM      8  C5  <0> d          -0.014   1.203   0.009  0.00  0.00     0.137 C 
ATOM      9  O1  <0> d           0.002  -0.004   0.002  0.00  0.00    -0.297 OA
ATOM     10  C6  <0> d          -1.217   2.176   0.018  0.00  0.00     0.018 C 
ATOM     11  H4  <0> d          -2.162   1.867   0.131  0.00  0.00     0.053 H 
ATOM     12  C7  <0> d          -0.817   3.068  -1.209  0.00  0.00     0.045 C 
ATOM     13  H5  <0> d          -1.443   3.958  -1.281  0.00  0.00     0.058 H 
ATOM     14  H6  <0> d          -1.426   3.943   1.347  0.00  0.00     0.034 H 
ATOM     15  H7  <0> d          -0.802   2.474   2.180  0.00  0.00     0.034 H 
ENDROOT
BRANCH  12  16
ATOM     16  C8  <0> d          -0.835   2.280  -2.494  0.00  0.00     0.178 C 
ATOM     17  O2  <0> d           0.202   2.005  -3.049  0.00  0.00    -0.648 OA
ATOM     18  O3  <0> d          -2.004   1.883  -3.020  0.00  0.00    -0.648 OA
ENDBRANCH  12  16
TORSDOF 1
