REMARK  3 active torsions:
REMARK  status: ('A' for Active; 'I' for Inactive)
REMARK    1  A    between atoms: C1_1  and  C2_2 
REMARK    2  A    between atoms: C5_6  and  S1_8 
REMARK    3  A    between atoms: S1_8  and  C6_9 
ROOT
ATOM      1  C2  <0> d          -0.742   1.585  -1.213  0.00  0.00     0.038 A 
ATOM      2  C3  <0> d          -2.090   1.794  -1.164  0.00  0.00     0.006 A 
ATOM      3  C4  <0> d          -2.748   2.260  -2.315  0.00  0.00     0.249 A 
ATOM      4  N1  <0> d          -2.023   2.485  -3.431  0.00  0.00    -0.302 N 
ATOM      5  C5  <0> d          -0.680   2.259  -3.422  0.00  0.00     0.169 A 
ATOM      6  N2  <0> d          -0.069   1.827  -2.335  0.00  0.00    -0.229 NA
ATOM      7  O1  <0> d          -3.952   2.456  -2.306  0.00  0.00    -0.268 OA
ATOM      8  H4  <0> d          -2.642   1.603  -0.255  0.00  0.00     0.095 H 
ATOM      9  H8  <0> d          -2.457   2.806  -4.237  0.00  0.00     0.171 HD
ENDROOT
BRANCH   5  10
ATOM     10  S1  <0> d           0.259   2.555  -4.883  0.00  0.00    -0.096 SA
BRANCH  10  11
ATOM     11  C6  <0> d           1.957   2.127  -4.409  0.00  0.00    -0.027 C 
ATOM     12  H5  <0> d           2.274   2.761  -3.581  0.00  0.00     0.042 H 
ATOM     13  H6  <0> d           1.995   1.082  -4.101  0.00  0.00     0.042 H 
ATOM     14  H7  <0> d           2.621   2.280  -5.259  0.00  0.00     0.042 H 
ENDBRANCH  10  11
ENDBRANCH   5  10
BRANCH   1  15
ATOM     15  C1  <0> d          -0.013   1.086   0.008  0.00  0.00    -0.035 C 
ATOM     16  H1  <0> d           0.002  -0.004   0.002  0.00  0.00     0.035 H 
ATOM     17  H2  <0> d           1.010   1.463   0.000  0.00  0.00     0.035 H 
ATOM     18  H3  <0> d          -0.523   1.437   0.905  0.00  0.00     0.035 H 
ENDBRANCH   1  15
TORSDOF 3
