REMARK  2 active torsions:
REMARK  status: ('A' for Active; 'I' for Inactive)
REMARK    1  A    between atoms: C1_1  and  N1_2 
REMARK    2  A    between atoms: C2_3  and  C5_7 
ROOT
ATOM      1  N1  <0> d           1.421   1.728   0.002  0.00  0.00    -0.272 N 
ATOM      2  C2  <0> d           0.106   1.468   0.244  0.00  0.00     0.084 A 
ATOM      3  C3  <0> d          -0.068   0.117   0.140  0.00  0.00    -0.035 A 
ATOM      4  C4  <0> d           1.168  -0.450  -0.172  0.00  0.00     0.024 A 
ATOM      5  N2  <0> d           2.058   0.507  -0.254  0.00  0.00    -0.185 NA
ATOM      6  H5  <0> d          -0.997  -0.417   0.275  0.00  0.00     0.089 H 
ATOM      7  H6  <0> d           1.360  -1.503  -0.320  0.00  0.00     0.117 H 
ENDROOT
BRANCH   2   8
ATOM      8  C5  <0> d          -0.943   2.466   0.556  0.00  0.00     0.106 A 
ATOM      9  N4  <0> d          -2.230   2.221   0.689  0.00  0.00    -0.173 NA
ATOM     10  N3  <0> d          -2.874   3.430   0.983  0.00  0.00    -0.289 N 
ATOM     11  C7  <0> d          -1.941   4.405   1.022  0.00  0.00    -0.002 A 
ATOM     12  H1  <0> d          -3.855   3.550   1.136  0.00  0.00     0.188 HD
ATOM     13  C6  <0> d          -0.739   3.844   0.769  0.00  0.00    -0.035 A 
ATOM     14  H8  <0> d          -2.123   5.450   1.226  0.00  0.00     0.113 H 
ATOM     15  H7  <0> d           0.209   4.360   0.735  0.00  0.00     0.089 H 
ENDBRANCH   2   8
BRANCH   1  16
ATOM     16  C1  <0> d           2.057   3.048   0.009  0.00  0.00     0.003 C 
ATOM     17  H2  <0> d           2.316   3.321   1.032  0.00  0.00     0.059 H 
ATOM     18  H3  <0> d           2.960   3.020  -0.600  0.00  0.00     0.059 H 
ATOM     19  H4  <0> d           1.366   3.786  -0.399  0.00  0.00     0.059 H 
ENDBRANCH   1  16
TORSDOF 2
