REMARK  6 active torsions:
REMARK  status: ('A' for Active; 'I' for Inactive)
REMARK    1  A    between atoms: C1_1  and  C2_2 
REMARK    2  A    between atoms: C1_1  and  O3_7 
REMARK    3  A    between atoms: C2_2  and  O1_3 
REMARK    4  A    between atoms: O1_3  and  C3_4 
REMARK    5  A    between atoms: C3_4  and  C4_5 
REMARK    6  A    between atoms: C4_5  and  O2_6 
ROOT
ATOM      1  O1  <0> d           0.590  -0.479   1.215  0.00  0.00    -0.387 OA
ENDROOT
BRANCH   1   2
ATOM      2  C2  <0> d           0.002  -0.004   0.002  0.00  0.00     0.039 C 
ATOM      3  H3  <0> d          -1.018  -0.381  -0.080  0.00  0.00     0.077 H 
ATOM      4  H4  <0> d           0.588  -0.355  -0.847  0.00  0.00     0.077 H 
BRANCH   2   5
ATOM      5  C1  <0> d          -0.019   1.526   0.010  0.00  0.00     0.036 C 
ATOM      6  H1  <0> d          -0.546   1.887  -0.873  0.00  0.00     0.077 H 
ATOM      7  H2  <0> d          -0.529   1.877   0.907  0.00  0.00     0.077 H 
BRANCH   5   8
ATOM      8  O3  <0> d           1.322   2.020   0.000  0.00  0.00    -0.399 OA
ATOM      9  H10 <0> d           1.385   2.985   0.005  0.00  0.00     0.209 HD
ENDBRANCH   5   8
ENDBRANCH   2   5
ENDBRANCH   1   2
BRANCH   1  10
ATOM     10  C3  <0> d           0.657  -1.903   1.309  0.00  0.00     0.039 C 
ATOM     11  H5  <0> d          -0.348  -2.320   1.254  0.00  0.00     0.077 H 
ATOM     12  H6  <0> d           1.257  -2.294   0.487  0.00  0.00     0.077 H 
BRANCH  10  13
ATOM     13  C4  <0> d           1.300  -2.297   2.640  0.00  0.00     0.036 C 
ATOM     14  H7  <0> d           1.433  -3.378   2.675  0.00  0.00     0.077 H 
ATOM     15  H8  <0> d           2.270  -1.808   2.734  0.00  0.00     0.077 H 
BRANCH  13  16
ATOM     16  O2  <0> d           0.455  -1.887   3.717  0.00  0.00    -0.399 OA
ATOM     17  H9  <0> d           0.800  -2.104   4.594  0.00  0.00     0.209 HD
ENDBRANCH  13  16
ENDBRANCH  10  13
ENDBRANCH   1  10
TORSDOF 6
