REMARK  3 active torsions:
REMARK  status: ('A' for Active; 'I' for Inactive)
REMARK    1  A    between atoms: C1_1  and  C2_2 
REMARK    2  A    between atoms: C2_2  and  C3_3 
REMARK    3  A    between atoms: C2_2  and  N1_4 
ROOT
ATOM      1  N1  <0> d          -0.018   1.461   0.010  0.00  0.00    -0.322 N 
ATOM      2  C4  <0> d           1.167   2.332   0.003  0.00  0.00     0.021 A 
ATOM      3  C5  <0> d           0.576   3.755   0.016  0.00  0.00     0.045 A 
ATOM      4  O1  <0> d          -0.865   3.539   0.029  0.00  0.00    -0.302 OA
ATOM      5  C6  <0> d          -1.118   2.225   0.019  0.00  0.00     0.363 A 
ATOM      6  O2  <0> d          -2.244   1.767   0.021  0.00  0.00    -0.238 OA
ATOM      7  H8  <0> d           1.773   2.162   0.893  0.00  0.00     0.067 H 
ATOM      8  H9  <0> d           1.756   2.171  -0.899  0.00  0.00     0.067 H 
ATOM      9  H10 <0> d           0.889   4.291   0.912  0.00  0.00     0.077 H 
ATOM     10  H11 <0> d           0.873   4.300  -0.880  0.00  0.00     0.077 H 
ENDROOT
BRANCH   1  11
ATOM     11  C2  <0> d           0.002  -0.004   0.002  0.00  0.00     0.010 C 
ATOM     12  H4  <0> d           1.034  -0.353  -0.010  0.00  0.00     0.071 H 
BRANCH  11  13
ATOM     13  C1  <0> d          -0.700  -0.530   1.255  0.00  0.00    -0.057 C 
ATOM     14  H1  <0> d          -0.685  -1.620   1.249  0.00  0.00     0.030 H 
ATOM     15  H2  <0> d          -0.183  -0.165   2.142  0.00  0.00     0.030 H 
ATOM     16  H3  <0> d          -1.733  -0.181   1.267  0.00  0.00     0.030 H 
ENDBRANCH  11  13
BRANCH  11  17
ATOM     17  C3  <0> d          -0.724  -0.517  -1.243  0.00  0.00    -0.057 C 
ATOM     18  H5  <0> d          -0.224  -0.142  -2.136  0.00  0.00     0.030 H 
ATOM     19  H6  <0> d          -0.709  -1.607  -1.249  0.00  0.00     0.030 H 
ATOM     20  H7  <0> d          -1.756  -0.168  -1.231  0.00  0.00     0.030 H 
ENDBRANCH  11  17
ENDBRANCH   1  11
TORSDOF 3
