REMARK  5 active torsions:
REMARK  status: ('A' for Active; 'I' for Inactive)
REMARK    1  A    between atoms: C1_1  and  O1_2 
REMARK    2  A    between atoms: O1_2  and  C2_3 
REMARK    3  A    between atoms: C2_3  and  C3_5 
REMARK    4  A    between atoms: C3_5  and  C4_6 
REMARK    5  A    between atoms: C4_6  and  C5_7 
ROOT
ATOM      1  C3  <0> d           0.007   1.381   2.508  0.00  0.00     0.024 C 
ATOM      2  H4  <0> d           0.022   0.291   2.502  0.00  0.00     0.048 H 
ATOM      3  H5  <0> d           1.030   1.759   2.500  0.00  0.00     0.048 H 
ENDROOT
BRANCH   1   4
ATOM      4  C2  <0> d          -0.698   1.867   3.748  0.00  0.00     0.258 C 
ATOM      5  O2  <0> d          -1.691   2.549   3.650  0.00  0.00    -0.265 OA
BRANCH   4   6
ATOM      6  O1  <0> d          -0.224   1.543   4.961  0.00  0.00    -0.326 OA
BRANCH   6   7
ATOM      7  C1  <0> d          -0.954   2.046   6.111  0.00  0.00     0.013 C 
ATOM      8  H1  <0> d          -0.466   1.711   7.026  0.00  0.00     0.067 H 
ATOM      9  H2  <0> d          -0.969   3.135   6.084  0.00  0.00     0.067 H 
ATOM     10  H3  <0> d          -1.976   1.668   6.085  0.00  0.00     0.067 H 
ENDBRANCH   6   7
ENDBRANCH   4   6
ENDBRANCH   1   4
BRANCH   1  11
ATOM     11  C4  <0> d          -0.733   1.888   1.268  0.00  0.00     0.034 C 
ATOM     12  H6  <0> d          -0.748   2.978   1.274  0.00  0.00     0.046 H 
ATOM     13  H7  <0> d          -1.756   1.511   1.276  0.00  0.00     0.046 H 
BRANCH  11  14
ATOM     14  C5  <0> d          -0.017   1.395   0.010  0.00  0.00     0.388 C 
ATOM     15  F1  <0> d           0.002  -0.004   0.002  0.00  0.00    -0.171 F 
ATOM     16  F2  <0> d           1.296   1.879  -0.000  0.00  0.00    -0.171 F 
ATOM     17  F3  <0> d          -0.694   1.858  -1.124  0.00  0.00    -0.171 F 
ENDBRANCH  11  14
ENDBRANCH   1  11
TORSDOF 5
