REMARK  0 active torsions:
REMARK  status: ('A' for Active; 'I' for Inactive)
ROOT
ATOM      1  C1  <0> d           2.165   4.073   0.003  0.00  0.00    -0.049 A 
ATOM      2  C2  <0> d           3.419   3.519  -0.012  0.00  0.00     0.003 A 
ATOM      3  N1  <0> d           3.570   2.205  -0.020  0.00  0.00    -0.272 NA
ATOM      4  C3  <0> d           2.566   1.363  -0.015  0.00  0.00     0.013 A 
ATOM      5  C4  <0> d           1.232   1.827   0.000  0.00  0.00    -0.001 A 
ATOM      6  C5  <0> d           1.070   3.234   0.009  0.00  0.00     0.017 A 
ATOM      7  S1  <0> d          -0.688   3.452   0.027  0.00  0.00    -0.101 SA
ATOM      8  C6  <0> d          -1.179   1.738   0.017  0.00  0.00    -0.043 A 
ATOM      9  C7  <0> d          -0.013   1.076   0.008  0.00  0.00    -0.064 A 
ATOM     10  H1  <0> d           2.037   5.146   0.010  0.00  0.00     0.087 H 
ATOM     11  H2  <0> d           4.288   4.160  -0.017  0.00  0.00     0.114 H 
ATOM     12  H3  <0> d           2.760   0.301  -0.023  0.00  0.00     0.116 H 
ATOM     13  H4  <0> d          -2.179   1.329   0.019  0.00  0.00     0.095 H 
ATOM     14  H5  <0> d           0.002  -0.004   0.002  0.00  0.00     0.085 H 
ENDROOT
TORSDOF 0
