REMARK  0 active torsions:
REMARK  status: ('A' for Active; 'I' for Inactive)
ROOT
ATOM      1  C1  <0> d          -0.018   1.469   0.010  0.00  0.00     0.071 A 
ATOM      2  C2  <0> d          -0.739   1.823  -1.276  0.00  0.00     0.243 A 
ATOM      3  O1  <0> d          -0.989   2.933  -1.694  0.00  0.00    -0.271 OA
ATOM      4  N1  <0> d          -1.043   0.646  -1.858  0.00  0.00    -0.278 N 
ATOM      5  C3  <0> d          -0.619  -0.391  -1.127  0.00  0.00     0.323 A 
ATOM      6  N2  <0> d           0.002  -0.004   0.002  0.00  0.00    -0.334 N 
ATOM      7  O2  <0> d          -0.777  -1.553  -1.447  0.00  0.00    -0.247 OA
ATOM      8  H1  <0> d           0.997   1.866   0.003  0.00  0.00     0.078 H 
ATOM      9  H2  <0> d          -0.567   1.840   0.875  0.00  0.00     0.078 H 
ATOM     10  H3  <0> d          -1.512   0.561  -2.703  0.00  0.00     0.173 HD
ATOM     11  H4  <0> d           0.388  -0.582   0.678  0.00  0.00     0.164 HD
ENDROOT
TORSDOF 0
