REMARK  5 active torsions:
REMARK  status: ('A' for Active; 'I' for Inactive)
REMARK    1  A    between atoms: C1_1  and  C2_2 
REMARK    2  A    between atoms: C2_2  and  O1_3 
REMARK    3  A    between atoms: O1_3  and  C3_4 
REMARK    4  A    between atoms: C3_4  and  C4_6 
REMARK    5  A    between atoms: C5_7  and  C8_12 
ROOT
ATOM      1  C4  <0> d          -0.796   1.628   3.637  0.00  0.00     0.114 A 
ATOM      2  C5  <0> d          -0.371   1.331   4.915  0.00  0.00    -0.028 A 
ATOM      3  C6  <0> d          -1.262   1.950   5.796  0.00  0.00    -0.060 A 
ATOM      4  C7  <0> d          -2.199   2.592   5.057  0.00  0.00    -0.022 A 
ATOM      5  N1  <0> d          -1.928   2.405   3.748  0.00  0.00    -0.361 N 
ATOM      6  H1  <0> d          -2.445   2.760   3.008  0.00  0.00     0.165 HD
ATOM      7  H7  <0> d          -1.215   1.919   6.875  0.00  0.00     0.086 H 
ATOM      8  H8  <0> d          -3.028   3.161   5.451  0.00  0.00     0.111 H 
ENDROOT
BRANCH   1   9
ATOM      9  C3  <0> d          -0.164   1.192   2.390  0.00  0.00     0.310 C 
ATOM     10  O2  <0> d           0.839   0.504   2.424  0.00  0.00    -0.258 OA
BRANCH   9  11
ATOM     11  O1  <0> d          -0.692   1.554   1.203  0.00  0.00    -0.317 OA
BRANCH  11  12
ATOM     12  C2  <0> d          -0.013   1.086   0.008  0.00  0.00     0.026 C 
ATOM     13  H5  <0> d           0.002  -0.004   0.002  0.00  0.00     0.074 H 
ATOM     14  H6  <0> d           1.010   1.463   0.000  0.00  0.00     0.074 H 
BRANCH  12  15
ATOM     15  C1  <0> d          -0.753   1.593  -1.232  0.00  0.00    -0.056 C 
ATOM     16  H2  <0> d          -0.767   2.683  -1.226  0.00  0.00     0.030 H 
ATOM     17  H3  <0> d          -0.242   1.241  -2.128  0.00  0.00     0.030 H 
ATOM     18  H4  <0> d          -1.775   1.215  -1.224  0.00  0.00     0.030 H 
ENDBRANCH  12  15
ENDBRANCH  11  12
ENDBRANCH   9  11
ENDBRANCH   1   9
BRANCH   2  19
ATOM     19  C8  <0> d           0.829   0.499   5.291  0.00  0.00    -0.049 C 
ATOM     20  H9  <0> d           1.703   1.144   5.383  0.00  0.00     0.033 H 
ATOM     21  H10 <0> d           0.642   0.001   6.242  0.00  0.00     0.033 H 
ATOM     22  H11 <0> d           1.009  -0.248   4.518  0.00  0.00     0.033 H 
ENDBRANCH   2  19
TORSDOF 5
