REMARK  6 active torsions:
REMARK  status: ('A' for Active; 'I' for Inactive)
REMARK    1  A    between atoms: C1_1  and  O1_2 
REMARK    2  A    between atoms: O1_2  and  C2_3 
REMARK    3  A    between atoms: C2_3  and  C3_4 
REMARK    4  A    between atoms: C3_4  and  N1_5 
REMARK    5  A    between atoms: N1_5  and  C4_6 
REMARK    6  A    between atoms: C4_6  and  C5_7 
ROOT
ATOM      1  C3  <0> d          -0.683   1.857   3.689  0.00  0.00     0.131 C 
ATOM      2  H6  <0> d          -1.715   1.476   3.714  0.00  0.00     0.082 H 
ATOM      3  H7  <0> d          -0.698   2.957   3.712  0.00  0.00     0.082 H 
ENDROOT
BRANCH   1   4
ATOM      4  C2  <0> d           0.084   1.331   4.904  0.00  0.00     0.044 C 
ATOM      5  H4  <0> d           0.176   0.238   4.835  0.00  0.00     0.076 H 
ATOM      6  H5  <0> d          -0.460   1.596   5.823  0.00  0.00     0.076 H 
BRANCH   4   7
ATOM      7  O1  <0> d           1.386   1.918   4.935  0.00  0.00    -0.394 OA
BRANCH   7   8
ATOM      8  C1  <0> d           2.190   1.492   6.038  0.00  0.00     0.004 C 
ATOM      9  H1  <0> d           3.171   1.986   5.989  0.00  0.00     0.066 H 
ATOM     10  H2  <0> d           2.326   0.401   5.992  0.00  0.00     0.066 H 
ATOM     11  H3  <0> d           1.690   1.760   6.981  0.00  0.00     0.066 H 
ENDBRANCH   7   8
ENDBRANCH   4   7
ENDBRANCH   1   4
BRANCH   1  12
ATOM     12  N1  <0> d          -0.022   1.402   2.459  0.00  0.00     0.094 N 
ATOM     13  H8  <0> d           1.009   1.783   2.434  0.00  0.00     0.316 HD
BRANCH  12  14
ATOM     14  C4  <0> d          -0.733   1.888   1.268  0.00  0.00     0.200 C 
ATOM     15  H9  <0> d          -1.765   1.507   1.276  0.00  0.00     0.093 H 
ATOM     16  H10 <0> d          -0.748   2.988   1.274  0.00  0.00     0.093 H 
BRANCH  14  17
ATOM     17  C5  <0> d          -0.017   1.395   0.010  0.00  0.00     0.413 C 
ATOM     18  F1  <0> d           0.002  -0.004   0.002  0.00  0.00    -0.169 F 
ATOM     19  F2  <0> d           1.296   1.879  -0.000  0.00  0.00    -0.169 F 
ATOM     20  F3  <0> d          -0.694   1.858  -1.124  0.00  0.00    -0.169 F 
ENDBRANCH  14  17
ENDBRANCH  12  14
ENDBRANCH   1  12
TORSDOF 6
