REMARK  3 active torsions:
REMARK  status: ('A' for Active; 'I' for Inactive)
REMARK    1  A    between atoms: C1_1  and  C2_2 
REMARK    2  A    between atoms: C2_2  and  C3_3 
REMARK    3  A    between atoms: C2_2  and  C5_6 
ROOT
ATOM      1  C2  <0> d          -0.018   1.468   0.010  0.00  0.00     0.130 C 
ATOM      2  C4  <0> d           0.002  -0.004   0.002  0.00  0.00     0.079 C 
ATOM      3  N1  <0> d           0.018  -1.140  -0.004  0.00  0.00    -0.196 NA
ENDROOT
BRANCH   1   4
ATOM      4  C1  <0> d          -0.758   1.975  -1.229  0.00  0.00    -0.048 C 
ATOM      5  H1  <0> d          -1.780   1.597  -1.222  0.00  0.00     0.030 H 
ATOM      6  H2  <0> d          -0.773   3.064  -1.223  0.00  0.00     0.030 H 
ATOM      7  H3  <0> d          -0.248   1.623  -2.126  0.00  0.00     0.030 H 
ENDBRANCH   1   4
BRANCH   1   8
ATOM      8  C3  <0> d          -0.734   1.961   1.269  0.00  0.00    -0.048 C 
ATOM      9  H4  <0> d          -0.207   1.600   2.152  0.00  0.00     0.030 H 
ATOM     10  H5  <0> d          -0.749   3.051   1.275  0.00  0.00     0.030 H 
ATOM     11  H6  <0> d          -1.757   1.584   1.277  0.00  0.00     0.030 H 
ENDBRANCH   1   8
BRANCH   1  12
ATOM     12  C5  <0> d           1.396   1.989  -0.001  0.00  0.00     0.195 C 
ATOM     13  O1  <0> d           2.325   1.217  -0.014  0.00  0.00    -0.647 OA
ATOM     14  O2  <0> d           1.623   3.312   0.004  0.00  0.00    -0.647 OA
ENDBRANCH   1  12
TORSDOF 3
