REMARK  3 active torsions:
REMARK  status: ('A' for Active; 'I' for Inactive)
REMARK    1  A    between atoms: C2_2  and  C3_3 
REMARK    2  A    between atoms: C3_3  and  C4_4 
REMARK    3  A    between atoms: C4_4  and  C5_5 
ROOT
ATOM      1  C5  <0> d          -3.518   2.092  -1.152  0.00  0.00     0.015 C 
ATOM      2  C6  <0> d          -4.340   1.643  -2.287  0.00  0.00     0.059 C 
ATOM      3  N1  <0> d          -4.974   1.296  -3.163  0.00  0.00    -0.197 NA
ATOM      4  H8  <0> d          -4.042   1.885  -0.219  0.00  0.00     0.054 H 
ATOM      5  H9  <0> d          -3.335   3.163  -1.236  0.00  0.00     0.054 H 
ENDROOT
BRANCH   1   6
ATOM      6  C4  <0> d          -2.182   1.345  -1.162  0.00  0.00    -0.051 C 
ATOM      7  H6  <0> d          -1.658   1.552  -2.095  0.00  0.00     0.034 H 
ATOM      8  H7  <0> d          -2.365   0.274  -1.077  0.00  0.00     0.034 H 
BRANCH   6   9
ATOM      9  C3  <0> d          -1.328   1.812   0.018  0.00  0.00    -0.050 C 
ATOM     10  H4  <0> d          -1.853   1.605   0.951  0.00  0.00     0.038 H 
ATOM     11  H5  <0> d          -1.145   2.883  -0.066  0.00  0.00     0.038 H 
BRANCH   9  12
ATOM     12  C2  <0> d          -0.013   1.076   0.008  0.00  0.00    -0.112 C 
ATOM     13  C1  <0> d           1.113   1.746   0.001  0.00  0.00    -0.125 C 
ATOM     14  H1  <0> d           1.098   2.826   0.007  0.00  0.00     0.066 H 
ATOM     15  H2  <0> d           2.055   1.219  -0.011  0.00  0.00     0.066 H 
ATOM     16  H3  <0> d           0.002  -0.004   0.002  0.00  0.00     0.075 H 
ENDBRANCH   9  12
ENDBRANCH   6   9
ENDBRANCH   1   6
TORSDOF 3
