REMARK  1 active torsions:
REMARK  status: ('A' for Active; 'I' for Inactive)
REMARK    1  A    between atoms: C1_1  and  C2_2 
ROOT
ATOM      1  C2  <0> d          -1.229   3.229   0.030  0.00  0.00     0.008 A 
ATOM      2  C3  <0> d          -0.090   3.967   0.023  0.00  0.00    -0.060 A 
ATOM      3  C4  <0> d           1.154   3.335   0.009  0.00  0.00    -0.056 A 
ATOM      4  C5  <0> d           1.204   1.943   0.001  0.00  0.00     0.112 A 
ATOM      5  C6  <0> d          -0.015   1.215   0.009  0.00  0.00     0.266 A 
ATOM      6  O1  <0> d           0.002  -0.004   0.002  0.00  0.00    -0.267 OA
ATOM      7  N1  <0> d          -1.188   1.874   0.018  0.00  0.00    -0.326 N 
ATOM      8  H1  <0> d          -2.124   1.296   0.015  0.00  0.00     0.169 HD
ATOM      9  C7  <0> d           2.462   1.259  -0.015  0.00  0.00     0.105 C 
ATOM     10  N2  <0> d           3.460   0.717  -0.027  0.00  0.00    -0.191 NA
ATOM     11  H5  <0> d          -0.147   5.045   0.029  0.00  0.00     0.086 H 
ATOM     12  H6  <0> d           2.064   3.917   0.003  0.00  0.00     0.086 H 
ENDROOT
BRANCH   1  13
ATOM     13  C1  <0> d          -2.564   3.929   0.045  0.00  0.00    -0.037 C 
ATOM     14  H2  <0> d          -2.407   5.017   0.053  0.00  0.00     0.035 H 
ATOM     15  H3  <0> d          -3.123   3.632   0.945  0.00  0.00     0.035 H 
ATOM     16  H4  <0> d          -3.136   3.647  -0.851  0.00  0.00     0.035 H 
ENDBRANCH   1  13
TORSDOF 1
