REMARK  4 active torsions:
REMARK  status: ('A' for Active; 'I' for Inactive)
REMARK    1  A    between atoms: C1_1  and  N1_2 
REMARK    2  A    between atoms: N1_2  and  C2_3 
REMARK    3  A    between atoms: C7_8  and  O1_9 
REMARK    4  A    between atoms: O1_9  and  C8_10 
ROOT
ATOM      1  C2  <0> d           1.179   1.786   0.000  0.00  0.00     0.061 A 
ATOM      2  C3  <0> d          -0.013   1.076   0.008  0.00  0.00    -0.052 A 
ATOM      3  C4  <0> d          -1.219   1.751   0.017  0.00  0.00    -0.043 A 
ATOM      4  C5  <0> d          -1.241   3.135   0.030  0.00  0.00     0.119 A 
ATOM      5  C6  <0> d          -0.055   3.849   0.022  0.00  0.00    -0.011 A 
ATOM      6  C7  <0> d           1.157   3.178   0.008  0.00  0.00     0.097 A 
ATOM      7  F1  <0> d          -2.422   3.790   0.044  0.00  0.00    -0.206 F 
ATOM      8  H5  <0> d           0.002  -0.004   0.002  0.00  0.00     0.087 H 
ATOM      9  H6  <0> d          -2.146   1.197   0.019  0.00  0.00     0.088 H 
ATOM     10  H7  <0> d          -0.074   4.929   0.028  0.00  0.00     0.092 H 
ENDROOT
BRANCH   1  11
ATOM     11  N1  <0> d           2.402   1.103  -0.015  0.00  0.00    -0.392 N 
ATOM     12  H4  <0> d           3.235   1.600  -0.020  0.00  0.00     0.159 HD
BRANCH  11  13
ATOM     13  C1  <0> d           2.424  -0.362  -0.023  0.00  0.00    -0.021 C 
ATOM     14  H1  <0> d           3.457  -0.710  -0.035  0.00  0.00     0.056 H 
ATOM     15  H2  <0> d           1.924  -0.738   0.870  0.00  0.00     0.056 H 
ATOM     16  H3  <0> d           1.907  -0.728  -0.910  0.00  0.00     0.056 H 
ENDBRANCH  11  13
ENDBRANCH   1  11
BRANCH   6  17
ATOM     17  O1  <0> d           2.323   3.878   0.001  0.00  0.00    -0.354 OA
BRANCH  17  18
ATOM     18  C8  <0> d           2.224   5.304   0.009  0.00  0.00     0.010 C 
ATOM     19  H8  <0> d           1.678   5.635  -0.875  0.00  0.00     0.066 H 
ATOM     20  H9  <0> d           1.694   5.626   0.905  0.00  0.00     0.066 H 
ATOM     21  H10 <0> d           3.224   5.737   0.002  0.00  0.00     0.066 H 
ENDBRANCH  17  18
ENDBRANCH   6  17
TORSDOF 4
