REMARK  3 active torsions:
REMARK  status: ('A' for Active; 'I' for Inactive)
REMARK    1  A    between atoms: C5_5  and  C7_7 
REMARK    2  A    between atoms: C7_7  and  C8_8 
REMARK    3  A    between atoms: C8_8  and  O1_9 
ROOT
ATOM      1  C1  <0> d           0.258  -0.542   4.230  0.00  0.00    -0.082 A 
ATOM      2  C2  <0> d           1.338   0.163   4.729  0.00  0.00    -0.080 A 
ATOM      3  C3  <0> d           1.750   1.327   4.108  0.00  0.00    -0.045 A 
ATOM      4  C4  <0> d           1.081   1.787   2.986  0.00  0.00     0.122 A 
ATOM      5  C5  <0> d           0.000   1.080   2.488  0.00  0.00    -0.018 A 
ATOM      6  C6  <0> d          -0.414  -0.081   3.114  0.00  0.00    -0.074 A 
ATOM      7  F1  <0> d           1.482   2.925   2.379  0.00  0.00    -0.206 F 
ATOM      8  H1  <0> d          -0.063  -1.452   4.716  0.00  0.00     0.083 H 
ATOM      9  H2  <0> d           1.859  -0.196   5.604  0.00  0.00     0.083 H 
ATOM     10  H3  <0> d           2.593   1.878   4.498  0.00  0.00     0.088 H 
ATOM     11  H4  <0> d          -1.260  -0.630   2.727  0.00  0.00     0.084 H 
ENDROOT
BRANCH   5  12
ATOM     12  C7  <0> d          -0.729   1.579   1.267  0.00  0.00    -0.018 C 
ATOM     13  H5  <0> d          -0.744   2.669   1.273  0.00  0.00     0.043 H 
ATOM     14  H6  <0> d          -1.751   1.202   1.275  0.00  0.00     0.043 H 
BRANCH  12  15
ATOM     15  C8  <0> d          -0.013   1.086   0.008  0.00  0.00     0.021 C 
ATOM     16  H7  <0> d           0.002  -0.004   0.002  0.00  0.00     0.074 H 
ATOM     17  H8  <0> d           1.010   1.463   0.000  0.00  0.00     0.074 H 
BRANCH  15  18
ATOM     18  O1  <0> d          -0.704   1.559  -1.150  0.00  0.00    -0.401 OA
ATOM     19  H9  <0> d          -0.304   1.284  -1.986  0.00  0.00     0.209 HD
ENDBRANCH  15  18
ENDBRANCH  12  15
ENDBRANCH   5  12
TORSDOF 3
