REMARK  3 active torsions:
REMARK  status: ('A' for Active; 'I' for Inactive)
REMARK    1  A    between atoms: C1_1  and  C2_2 
REMARK    2  A    between atoms: N1_5  and  C7_11 
REMARK    3  A    between atoms: C5_7  and  C6_10 
ROOT
ATOM      1  C2  <0> d           0.002  -0.004   0.002  0.00  0.00     0.061 C 
ATOM      2  H1  <0> d           0.512  -0.356  -0.895  0.00  0.00     0.085 H 
ATOM      3  C3  <0> d          -1.434  -0.535   0.015  0.00  0.00     0.136 C 
ATOM      4  N1  <0> d          -2.093  -0.120   1.262  0.00  0.00     0.089 N 
ATOM      5  C4  <0> d          -1.358  -0.625   2.432  0.00  0.00     0.136 C 
ATOM      6  C5  <0> d           0.077  -0.093   2.394  0.00  0.00     0.061 C 
ATOM      7  H2  <0> d           0.064   0.995   2.470  0.00  0.00     0.085 H 
ATOM      8  O1  <0> d           0.692  -0.479   1.161  0.00  0.00    -0.378 OA
ATOM      9  H6  <0> d          -1.980  -0.130  -0.837  0.00  0.00     0.083 H 
ATOM     10  H7  <0> d          -1.420  -1.623  -0.045  0.00  0.00     0.083 H 
ATOM     11  H8  <0> d          -1.849  -0.284   3.344  0.00  0.00     0.083 H 
ATOM     12  H9  <0> d          -1.343  -1.714   2.410  0.00  0.00     0.083 H 
ENDROOT
BRANCH   1  13
ATOM     13  C1  <0> d          -0.019   1.526   0.010  0.00  0.00    -0.051 C 
ATOM     14  H3  <0> d           1.004   1.903   0.003  0.00  0.00     0.030 H 
ATOM     15  H4  <0> d          -0.546   1.887  -0.873  0.00  0.00     0.030 H 
ATOM     16  H5  <0> d          -0.529   1.877   0.907  0.00  0.00     0.030 H 
ENDBRANCH   1  13
BRANCH   6  17
ATOM     17  C6  <0> d           0.869  -0.677   3.566  0.00  0.00    -0.051 C 
ATOM     18  H10 <0> d           0.882  -1.764   3.489  0.00  0.00     0.030 H 
ATOM     19  H11 <0> d           1.890  -0.298   3.539  0.00  0.00     0.030 H 
ATOM     20  H12 <0> d           0.398  -0.385   4.505  0.00  0.00     0.030 H 
ENDBRANCH   6  17
BRANCH   4  21
ATOM     21  C7  <0> d          -3.494  -0.562   1.290  0.00  0.00     0.095 C 
ATOM     22  H13 <0> d          -3.533  -1.649   1.218  0.00  0.00     0.071 H 
ATOM     23  H14 <0> d          -3.957  -0.242   2.223  0.00  0.00     0.071 H 
ATOM     24  H15 <0> d          -4.029  -0.123   0.448  0.00  0.00     0.071 H 
ENDBRANCH   4  21
TORSDOF 3
