REMARK  5 active torsions:
REMARK  status: ('A' for Active; 'I' for Inactive)
REMARK    1  A    between atoms: C1_1  and  C2_2 
REMARK    2  A    between atoms: C2_2  and  C3_3 
REMARK    3  A    between atoms: C2_2  and  C4_4 
REMARK    4  A    between atoms: C5_5  and  C7_9 
REMARK    5  A    between atoms: C7_9  and  O2_10 
ROOT
ATOM      1  C4  <0> d          -1.412  -0.526   0.013  0.00  0.00     0.084 A 
ATOM      2  C5  <0> d          -1.981  -1.308  -0.919  0.00  0.00     0.089 A 
ATOM      3  N1  <0> d          -3.247  -1.546  -0.535  0.00  0.00    -0.236 NA
ATOM      4  C6  <0> d          -3.462  -0.935   0.596  0.00  0.00     0.103 A 
ATOM      5  O1  <0> d          -2.341  -0.300   0.962  0.00  0.00    -0.306 OA
ATOM      6  H8  <0> d          -4.390  -0.943   1.148  0.00  0.00     0.155 H 
ENDROOT
BRANCH   1   7
ATOM      7  C2  <0> d           0.002  -0.004   0.002  0.00  0.00    -0.012 C 
ATOM      8  H4  <0> d           0.512  -0.356  -0.895  0.00  0.00     0.049 H 
BRANCH   7   9
ATOM      9  C1  <0> d          -0.019   1.526   0.010  0.00  0.00    -0.067 C 
ATOM     10  H1  <0> d           1.004   1.903   0.003  0.00  0.00     0.028 H 
ATOM     11  H2  <0> d          -0.546   1.887  -0.873  0.00  0.00     0.028 H 
ATOM     12  H3  <0> d          -0.529   1.877   0.907  0.00  0.00     0.028 H 
ENDBRANCH   7   9
BRANCH   7  13
ATOM     13  C3  <0> d           0.742  -0.511   1.242  0.00  0.00    -0.067 C 
ATOM     14  H5  <0> d           0.232  -0.159   2.138  0.00  0.00     0.028 H 
ATOM     15  H6  <0> d           0.757  -1.601   1.236  0.00  0.00     0.028 H 
ATOM     16  H7  <0> d           1.765  -0.134   1.234  0.00  0.00     0.028 H 
ENDBRANCH   7  13
ENDBRANCH   1   7
BRANCH   2  17
ATOM     17  C7  <0> d          -1.319  -1.826  -2.170  0.00  0.00     0.059 C 
ATOM     18  H9  <0> d          -2.068  -1.952  -2.952  0.00  0.00     0.083 H 
ATOM     19  H10 <0> d          -0.563  -1.115  -2.502  0.00  0.00     0.083 H 
BRANCH  17  20
ATOM     20  O2  <0> d          -0.701  -3.085  -1.896  0.00  0.00    -0.395 OA
ATOM     21  H11 <0> d          -0.254  -3.478  -2.658  0.00  0.00     0.209 HD
ENDBRANCH  17  20
ENDBRANCH   2  17
TORSDOF 5
