REMARK  1 active torsions:
REMARK  status: ('A' for Active; 'I' for Inactive)
REMARK    1  A    between atoms: C1_1  and  C2_2 
ROOT
ATOM      1  C2  <0> d           2.294   0.038  -0.019  0.00  0.00     0.049 A 
ATOM      2  C3  <0> d           2.275   1.434  -0.011  0.00  0.00     0.026 A 
ATOM      3  N1  <0> d           1.137   2.090   0.002  0.00  0.00    -0.257 NA
ATOM      4  C4  <0> d          -0.017   1.413   0.010  0.00  0.00     0.085 A 
ATOM      5  C5  <0> d          -1.252   2.085   0.031  0.00  0.00    -0.053 A 
ATOM      6  C6  <0> d          -2.409   1.369   0.033  0.00  0.00    -0.081 A 
ATOM      7  C7  <0> d          -2.390  -0.025   0.026  0.00  0.00    -0.081 A 
ATOM      8  C8  <0> d          -1.214  -0.709   0.010  0.00  0.00    -0.053 A 
ATOM      9  C9  <0> d           0.002  -0.004   0.002  0.00  0.00     0.085 A 
ATOM     10  N2  <0> d           1.174  -0.648  -0.012  0.00  0.00    -0.250 NA
ATOM     11  H4  <0> d           3.206   1.981  -0.016  0.00  0.00     0.117 H 
ATOM     12  H5  <0> d          -1.282   3.165   0.037  0.00  0.00     0.087 H 
ATOM     13  H6  <0> d          -3.356   1.888   0.046  0.00  0.00     0.083 H 
ATOM     14  H7  <0> d          -3.323  -0.570   0.032  0.00  0.00     0.083 H 
ATOM     15  H8  <0> d          -1.215  -1.789   0.005  0.00  0.00     0.087 H 
ENDROOT
BRANCH   1  16
ATOM     16  C1  <0> d           3.614  -0.690  -0.034  0.00  0.00    -0.034 C 
ATOM     17  H1  <0> d           3.923  -0.860  -1.065  0.00  0.00     0.035 H 
ATOM     18  H2  <0> d           4.366  -0.088   0.476  0.00  0.00     0.035 H 
ATOM     19  H3  <0> d           3.507  -1.647   0.476  0.00  0.00     0.035 H 
ENDBRANCH   1  16
TORSDOF 1
