REMARK  3 active torsions:
REMARK  status: ('A' for Active; 'I' for Inactive)
REMARK    1  A    between atoms: C1_1  and  C2_2 
REMARK    2  A    between atoms: C2_2  and  N1_3 
REMARK       I    between atoms: N1_3  and  C3_4 
REMARK    3  A    between atoms: C3_4  and  C4_6 
ROOT
ATOM      1  C4  <0> d          -0.018   1.474   0.010  0.00  0.00     0.032 A 
ATOM      2  C5  <0> d          -1.234   2.159   0.020  0.00  0.00    -0.068 A 
ATOM      3  C6  <0> d          -1.246   3.538   0.033  0.00  0.00    -0.082 A 
ATOM      4  C7  <0> d          -0.056   4.243   0.025  0.00  0.00    -0.083 A 
ATOM      5  C8  <0> d           1.154   3.571   0.010  0.00  0.00    -0.082 A 
ATOM      6  C9  <0> d           1.179   2.192   0.003  0.00  0.00    -0.068 A 
ATOM      7  H7  <0> d          -2.164   1.609   0.021  0.00  0.00     0.085 H 
ATOM      8  H8  <0> d          -2.187   4.069   0.044  0.00  0.00     0.083 H 
ATOM      9  H9  <0> d          -0.070   5.323   0.030  0.00  0.00     0.083 H 
ATOM     10  H10 <0> d           2.079   4.127   0.004  0.00  0.00     0.083 H 
ATOM     11  H11 <0> d           2.124   1.668  -0.009  0.00  0.00     0.085 H 
ENDROOT
BRANCH   1  12
ATOM     12  C3  <0> d           0.002  -0.004   0.002  0.00  0.00     0.251 C 
ATOM     13  N1  <0> d          -1.156  -0.694   0.009  0.00  0.00    -0.357 N 
ATOM     14  H6  <0> d          -2.002  -0.220   0.020  0.00  0.00     0.162 HD
ATOM     15  O1  <0> d           1.063  -0.597  -0.011  0.00  0.00    -0.268 OA
BRANCH  13  16
ATOM     16  C2  <0> d          -1.136  -2.159   0.001  0.00  0.00    -0.008 C 
ATOM     17  H4  <0> d          -0.626  -2.510  -0.895  0.00  0.00     0.063 H 
ATOM     18  H5  <0> d          -0.609  -2.520   0.884  0.00  0.00     0.063 H 
BRANCH  16  19
ATOM     19  C1  <0> d          -2.571  -2.688   0.012  0.00  0.00    -0.061 C 
ATOM     20  H1  <0> d          -3.082  -2.337   0.909  0.00  0.00     0.029 H 
ATOM     21  H2  <0> d          -3.099  -2.327  -0.871  0.00  0.00     0.029 H 
ATOM     22  H3  <0> d          -2.557  -3.778   0.006  0.00  0.00     0.029 H 
ENDBRANCH  16  19
ENDBRANCH  13  16
ENDBRANCH   1  12
TORSDOF 3
