REMARK  4 active torsions:
REMARK  status: ('A' for Active; 'I' for Inactive)
REMARK    1  A    between atoms: C1_1  and  C2_2 
REMARK    2  A    between atoms: C2_2  and  O1_3 
REMARK    3  A    between atoms: O1_3  and  C3_4 
REMARK    4  A    between atoms: C3_4  and  C4_6 
ROOT
ATOM      1  C4  <0> d           1.455  -2.347  -2.526  0.00  0.00     0.057 A 
ATOM      2  C5  <0> d           1.565  -3.732  -2.709  0.00  0.00    -0.064 A 
ATOM      3  C6  <0> d           2.211  -4.194  -3.842  0.00  0.00    -0.065 A 
ATOM      4  C7  <0> d           2.721  -3.284  -4.750  0.00  0.00     0.002 A 
ATOM      5  N1  <0> d           2.602  -1.985  -4.552  0.00  0.00    -0.272 NA
ATOM      6  C8  <0> d           1.992  -1.495  -3.493  0.00  0.00     0.018 A 
ATOM      7  H6  <0> d           1.158  -4.420  -1.983  0.00  0.00     0.085 H 
ATOM      8  H7  <0> d           2.315  -5.255  -4.015  0.00  0.00     0.085 H 
ATOM      9  H8  <0> d           3.225  -3.642  -5.635  0.00  0.00     0.114 H 
ATOM     10  H9  <0> d           1.910  -0.425  -3.368  0.00  0.00     0.116 H 
ENDROOT
BRANCH   1  11
ATOM     11  C3  <0> d           0.776  -1.798  -1.335  0.00  0.00     0.294 C 
ATOM     12  O2  <0> d           0.312  -2.549  -0.500  0.00  0.00    -0.259 OA
BRANCH  11  13
ATOM     13  O1  <0> d           0.671  -0.465  -1.174  0.00  0.00    -0.318 OA
BRANCH  13  14
ATOM     14  C2  <0> d           0.002  -0.004   0.002  0.00  0.00     0.026 C 
ATOM     15  H4  <0> d           0.529  -0.365   0.885  0.00  0.00     0.074 H 
ATOM     16  H5  <0> d          -1.020  -0.381   0.010  0.00  0.00     0.074 H 
BRANCH  14  17
ATOM     17  C1  <0> d          -0.019   1.526   0.010  0.00  0.00    -0.056 C 
ATOM     18  H1  <0> d           1.004   1.903   0.003  0.00  0.00     0.030 H 
ATOM     19  H2  <0> d          -0.546   1.887  -0.873  0.00  0.00     0.030 H 
ATOM     20  H3  <0> d          -0.529   1.877   0.907  0.00  0.00     0.030 H 
ENDBRANCH  14  17
ENDBRANCH  13  14
ENDBRANCH  11  13
ENDBRANCH   1  11
TORSDOF 4
