REMARK  1 active torsions:
REMARK  status: ('A' for Active; 'I' for Inactive)
REMARK    1  A    between atoms: C1_1  and  N1_2 
ROOT
ATOM      1  N1  <0> d          -0.698   1.558   1.213  0.00  0.00    -0.232 N 
ATOM      2  C2  <0> d          -1.234   0.793   2.176  0.00  0.00     0.252 A 
ATOM      3  O1  <0> d          -1.200  -0.418   2.141  0.00  0.00    -0.270 OA
ATOM      4  C3  <0> d          -1.875   1.547   3.296  0.00  0.00     0.079 A 
ATOM      5  N2  <0> d          -1.776   2.999   3.093  0.00  0.00    -0.294 N 
ATOM      6  S1  <0> d          -0.953   3.146   1.648  0.00  0.00     0.323 S 
ATOM      7  O2  <0> d           0.317   3.714   1.938  0.00  0.00    -0.182 OA
ATOM      8  O3  <0> d          -1.858   3.703   0.705  0.00  0.00    -0.182 OA
ATOM      9  H4  <0> d          -2.926   1.267   3.359  0.00  0.00     0.079 H 
ATOM     10  H5  <0> d          -1.381   1.284   4.232  0.00  0.00     0.079 H 
ATOM     11  H6  <0> d          -2.107   3.707   3.668  0.00  0.00     0.174 HD
ENDROOT
BRANCH   1  12
ATOM     12  C1  <0> d          -0.013   1.086   0.008  0.00  0.00     0.000 C 
ATOM     13  H1  <0> d           0.002  -0.004   0.002  0.00  0.00     0.058 H 
ATOM     14  H2  <0> d           1.010   1.463   0.000  0.00  0.00     0.058 H 
ATOM     15  H3  <0> d          -0.540   1.447  -0.875  0.00  0.00     0.058 H 
ENDBRANCH   1  12
TORSDOF 1
