REMARK  3 active torsions:
REMARK  status: ('A' for Active; 'I' for Inactive)
REMARK    1  A    between atoms: C1_1  and  N1_2 
REMARK       I    between atoms: N1_2  and  C2_3 
REMARK    2  A    between atoms: C2_3  and  C3_5 
REMARK    3  A    between atoms: C5_7  and  N4_11 
ROOT
ATOM      1  C3  <0> d          -1.136  -2.171   0.001  0.00  0.00     0.148 A 
ATOM      2  C4  <0> d          -2.266  -3.014   0.002  0.00  0.00    -0.005 A 
ATOM      3  C5  <0> d          -1.825  -4.299  -0.007  0.00  0.00     0.117 A 
ATOM      4  N2  <0> d          -0.465  -4.271  -0.013  0.00  0.00    -0.262 N 
ATOM      5  H1  <0> d           0.120  -5.044  -0.020  0.00  0.00     0.191 HD
ATOM      6  N3  <0> d          -0.058  -2.931  -0.014  0.00  0.00    -0.168 NA
ATOM      7  H6  <0> d          -3.298  -2.696   0.009  0.00  0.00     0.093 H 
ENDROOT
BRANCH   1   8
ATOM      8  C2  <0> d          -1.156  -0.694   0.009  0.00  0.00     0.271 C 
ATOM      9  N1  <0> d           0.002  -0.004   0.002  0.00  0.00    -0.360 N 
ATOM     10  H5  <0> d           0.849  -0.478  -0.009  0.00  0.00     0.162 HD
ATOM     11  O1  <0> d          -2.217  -0.100   0.023  0.00  0.00    -0.266 OA
BRANCH   9  12
ATOM     12  C1  <0> d          -0.018   1.461   0.010  0.00  0.00    -0.018 C 
ATOM     13  H2  <0> d           1.005   1.838   0.002  0.00  0.00     0.056 H 
ATOM     14  H3  <0> d          -0.545   1.822  -0.873  0.00  0.00     0.056 H 
ATOM     15  H4  <0> d          -0.528   1.812   0.907  0.00  0.00     0.056 H 
ENDBRANCH   9  12
ENDBRANCH   1   8
BRANCH   3  16
ATOM     16  N4  <0> d          -2.622  -5.441  -0.009  0.00  0.00    -0.384 N 
ATOM     17  H7  <0> d          -3.588  -5.357  -0.004  0.00  0.00     0.157 HD
ATOM     18  H8  <0> d          -2.211  -6.319  -0.016  0.00  0.00     0.157 HD
ENDBRANCH   3  16
TORSDOF 3
