REMARK  5 active torsions:
REMARK  status: ('A' for Active; 'I' for Inactive)
REMARK    1  A    between atoms: C1_1  and  C2_2 
REMARK    2  A    between atoms: C2_2  and  C3_3 
REMARK    3  A    between atoms: C3_3  and  C4_4 
REMARK    4  A    between atoms: C4_4  and  C5_5 
REMARK    5  A    between atoms: C6_7  and  C9_13 
ROOT
ATOM      1  C5  <0> d           2.157   0.953   0.474  0.00  0.00     0.051 C 
ATOM      2  H1  <0> d           2.255   0.998   1.559  0.00  0.00     0.084 H 
ATOM      3  C6  <0> d           1.500  -0.379   0.046  0.00  0.00    -0.023 C 
ATOM      4  H2  <0> d           1.851  -0.690  -0.938  0.00  0.00     0.044 H 
ATOM      5  C7  <0> d           0.002  -0.004   0.002  0.00  0.00     0.021 C 
ATOM      6  C8  <0> d          -0.018   1.509   0.010  0.00  0.00     0.259 C 
ATOM      7  O1  <0> d          -1.016   2.190   0.019  0.00  0.00    -0.265 OA
ATOM      8  O2  <0> d           1.236   1.981   0.001  0.00  0.00    -0.316 OA
ATOM      9  H12 <0> d          -0.513  -0.395   0.879  0.00  0.00     0.048 H 
ATOM     10  H13 <0> d          -0.458  -0.385  -0.910  0.00  0.00     0.048 H 
ENDROOT
BRANCH   1  11
ATOM     11  C4  <0> d           3.525   1.113  -0.192  0.00  0.00    -0.040 C 
ATOM     12  H10 <0> d           4.142   0.243   0.033  0.00  0.00     0.036 H 
ATOM     13  H11 <0> d           3.396   1.198  -1.271  0.00  0.00     0.036 H 
BRANCH  11  14
ATOM     14  C3  <0> d           4.207   2.374   0.342  0.00  0.00    -0.063 C 
ATOM     15  H8  <0> d           3.590   3.244   0.117  0.00  0.00     0.033 H 
ATOM     16  H9  <0> d           4.336   2.288   1.421  0.00  0.00     0.033 H 
BRANCH  14  17
ATOM     17  C2  <0> d           5.575   2.534  -0.325  0.00  0.00    -0.068 C 
ATOM     18  H6  <0> d           6.193   1.664  -0.100  0.00  0.00     0.032 H 
ATOM     19  H7  <0> d           5.447   2.619  -1.403  0.00  0.00     0.032 H 
BRANCH  17  20
ATOM     20  C1  <0> d           6.258   3.795   0.209  0.00  0.00    -0.077 C 
ATOM     21  H3  <0> d           5.641   4.665  -0.015  0.00  0.00     0.027 H 
ATOM     22  H4  <0> d           6.387   3.709   1.288  0.00  0.00     0.027 H 
ATOM     23  H5  <0> d           7.233   3.909  -0.266  0.00  0.00     0.027 H 
ENDBRANCH  17  20
ENDBRANCH  14  17
ENDBRANCH  11  14
ENDBRANCH   1  11
BRANCH   3  24
ATOM     24  C9  <0> d           1.758  -1.473   1.085  0.00  0.00    -0.070 C 
ATOM     25  H14 <0> d           1.201  -2.370   0.814  0.00  0.00     0.028 H 
ATOM     26  H15 <0> d           2.823  -1.701   1.115  0.00  0.00     0.028 H 
ATOM     27  H16 <0> d           1.433  -1.126   2.066  0.00  0.00     0.028 H 
ENDBRANCH   3  24
TORSDOF 5
