REMARK  1 active torsions:
REMARK  status: ('A' for Active; 'I' for Inactive)
REMARK    1  A    between atoms: C3_3  and  N4_11 
ROOT
ATOM      1  C1  <0> d           0.002  -0.004   0.002  0.00  0.00    -0.078 A 
ATOM      2  C2  <0> d           1.205  -0.710  -0.013  0.00  0.00    -0.055 A 
ATOM      3  C3  <0> d           2.405  -0.057  -0.021  0.00  0.00     0.059 A 
ATOM      4  C4  <0> d           2.428   1.356  -0.014  0.00  0.00     0.135 A 
ATOM      5  C5  <0> d           1.196   2.071   0.002  0.00  0.00     0.111 A 
ATOM      6  C6  <0> d          -0.016   1.355   0.009  0.00  0.00    -0.051 A 
ATOM      7  N1  <0> d           1.532   3.353   0.006  0.00  0.00    -0.155 NA
ATOM      8  N2  <0> d           2.817   3.442  -0.006  0.00  0.00    -0.196 N 
ATOM      9  H1  <0> d           3.319   4.307  -0.005  0.00  0.00     0.213 HD
ATOM     10  N3  <0> d           3.374   2.281  -0.018  0.00  0.00    -0.153 NA
ATOM     11  H2  <0> d          -0.931  -0.547   0.008  0.00  0.00     0.083 H 
ATOM     12  H3  <0> d           1.188  -1.790  -0.018  0.00  0.00     0.087 H 
ATOM     13  H4  <0> d          -0.958   1.884   0.017  0.00  0.00     0.087 H 
ENDROOT
BRANCH   3  14
ATOM     14  N4  <0> d           3.597  -0.778  -0.035  0.00  0.00    -0.397 N 
ATOM     15  H5  <0> d           3.577  -1.748  -0.040  0.00  0.00     0.156 HD
ATOM     16  H6  <0> d           4.447  -0.311  -0.041  0.00  0.00     0.156 HD
ENDBRANCH   3  14
TORSDOF 1
