REMARK  6 active torsions:
REMARK  status: ('A' for Active; 'I' for Inactive)
REMARK    1  A    between atoms: C1_1  and  C2_2 
REMARK    2  A    between atoms: C2_2  and  C3_3 
REMARK    3  A    between atoms: C4_4  and  C5_5 
REMARK    4  A    between atoms: C5_5  and  C6_6 
REMARK    5  A    between atoms: C6_6  and  O2_8 
REMARK    6  A    between atoms: O2_8  and  C7_9 
ROOT
ATOM      1  C3  <0> d           0.002  -0.004   0.002  0.00  0.00    -0.106 C 
ATOM      2  C4  <0> d          -0.016   1.306   0.009  0.00  0.00    -0.098 C 
ATOM      3  H6  <0> d          -0.926  -0.557   0.008  0.00  0.00     0.076 H 
ATOM      4  H7  <0> d           0.912   1.859   0.003  0.00  0.00     0.077 H 
ENDROOT
BRANCH   2   5
ATOM      5  C5  <0> d          -1.331   2.042   0.019  0.00  0.00     0.031 C 
ATOM      6  H8  <0> d          -1.440   2.603  -0.908  0.00  0.00     0.053 H 
ATOM      7  H9  <0> d          -2.147   1.325   0.109  0.00  0.00     0.053 H 
BRANCH   5   8
ATOM      8  C6  <0> d          -1.366   2.992   1.189  0.00  0.00     0.261 C 
ATOM      9  O1  <0> d          -0.420   3.064   1.937  0.00  0.00    -0.265 OA
BRANCH   8  10
ATOM     10  O2  <0> d          -2.448   3.757   1.399  0.00  0.00    -0.326 OA
BRANCH  10  11
ATOM     11  C7  <0> d          -2.412   4.649   2.544  0.00  0.00     0.013 C 
ATOM     12  H10 <0> d          -2.285   4.065   3.456  0.00  0.00     0.067 H 
ATOM     13  H11 <0> d          -1.578   5.343   2.438  0.00  0.00     0.067 H 
ATOM     14  H12 <0> d          -3.346   5.209   2.598  0.00  0.00     0.067 H 
ENDBRANCH  10  11
ENDBRANCH   8  10
ENDBRANCH   5   8
ENDBRANCH   2   5
BRANCH   1  15
ATOM     15  C2  <0> d           1.317  -0.740  -0.015  0.00  0.00    -0.053 C 
ATOM     16  H4  <0> d           1.413  -1.291  -0.950  0.00  0.00     0.038 H 
ATOM     17  H5  <0> d           2.135  -0.024   0.071  0.00  0.00     0.038 H 
BRANCH  15  18
ATOM     18  C1  <0> d           1.370  -1.717   1.161  0.00  0.00    -0.073 C 
ATOM     19  H1  <0> d           2.321  -2.249   1.149  0.00  0.00     0.027 H 
ATOM     20  H2  <0> d           1.274  -1.166   2.097  0.00  0.00     0.027 H 
ATOM     21  H3  <0> d           0.552  -2.433   1.076  0.00  0.00     0.027 H 
ENDBRANCH  15  18
ENDBRANCH   1  15
TORSDOF 6
