REMARK  0 active torsions:
REMARK  status: ('A' for Active; 'I' for Inactive)
ROOT
ATOM      1  C1  <0> d          -0.018   1.447   0.010  0.00  0.00    -0.059 A 
ATOM      2  C2  <0> d           1.145   2.118   0.003  0.00  0.00    -0.042 A 
ATOM      3  S1  <0> d           2.370   0.822  -0.016  0.00  0.00    -0.081 SA
ATOM      4  C3  <0> d           1.284  -0.582  -0.013  0.00  0.00     0.114 A 
ATOM      5  C4  <0> d           0.002  -0.004   0.002  0.00  0.00     0.068 A 
ATOM      6  C5  <0> d          -1.093  -0.928   0.007  0.00  0.00     0.259 A 
ATOM      7  O1  <0> d          -2.243  -0.525   0.020  0.00  0.00    -0.267 OA
ATOM      8  N1  <0> d          -0.832  -2.248  -0.003  0.00  0.00    -0.317 N 
ATOM      9  H1  <0> d          -1.569  -2.879   0.000  0.00  0.00     0.169 HD
ATOM     10  C6  <0> d           0.443  -2.716  -0.018  0.00  0.00     0.068 A 
ATOM     11  N2  <0> d           1.462  -1.899  -0.023  0.00  0.00    -0.236 NA
ATOM     12  H2  <0> d          -0.956   1.980   0.026  0.00  0.00     0.086 H 
ATOM     13  H3  <0> d           1.301   3.187   0.006  0.00  0.00     0.095 H 
ATOM     14  H4  <0> d           0.617  -3.782  -0.026  0.00  0.00     0.143 H 
ENDROOT
TORSDOF 0
