REMARK  3 active torsions:
REMARK  status: ('A' for Active; 'I' for Inactive)
REMARK    1  A    between atoms: C1_1  and  C2_2 
REMARK    2  A    between atoms: C2_2  and  O2_4 
REMARK    3  A    between atoms: O2_4  and  C3_5 
ROOT
ATOM      1  C3  <0> d          -1.015   3.067  -1.103  0.00  0.00     0.053 C 
ATOM      2  C4  <0> d          -1.064   3.693   0.037  0.00  0.00    -0.074 C 
ATOM      3  C5  <0> d          -0.720   3.063   1.356  0.00  0.00    -0.048 C 
ATOM      4  C6  <0> d          -0.725   1.538   1.232  0.00  0.00    -0.062 C 
ATOM      5  C7  <0> d           0.109   1.147   0.005  0.00  0.00    -0.059 C 
ATOM      6  C8  <0> d          -0.618   1.627  -1.253  0.00  0.00    -0.021 C 
ATOM      7  H4  <0> d          -1.370   4.729   0.035  0.00  0.00     0.080 H 
ATOM      8  H5  <0> d           0.271   3.394   1.667  0.00  0.00     0.038 H 
ATOM      9  H6  <0> d          -1.454   3.366   2.103  0.00  0.00     0.038 H 
ATOM     10  H7  <0> d          -1.749   1.188   1.106  0.00  0.00     0.033 H 
ATOM     11  H8  <0> d          -0.290   1.094   2.127  0.00  0.00     0.033 H 
ATOM     12  H9  <0> d           0.224   0.064  -0.029  0.00  0.00     0.033 H 
ATOM     13  H10 <0> d           1.090   1.618   0.064  0.00  0.00     0.033 H 
ATOM     14  H11 <0> d           0.043   1.523  -2.114  0.00  0.00     0.043 H 
ATOM     15  H12 <0> d          -1.511   1.022  -1.407  0.00  0.00     0.043 H 
ENDROOT
BRANCH   1  16
ATOM     16  O2  <0> d          -1.343   3.758  -2.224  0.00  0.00    -0.284 OA
BRANCH  16  17
ATOM     17  C2  <0> d          -2.453   3.374  -2.874  0.00  0.00     0.259 C 
ATOM     18  O1  <0> d          -3.160   2.514  -2.405  0.00  0.00    -0.265 OA
BRANCH  17  19
ATOM     19  C1  <0> d          -2.816   4.015  -4.189  0.00  0.00     0.004 C 
ATOM     20  H1  <0> d          -2.065   4.761  -4.449  0.00  0.00     0.041 H 
ATOM     21  H2  <0> d          -2.854   3.252  -4.967  0.00  0.00     0.041 H 
ATOM     22  H3  <0> d          -3.791   4.495  -4.102  0.00  0.00     0.041 H 
ENDBRANCH  17  19
ENDBRANCH  16  17
ENDBRANCH   1  16
TORSDOF 3
