REMARK  4 active torsions:
REMARK  status: ('A' for Active; 'I' for Inactive)
REMARK    1  A    between atoms: C1_1  and  C2_2 
REMARK    2  A    between atoms: C2_2  and  C3_4 
REMARK    3  A    between atoms: C2_2  and  O1_9 
REMARK    4  A    between atoms: C3_4  and  C4_5 
ROOT
ATOM      1  C2  <0> d          -0.013   1.086   0.008  0.00  0.00     0.040 C 
ATOM      2  H1  <0> d           0.002  -0.004   0.002  0.00  0.00     0.082 H 
ENDROOT
BRANCH   1   3
ATOM      3  C1  <0> d          -0.729   1.579   1.267  0.00  0.00    -0.052 C 
ATOM      4  H2  <0> d          -0.744   2.669   1.273  0.00  0.00     0.030 H 
ATOM      5  H3  <0> d          -1.751   1.202   1.275  0.00  0.00     0.030 H 
ATOM      6  H4  <0> d          -0.202   1.218   2.150  0.00  0.00     0.030 H 
ENDBRANCH   1   3
BRANCH   1   7
ATOM      7  C3  <0> d           1.423   1.615  -0.003  0.00  0.00     0.049 C 
ATOM      8  H5  <0> d           1.408   2.702  -0.086  0.00  0.00     0.050 H 
ATOM      9  H6  <0> d           1.923   1.329   0.922  0.00  0.00     0.050 H 
BRANCH   7  10
ATOM     10  C4  <0> d           2.176   1.022  -1.195  0.00  0.00     0.390 C 
ATOM     11  F1  <0> d           1.534   1.390  -2.382  0.00  0.00    -0.171 F 
ATOM     12  F2  <0> d           3.489   1.506  -1.205  0.00  0.00    -0.171 F 
ATOM     13  F3  <0> d           2.195  -0.373  -1.088  0.00  0.00    -0.171 F 
ENDBRANCH   7  10
ENDBRANCH   1   7
BRANCH   1  14
ATOM     14  O1  <0> d          -0.704   1.559  -1.150  0.00  0.00    -0.396 OA
ATOM     15  H7  <0> d          -0.756   2.523  -1.210  0.00  0.00     0.210 HD
ENDBRANCH   1  14
TORSDOF 4
