REMARK  1 active torsions:
REMARK  status: ('A' for Active; 'I' for Inactive)
REMARK    1  A    between atoms: C1_1  and  C2_2 
ROOT
ATOM      1  C2  <0> d           0.002  -0.004   0.002  0.00  0.00    -0.004 C 
ATOM      2  H1  <0> d           0.518  -0.387  -0.879  0.00  0.00     0.057 H 
ATOM      3  C3  <0> d          -1.424  -0.588   0.117  0.00  0.00    -0.028 C 
ATOM      4  C4  <0> d          -1.447  -1.852   0.941  0.00  0.00    -0.040 A 
ATOM      5  C5  <0> d          -2.439  -2.836   0.927  0.00  0.00    -0.075 A 
ATOM      6  C6  <0> d          -2.354  -3.943   1.741  0.00  0.00    -0.082 A 
ATOM      7  C7  <0> d          -1.281  -4.112   2.598  0.00  0.00    -0.082 A 
ATOM      8  C8  <0> d          -0.284  -3.156   2.623  0.00  0.00    -0.066 A 
ATOM      9  C9  <0> d          -0.368  -2.049   1.799  0.00  0.00     0.007 A 
ATOM     10  S1  <0> d           0.735  -0.674   1.552  0.00  0.00    -0.125 SA
ATOM     11  H5  <0> d          -2.074   0.152   0.584  0.00  0.00     0.041 H 
ATOM     12  H6  <0> d          -1.800  -0.807  -0.882  0.00  0.00     0.041 H 
ATOM     13  H7  <0> d          -3.287  -2.727   0.267  0.00  0.00     0.084 H 
ATOM     14  H8  <0> d          -3.134  -4.689   1.710  0.00  0.00     0.083 H 
ATOM     15  H9  <0> d          -1.224  -4.980   3.239  0.00  0.00     0.083 H 
ATOM     16  H10 <0> d           0.560  -3.272   3.287  0.00  0.00     0.085 H 
ENDROOT
BRANCH   1  17
ATOM     17  C1  <0> d          -0.019   1.526   0.010  0.00  0.00    -0.064 C 
ATOM     18  H2  <0> d           1.004   1.903   0.003  0.00  0.00     0.029 H 
ATOM     19  H3  <0> d          -0.546   1.887  -0.873  0.00  0.00     0.029 H 
ATOM     20  H4  <0> d          -0.529   1.877   0.907  0.00  0.00     0.029 H 
ENDBRANCH   1  17
TORSDOF 1
