REMARK  3 active torsions:
REMARK  status: ('A' for Active; 'I' for Inactive)
REMARK    1  A    between atoms: C1_1  and  C2_2 
REMARK    2  A    between atoms: N1_6  and  C6_7 
REMARK    3  A    between atoms: C6_7  and  C7_8 
ROOT
ATOM      1  C2  <0> d          -2.954   0.266  -1.122  0.00  0.00     0.007 A 
ATOM      2  C3  <0> d          -3.543   0.188  -2.333  0.00  0.00    -0.060 A 
ATOM      3  C4  <0> d          -3.074   1.272  -3.101  0.00  0.00    -0.066 A 
ATOM      4  C5  <0> d          -2.221   1.975  -2.329  0.00  0.00    -0.020 A 
ATOM      5  N1  <0> d          -2.146   1.365  -1.112  0.00  0.00    -0.357 N 
ATOM      6  H4  <0> d          -4.242  -0.570  -2.656  0.00  0.00     0.086 H 
ATOM      7  H5  <0> d          -3.348   1.498  -4.121  0.00  0.00     0.085 H 
ATOM      8  H6  <0> d          -1.690   2.868  -2.623  0.00  0.00     0.111 H 
ENDROOT
BRANCH   5   9
ATOM      9  C6  <0> d          -1.328   1.812   0.018  0.00  0.00     0.014 C 
ATOM     10  H7  <0> d          -1.853   1.605   0.951  0.00  0.00     0.070 H 
ATOM     11  H8  <0> d          -1.145   2.883  -0.066  0.00  0.00     0.070 H 
BRANCH   9  12
ATOM     12  C7  <0> d          -0.013   1.076   0.008  0.00  0.00    -0.095 C 
ATOM     13  C8  <0> d           1.113   1.746   0.001  0.00  0.00    -0.123 C 
ATOM     14  H10 <0> d           2.055   1.219  -0.011  0.00  0.00     0.066 H 
ATOM     15  H11 <0> d           1.098   2.826   0.007  0.00  0.00     0.066 H 
ATOM     16  H9  <0> d           0.002  -0.004   0.002  0.00  0.00     0.078 H 
ENDBRANCH   9  12
ENDBRANCH   5   9
BRANCH   1  17
ATOM     17  C1  <0> d          -3.157  -0.692   0.023  0.00  0.00    -0.037 C 
ATOM     18  H1  <0> d          -3.988  -0.351   0.639  0.00  0.00     0.035 H 
ATOM     19  H2  <0> d          -3.378  -1.685  -0.369  0.00  0.00     0.035 H 
ATOM     20  H3  <0> d          -2.250  -0.734   0.626  0.00  0.00     0.035 H 
ENDBRANCH   1  17
TORSDOF 3
