REMARK  3 active torsions:
REMARK  status: ('A' for Active; 'I' for Inactive)
REMARK    1  A    between atoms: C3_3  and  O3_11 
REMARK    2  A    between atoms: C4_4  and  C7_8 
REMARK    3  A    between atoms: C5_5  and  O1_7 
REMARK       I    between atoms: C7_8  and  N1_10 
ROOT
ATOM      1  C1  <0> d          -4.838  -0.552   0.022  0.00  0.00    -0.078 A 
ATOM      2  C2  <0> d          -4.255  -0.194  -1.179  0.00  0.00    -0.050 A 
ATOM      3  C3  <0> d          -3.065   0.515  -1.192  0.00  0.00     0.084 A 
ATOM      4  C4  <0> d          -2.452   0.870   0.018  0.00  0.00     0.097 A 
ATOM      5  C5  <0> d          -3.050   0.497   1.231  0.00  0.00     0.084 A 
ATOM      6  C6  <0> d          -4.243  -0.208   1.221  0.00  0.00    -0.050 A 
ATOM      7  H1  <0> d          -5.766  -1.105   0.023  0.00  0.00     0.083 H 
ATOM      8  H2  <0> d          -4.728  -0.468  -2.110  0.00  0.00     0.087 H 
ATOM      9  H3  <0> d          -4.707  -0.492   2.154  0.00  0.00     0.087 H 
ENDROOT
BRANCH   4  10
ATOM     10  C7  <0> d          -1.187   1.624   0.017  0.00  0.00     0.255 C 
ATOM     11  O2  <0> d          -1.204   2.840   0.023  0.00  0.00    -0.268 OA
ATOM     12  N1  <0> d          -0.011   0.966   0.007  0.00  0.00    -0.366 N 
ATOM     13  H5  <0> d           0.002  -0.004   0.002  0.00  0.00     0.159 HD
ATOM     14  H6  <0> d           0.822   1.462   0.002  0.00  0.00     0.159 HD
ENDBRANCH   4  10
BRANCH   3  15
ATOM     15  O3  <0> d          -2.494   0.866  -2.372  0.00  0.00    -0.360 OA
ATOM     16  H7  <0> d          -1.877   0.209  -2.721  0.00  0.00     0.217 HD
ENDBRANCH   3  15
BRANCH   5  17
ATOM     17  O1  <0> d          -2.466   0.830   2.409  0.00  0.00    -0.360 OA
ATOM     18  H4  <0> d          -2.748   1.685   2.761  0.00  0.00     0.217 HD
ENDBRANCH   5  17
TORSDOF 3
