REMARK  2 active torsions:
REMARK  status: ('A' for Active; 'I' for Inactive)
REMARK    1  A    between atoms: C4_5  and  C6_7 
REMARK    2  A    between atoms: C7_8  and  C8_9 
ROOT
ATOM      1  C1  <0> d          -0.017   1.380   0.010  0.00  0.00    -0.079 A 
ATOM      2  C2  <0> d           1.193   2.059   0.002  0.00  0.00    -0.066 A 
ATOM      3  C3  <0> d           2.377   1.340  -0.013  0.00  0.00     0.004 A 
ATOM      4  N1  <0> d           2.369   0.025  -0.021  0.00  0.00    -0.252 NA
ATOM      5  C4  <0> d           1.232  -0.665  -0.014  0.00  0.00     0.110 A 
ATOM      6  C5  <0> d           0.002  -0.004   0.002  0.00  0.00    -0.047 A 
ATOM      7  H1  <0> d          -0.952   1.920   0.026  0.00  0.00     0.083 H 
ATOM      8  H2  <0> d           1.212   3.139   0.007  0.00  0.00     0.085 H 
ATOM      9  H3  <0> d           3.320   1.866  -0.020  0.00  0.00     0.114 H 
ATOM     10  H4  <0> d          -0.921  -0.565   0.008  0.00  0.00     0.088 H 
ENDROOT
BRANCH   5  11
ATOM     11  C6  <0> d           1.270  -2.097  -0.023  0.00  0.00    -0.035 C 
ATOM     12  C7  <0> d           1.301  -3.270  -0.030  0.00  0.00     0.012 C 
BRANCH  12  13
ATOM     13  C8  <0> d           1.338  -4.702  -0.039  0.00  0.00     0.258 C 
ATOM     14  O1  <0> d           0.294  -5.342  -0.033  0.00  0.00    -0.637 OA
ATOM     15  O2  <0> d           2.414  -5.286  -0.053  0.00  0.00    -0.637 OA
ENDBRANCH  12  13
ENDBRANCH   5  11
TORSDOF 2
