REMARK  1 active torsions:
REMARK  status: ('A' for Active; 'I' for Inactive)
REMARK    1  A    between atoms: C4_6  and  N5_10 
ROOT
ATOM      1  C1  <0> d          -0.013   1.076   0.008  0.00  0.00    -0.048 A 
ATOM      2  C2  <0> d           1.185   1.800   0.000  0.00  0.00     0.022 A 
ATOM      3  N1  <0> d           1.165   3.114   0.007  0.00  0.00    -0.073 NA
ATOM      4  C3  <0> d           0.006   3.783   0.021  0.00  0.00     0.765 A 
ATOM      5  N2  <0> d          -0.278   5.081   0.031  0.00  0.00     0.133 NA
ATOM      6  C4  <0> d          -1.598   5.251   0.044  0.00  0.00     0.753 A 
ATOM      7  N3  <0> d          -2.192   4.075   0.043  0.00  0.00     0.041 NA
ATOM      8  N4  <0> d          -1.180   3.106   0.029  0.00  0.00    -0.055 N 
ATOM      9  C5  <0> d          -1.194   1.747   0.017  0.00  0.00     0.024 A 
ATOM     10  H1  <0> d           0.002  -0.004   0.002  0.00  0.00     0.087 H 
ATOM     11  H2  <0> d           2.130   1.277  -0.011  0.00  0.00     0.115 H 
ATOM     12  H3  <0> d          -2.130   1.208   0.019  0.00  0.00     0.115 H 
ENDROOT
BRANCH   6  13
ATOM     13  N5  <0> d          -2.250   6.481   0.056  0.00  0.00    -0.229 N 
ATOM     14  H4  <0> d          -3.220   6.516   0.065  0.00  0.00     0.174 HD
ATOM     15  H5  <0> d          -1.736   7.303   0.055  0.00  0.00     0.174 HD
ENDBRANCH   6  13
TORSDOF 1
