REMARK  1 active torsions:
REMARK  status: ('A' for Active; 'I' for Inactive)
REMARK    1  A    between atoms: C2_2  and  N2_6 
ROOT
ATOM      1  C1  <0> d           2.013   0.525  -0.014  0.00  0.00     0.056 A 
ATOM      2  C2  <0> d           1.282   1.740  -0.001  0.00  0.00     0.070 A 
ATOM      3  C3  <0> d          -0.016   1.339   0.009  0.00  0.00     0.070 A 
ATOM      4  O1  <0> d           0.002  -0.004   0.002  0.00  0.00    -0.224 OA
ATOM      5  N1  <0> d           1.132  -0.434  -0.011  0.00  0.00    -0.139 NA
ATOM      6  H1  <0> d           3.087   0.416  -0.026  0.00  0.00     0.121 H 
ATOM      7  H2  <0> d          -0.889   1.975   0.017  0.00  0.00     0.130 H 
ENDROOT
BRANCH   2   8
ATOM      8  N2  <0> d           1.784   3.054   0.001  0.00  0.00    -0.396 N 
ATOM      9  H3  <0> d           1.091   3.908   0.012  0.00  0.00     0.156 HD
ATOM     10  H4  <0> d           2.870   3.228  -0.009  0.00  0.00     0.156 HD
ENDBRANCH   2   8
TORSDOF 1
