REMARK  0 active torsions:
REMARK  status: ('A' for Active; 'I' for Inactive)
ROOT
ATOM      1  C1  <0> d          -2.168   1.036   1.270  0.00  0.00    -0.058 C 
ATOM      2  C2  <0> d          -0.736   1.583   1.264  0.00  0.00    -0.049 C 
ATOM      3  C3  <0> d          -0.013   1.086   0.008  0.00  0.00    -0.037 C 
ATOM      4  C4  <0> d          -0.760   1.596  -1.228  0.00  0.00     0.040 C 
ATOM      5  C5  <0> d          -2.175   1.009  -1.228  0.00  0.00    -0.037 C 
ATOM      6  C6  <0> d          -2.914   1.506   0.019  0.00  0.00    -0.049 C 
ATOM      7  C7  <0> d          -2.945   3.038  -0.008  0.00  0.00    -0.037 C 
ATOM      8  C8  <0> d          -1.505   3.559  -0.047  0.00  0.00     0.040 C 
ATOM      9  C9  <0> d          -0.782   3.115   1.229  0.00  0.00    -0.037 C 
ATOM     10  O1  <0> d          -0.834   3.021  -1.187  0.00  0.00    -0.381 OA
ATOM     11  H1  <0> d          -2.691   1.400   2.167  0.00  0.00     0.034 H 
ATOM     12  H2  <0> d          -2.135  -0.064   1.286  0.00  0.00     0.034 H 
ATOM     13  H3  <0> d          -0.207   1.241   2.166  0.00  0.00     0.040 H 
ATOM     14  H4  <0> d           1.019   1.468   0.004  0.00  0.00     0.037 H 
ATOM     15  H5  <0> d           0.004  -0.014   0.005  0.00  0.00     0.037 H 
ATOM     16  H6  <0> d          -0.220   1.359  -2.157  0.00  0.00     0.083 H 
ATOM     17  H7  <0> d          -2.708   1.336  -2.133  0.00  0.00     0.037 H 
ATOM     18  H8  <0> d          -2.116  -0.089  -1.214  0.00  0.00     0.037 H 
ATOM     19  H9  <0> d          -3.939   1.107   0.036  0.00  0.00     0.040 H 
ATOM     20  H10 <0> d          -3.490   3.378  -0.901  0.00  0.00     0.037 H 
ATOM     21  H11 <0> d          -3.452   3.410   0.894  0.00  0.00     0.037 H 
ATOM     22  H12 <0> d          -1.471   4.651  -0.175  0.00  0.00     0.083 H 
ATOM     23  H13 <0> d          -1.324   3.486   2.111  0.00  0.00     0.037 H 
ATOM     24  H14 <0> d           0.243   3.513   1.234  0.00  0.00     0.037 H 
ENDROOT
TORSDOF 0
