REMARK  3 active torsions:
REMARK  status: ('A' for Active; 'I' for Inactive)
REMARK    1  A    between atoms: C1_1  and  C2_2 
REMARK    2  A    between atoms: C2_2  and  O1_3 
REMARK    3  A    between atoms: O1_3  and  C3_4 
ROOT
ATOM      1  C3  <0> d          -1.180   3.074   0.030  0.00  0.00     0.270 A 
ATOM      2  N1  <0> d          -0.134   3.869   0.024  0.00  0.00    -0.171 NA
ATOM      3  C4  <0> d           1.115   3.390   0.010  0.00  0.00     0.251 A 
ATOM      4  O2  <0> d           2.078   4.130   0.004  0.00  0.00    -0.271 OA
ATOM      5  C5  <0> d           1.274   1.880  -0.000  0.00  0.00     0.042 A 
ATOM      6  C6  <0> d          -0.013   1.076   0.008  0.00  0.00    -0.005 A 
ATOM      7  N2  <0> d          -1.132   1.734   0.017  0.00  0.00    -0.223 NA
ATOM      8  H6  <0> d           1.859   1.594   0.874  0.00  0.00     0.055 H 
ATOM      9  H7  <0> d           1.842   1.604  -0.888  0.00  0.00     0.055 H 
ATOM     10  H8  <0> d           0.002  -0.004   0.002  0.00  0.00     0.108 H 
ENDROOT
BRANCH   1  11
ATOM     11  O1  <0> d          -2.398   3.651   0.044  0.00  0.00    -0.320 OA
BRANCH  11  12
ATOM     12  C2  <0> d          -2.439   5.103   0.052  0.00  0.00     0.026 C 
ATOM     13  H4  <0> d          -1.928   5.476   0.939  0.00  0.00     0.074 H 
ATOM     14  H5  <0> d          -1.944   5.485  -0.841  0.00  0.00     0.074 H 
BRANCH  12  15
ATOM     15  C1  <0> d          -3.896   5.571   0.068  0.00  0.00    -0.056 C 
ATOM     16  H1  <0> d          -3.927   6.661   0.074  0.00  0.00     0.030 H 
ATOM     17  H2  <0> d          -4.407   5.198  -0.819  0.00  0.00     0.030 H 
ATOM     18  H3  <0> d          -4.391   5.189   0.961  0.00  0.00     0.030 H 
ENDBRANCH  12  15
ENDBRANCH  11  12
ENDBRANCH   1  11
TORSDOF 3
