REMARK  2 active torsions:
REMARK  status: ('A' for Active; 'I' for Inactive)
REMARK    1  A    between atoms: C1_1  and  C2_2 
REMARK    2  A    between atoms: C4_6  and  C5_7 
ROOT
ATOM      1  C2  <0> d          -1.486   3.420   0.028  0.00  0.00     0.001 A 
ATOM      2  C3  <0> d          -2.891   3.570   0.035  0.00  0.00     0.037 A 
ATOM      3  N1  <0> d          -3.393   2.369   0.030  0.00  0.00    -0.140 NA
ATOM      4  O1  <0> d          -2.534   1.519   0.016  0.00  0.00    -0.206 OA
ATOM      5  C4  <0> d          -1.302   2.063   0.019  0.00  0.00     0.184 A 
ATOM      6  H4  <0> d          -3.441   4.500   0.042  0.00  0.00     0.119 H 
ENDROOT
BRANCH   1   7
ATOM      7  C1  <0> d          -0.436   4.500   0.029  0.00  0.00    -0.047 C 
ATOM      8  H1  <0> d          -0.187   4.766  -0.998  0.00  0.00     0.033 H 
ATOM      9  H2  <0> d          -0.819   5.378   0.549  0.00  0.00     0.033 H 
ATOM     10  H3  <0> d           0.458   4.137   0.537  0.00  0.00     0.033 H 
ENDBRANCH   1   7
BRANCH   5  11
ATOM     11  C5  <0> d          -0.016   1.344   0.009  0.00  0.00     0.237 C 
ATOM     12  O2  <0> d           1.028   1.965   0.003  0.00  0.00    -0.642 OA
ATOM     13  O3  <0> d           0.002  -0.004   0.002  0.00  0.00    -0.642 OA
ENDBRANCH   5  11
TORSDOF 2
