REMARK  1 active torsions:
REMARK  status: ('A' for Active; 'I' for Inactive)
REMARK    1  A    between atoms: C2_2  and  O1_9 
ROOT
ATOM      1  C1  <0> d           2.379   1.358  -0.013  0.00  0.00    -0.009 A 
ATOM      2  C2  <0> d           1.166   2.040   0.002  0.00  0.00     0.086 A 
ATOM      3  C3  <0> d          -0.016   1.315   0.009  0.00  0.00     0.036 A 
ATOM      4  N1  <0> d           0.002  -0.004   0.002  0.00  0.00    -0.243 NA
ATOM      5  C4  <0> d           1.133  -0.683  -0.013  0.00  0.00     0.164 A 
ATOM      6  C5  <0> d           2.355  -0.029  -0.020  0.00  0.00     0.159 A 
ATOM      7  F1  <0> d           3.508  -0.733  -0.034  0.00  0.00    -0.203 F 
ATOM      8 Cl1  <0> d           1.090  -2.419  -0.021  0.00  0.00    -0.059 Cl
ATOM      9  H1  <0> d           3.315   1.895  -0.019  0.00  0.00     0.092 H 
ATOM     10  H2  <0> d          -0.962   1.836   0.017  0.00  0.00     0.119 H 
ENDROOT
BRANCH   2  11
ATOM     11  O1  <0> d           1.140   3.399   0.009  0.00  0.00    -0.359 OA
ATOM     12  H3  <0> d           1.141   3.788   0.894  0.00  0.00     0.217 HD
ENDBRANCH   2  11
TORSDOF 1
