REMARK  1 active torsions:
REMARK  status: ('A' for Active; 'I' for Inactive)
REMARK    1  A    between atoms: C1_1  and  C2_2 
ROOT
ATOM      1  C2  <0> d           0.002  -0.004   0.002  0.00  0.00    -0.032 A 
ATOM      2  C3  <0> d           0.006  -0.681  -1.179  0.00  0.00    -0.075 A 
ATOM      3  C4  <0> d           0.025  -2.073  -1.210  0.00  0.00    -0.082 A 
ATOM      4  C5  <0> d           0.040  -2.797  -0.056  0.00  0.00    -0.071 A 
ATOM      5  C6  <0> d           0.037  -2.133   1.180  0.00  0.00    -0.007 A 
ATOM      6  C7  <0> d           0.023  -0.716   1.214  0.00  0.00     0.072 A 
ATOM      7  N1  <0> d           0.025  -0.078   2.389  0.00  0.00    -0.260 NA
ATOM      8  C8  <0> d           0.044  -0.737   3.522  0.00  0.00     0.003 A 
ATOM      9  C9  <0> d           0.064  -2.130   3.559  0.00  0.00    -0.065 A 
ATOM     10  C10 <0> d           0.052  -2.844   2.395  0.00  0.00    -0.069 A 
ATOM     11  H4  <0> d          -0.006  -0.129  -2.107  0.00  0.00     0.084 H 
ATOM     12  H5  <0> d           0.027  -2.586  -2.160  0.00  0.00     0.083 H 
ATOM     13  H6  <0> d           0.054  -3.877  -0.093  0.00  0.00     0.084 H 
ATOM     14  H7  <0> d           0.045  -0.186   4.450  0.00  0.00     0.114 H 
ATOM     15  H8  <0> d           0.080  -2.645   4.509  0.00  0.00     0.085 H 
ATOM     16  H9  <0> d           0.066  -3.924   2.406  0.00  0.00     0.085 H 
ENDROOT
BRANCH   1  17
ATOM     17  C1  <0> d          -0.018   1.503   0.010  0.00  0.00    -0.049 C 
ATOM     18  H1  <0> d           1.004   1.880   0.003  0.00  0.00     0.033 H 
ATOM     19  H2  <0> d          -0.545   1.864  -0.873  0.00  0.00     0.033 H 
ATOM     20  H3  <0> d          -0.529   1.854   0.907  0.00  0.00     0.033 H 
ENDBRANCH   1  17
TORSDOF 1
