REMARK  4 active torsions:
REMARK  status: ('A' for Active; 'I' for Inactive)
REMARK    1  A    between atoms: C1_1  and  C2_2 
REMARK    2  A    between atoms: C2_2  and  C8_10 
REMARK    3  A    between atoms: C4_5  and  C6_8 
REMARK    4  A    between atoms: C4_5  and  C7_9 
ROOT
ATOM      1  C2  <0> d          -0.403   1.979   1.338  0.00  0.00     0.076 C 
ATOM      2  C3  <0> d          -1.877   1.677   1.164  0.00  0.00     0.157 C 
ATOM      3  O1  <0> d          -2.608   0.738   1.369  0.00  0.00    -0.295 OA
ATOM      4  C4  <0> d          -2.020   3.086   0.618  0.00  0.00     0.076 C 
ATOM      5  C5  <0> d          -0.789   3.441   1.427  0.00  0.00     0.157 C 
ATOM      6  O2  <0> d          -0.325   4.441   1.921  0.00  0.00    -0.295 OA
ENDROOT
BRANCH   1   7
ATOM      7  C1  <0> d           0.441   1.642   0.107  0.00  0.00    -0.056 C 
ATOM      8  H1  <0> d           0.258   0.609  -0.187  0.00  0.00     0.029 H 
ATOM      9  H2  <0> d           1.497   1.770   0.345  0.00  0.00     0.029 H 
ATOM     10  H3  <0> d           0.170   2.307  -0.713  0.00  0.00     0.029 H 
ENDBRANCH   1   7
BRANCH   1  11
ATOM     11  C8  <0> d           0.188   1.422   2.635  0.00  0.00    -0.056 C 
ATOM     12  H10 <0> d           1.102   1.963   2.879  0.00  0.00     0.029 H 
ATOM     13  H11 <0> d          -0.533   1.541   3.443  0.00  0.00     0.029 H 
ATOM     14  H12 <0> d           0.416   0.364   2.504  0.00  0.00     0.029 H 
ENDBRANCH   1  11
BRANCH   4  15
ATOM     15  C6  <0> d          -3.289   3.799   1.088  0.00  0.00    -0.056 C 
ATOM     16  H4  <0> d          -3.150   4.877   1.011  0.00  0.00     0.029 H 
ATOM     17  H5  <0> d          -4.129   3.496   0.463  0.00  0.00     0.029 H 
ATOM     18  H6  <0> d          -3.493   3.532   2.125  0.00  0.00     0.029 H 
ENDBRANCH   4  15
BRANCH   4  19
ATOM     19  C7  <0> d          -1.809   3.183  -0.894  0.00  0.00    -0.056 C 
ATOM     20  H7  <0> d          -1.294   2.290  -1.247  0.00  0.00     0.029 H 
ATOM     21  H8  <0> d          -2.775   3.266  -1.391  0.00  0.00     0.029 H 
ATOM     22  H9  <0> d          -1.207   4.063  -1.121  0.00  0.00     0.029 H 
ENDBRANCH   4  19
TORSDOF 4
