REMARK  3 active torsions:
REMARK  status: ('A' for Active; 'I' for Inactive)
REMARK    1  A    between atoms: C1_1  and  C2_2 
REMARK    2  A    between atoms: C3_3  and  N3_12 
REMARK    3  A    between atoms: N1_4  and  C6_11 
ROOT
ATOM      1  C2  <0> d           1.128   3.053   0.007  0.00  0.00     0.050 A 
ATOM      2  C3  <0> d          -0.077   3.698   0.022  0.00  0.00     0.116 A 
ATOM      3  N1  <0> d          -1.237   2.962   0.029  0.00  0.00    -0.289 N 
ATOM      4  C4  <0> d          -1.188   1.617   0.017  0.00  0.00     0.330 A 
ATOM      5  O1  <0> d          -2.224   0.981   0.018  0.00  0.00    -0.246 OA
ATOM      6  N2  <0> d          -0.011   0.966   0.007  0.00  0.00    -0.275 N 
ATOM      7  H1  <0> d           0.003  -0.034   0.006  0.00  0.00     0.173 HD
ATOM      8  C5  <0> d           1.150   1.650  -0.000  0.00  0.00     0.259 A 
ATOM      9  O2  <0> d           2.213   1.053  -0.013  0.00  0.00    -0.267 OA
ENDROOT
BRANCH   1  10
ATOM     10  C1  <0> d           2.415   3.838  -0.000  0.00  0.00    -0.043 C 
ATOM     11  H2  <0> d           3.260   3.149  -0.011  0.00  0.00     0.034 H 
ATOM     12  H3  <0> d           2.450   4.470  -0.887  0.00  0.00     0.034 H 
ATOM     13  H4  <0> d           2.466   4.461   0.892  0.00  0.00     0.034 H 
ENDBRANCH   1  10
BRANCH   2  14
ATOM     14  N3  <0> d          -0.128   5.069   0.030  0.00  0.00    -0.385 N 
ATOM     15  H8  <0> d           0.693   5.585   0.025  0.00  0.00     0.157 HD
ATOM     16  H9  <0> d          -0.986   5.522   0.040  0.00  0.00     0.157 HD
ENDBRANCH   2  14
BRANCH   3  17
ATOM     17  C6  <0> d          -2.533   3.644   0.045  0.00  0.00    -0.008 C 
ATOM     18  H5  <0> d          -2.864   3.819  -0.979  0.00  0.00     0.057 H 
ATOM     19  H6  <0> d          -3.264   3.023   0.562  0.00  0.00     0.057 H 
ATOM     20  H7  <0> d          -2.435   4.598   0.563  0.00  0.00     0.057 H 
ENDBRANCH   3  17
TORSDOF 3
