REMARK  3 active torsions:
REMARK  status: ('A' for Active; 'I' for Inactive)
REMARK    1  A    between atoms: C1_1  and  C2_2 
REMARK    2  A    between atoms: C3_4  and  C6_10 
REMARK    3  A    between atoms: C4_6  and  C5_9 
ROOT
ATOM      1  C2  <0> d          -1.214  -0.904   0.015  0.00  0.00     0.075 C 
ATOM      2  H1  <0> d          -1.703  -0.980  -0.967  0.00  0.00     0.092 H 
ATOM      3  C3  <0> d           0.002  -0.004   0.002  0.00  0.00     0.034 C 
ATOM      4  N1  <0> d           1.051  -0.737  -0.011  0.00  0.00    -0.265 NA
ATOM      5  C4  <0> d           0.666  -2.153  -0.018  0.00  0.00     0.121 C 
ATOM      6  H2  <0> d           0.752  -2.575  -1.030  0.00  0.00     0.120 H 
ATOM      7  O1  <0> d          -0.712  -2.198   0.401  0.00  0.00    -0.355 OA
ENDROOT
BRANCH   1   8
ATOM      8  C1  <0> d          -2.237  -0.402   1.035  0.00  0.00    -0.047 C 
ATOM      9  H3  <0> d          -2.610   0.586   0.725  0.00  0.00     0.031 H 
ATOM     10  H4  <0> d          -1.761  -0.320   2.023  0.00  0.00     0.031 H 
ATOM     11  H5  <0> d          -3.078  -1.109   1.090  0.00  0.00     0.031 H 
ENDBRANCH   1   8
BRANCH   3  12
ATOM     12  C6  <0> d          -0.018   1.503   0.010  0.00  0.00    -0.037 C 
ATOM     13  H9  <0> d           1.014   1.884  -0.003  0.00  0.00     0.035 H 
ATOM     14  H10 <0> d          -0.529   1.857   0.918  0.00  0.00     0.035 H 
ATOM     15  H11 <0> d          -0.555   1.867  -0.878  0.00  0.00     0.035 H 
ENDBRANCH   3  12
BRANCH   5  16
ATOM     16  C5  <0> d           1.539  -2.940   0.962  0.00  0.00    -0.035 C 
ATOM     17  H6  <0> d           1.242  -3.999   0.949  0.00  0.00     0.033 H 
ATOM     18  H7  <0> d           1.409  -2.535   1.976  0.00  0.00     0.033 H 
ATOM     19  H8  <0> d           2.594  -2.852   0.664  0.00  0.00     0.033 H 
ENDBRANCH   5  16
TORSDOF 3
