REMARK  2 active torsions:
REMARK  status: ('A' for Active; 'I' for Inactive)
REMARK    1  A    between atoms: C1_1  and  C2_2 
REMARK    2  A    between atoms: C3_3  and  N3_10 
ROOT
ATOM      1  C2  <0> d           1.148  -0.670  -0.013  0.00  0.00     0.039 A 
ATOM      2  C3  <0> d           2.341   0.037  -0.020  0.00  0.00     0.103 A 
ATOM      3  C4  <0> d           2.284   1.435  -0.012  0.00  0.00     0.210 A 
ATOM      4  N1  <0> d           1.099   2.030   0.002  0.00  0.00    -0.296 N 
ATOM      5  C5  <0> d          -0.016   1.318   0.009  0.00  0.00     0.258 A 
ATOM      6  N2  <0> d           0.002  -0.004   0.002  0.00  0.00    -0.322 N 
ATOM      7  O1  <0> d          -1.209   1.961   0.018  0.00  0.00    -0.151 OA
ATOM      8  O2  <0> d           3.424   2.170  -0.019  0.00  0.00    -0.170 OA
ATOM      9  H4  <0> d          -0.861  -0.509   0.007  0.00  0.00     0.169 HD
ATOM     10  H5  <0> d           1.047   3.029   0.007  0.00  0.00     0.171 HD
ENDROOT
BRANCH   1  11
ATOM     11  C1  <0> d           1.154  -2.177  -0.021  0.00  0.00    -0.035 C 
ATOM     12  H1  <0> d           1.146  -2.535  -1.051  0.00  0.00     0.035 H 
ATOM     13  H2  <0> d           2.050  -2.540   0.482  0.00  0.00     0.035 H 
ATOM     14  H3  <0> d           0.271  -2.547   0.499  0.00  0.00     0.035 H 
ENDBRANCH   1  11
BRANCH   2  15
ATOM     15  N3  <0> d           3.574  -0.632  -0.035  0.00  0.00    -0.394 N 
ATOM     16  H6  <0> d           3.599  -1.602  -0.040  0.00  0.00     0.156 HD
ATOM     17  H7  <0> d           4.401  -0.126  -0.040  0.00  0.00     0.156 HD
ENDBRANCH   2  15
TORSDOF 2
