REMARK  1 active torsions:
REMARK  status: ('A' for Active; 'I' for Inactive)
REMARK    1  A    between atoms: C2_2  and  C3_3 
ROOT
ATOM      1  C1  <0> d           0.018  -1.178  -0.004  0.00  0.00    -0.149 C 
ATOM      2  C2  <0> d           0.002  -0.004   0.002  0.00  0.00    -0.078 C 
ATOM      3  H1  <0> d           0.032  -2.228  -0.010  0.00  0.00     0.166 H 
ENDROOT
BRANCH   2   4
ATOM      4  C3  <0> d          -0.017   1.428   0.010  0.00  0.00     0.018 A 
ATOM      5  C8  <0> d           1.178   2.142   0.002  0.00  0.00    -0.045 A 
ATOM      6  C7  <0> d           1.150   3.536   0.010  0.00  0.00     0.046 A 
ATOM      7  H5  <0> d           2.123   1.618  -0.009  0.00  0.00     0.088 H 
ATOM      8  C6  <0> d          -0.075   4.206   0.025  0.00  0.00    -0.063 A 
ATOM      9  C9  <0> d           2.375   4.278   0.002  0.00  0.00     0.099 C 
ATOM     10  C5  <0> d          -1.256   3.491   0.033  0.00  0.00    -0.080 A 
ATOM     11  H4  <0> d          -0.098   5.286   0.032  0.00  0.00     0.085 H 
ATOM     12  C4  <0> d          -1.235   2.111   0.019  0.00  0.00    -0.065 A 
ATOM     13  H3  <0> d          -2.201   4.015   0.045  0.00  0.00     0.083 H 
ATOM     14  H2  <0> d          -2.163   1.558   0.020  0.00  0.00     0.085 H 
ATOM     15  N1  <0> d           3.346   4.867  -0.005  0.00  0.00    -0.191 NA
ENDBRANCH   2   4
TORSDOF 1
