REMARK  5 active torsions:
REMARK  status: ('A' for Active; 'I' for Inactive)
REMARK    1  A    between atoms: C1_1  and  C2_2 
REMARK    2  A    between atoms: C2_2  and  C3_3 
REMARK    3  A    between atoms: C4_4  and  N4_11 
REMARK    4  A    between atoms: C5_5  and  C7_10 
REMARK    5  A    between atoms: C6_7  and  N3_9 
ROOT
ATOM      1  C3  <0> d           0.042  -2.106   1.141  0.00  0.00     0.081 A 
ATOM      2  C4  <0> d           0.023  -0.716   1.198  0.00  0.00     0.076 A 
ATOM      3  C5  <0> d           0.002  -0.004   0.002  0.00  0.00     0.078 A 
ATOM      4  N1  <0> d          -0.005  -0.668  -1.142  0.00  0.00    -0.066 NA
ATOM      5  C6  <0> d           0.018  -1.992  -1.158  0.00  0.00     0.720 A 
ATOM      6  N2  <0> d           0.038  -2.702  -0.040  0.00  0.00    -0.066 NA
ENDROOT
BRANCH   1   7
ATOM      7  C2  <0> d           0.065  -2.922   2.408  0.00  0.00    -0.025 C 
ATOM      8  H4  <0> d           0.584  -2.358   3.197  0.00  0.00     0.041 H 
ATOM      9  H5  <0> d           0.595  -3.869   2.224  0.00  0.00     0.041 H 
BRANCH   7  10
ATOM     10  C1  <0> d          -1.369  -3.218   2.850  0.00  0.00    -0.071 C 
ATOM     11  H1  <0> d          -1.352  -3.813   3.775  0.00  0.00     0.028 H 
ATOM     12  H2  <0> d          -1.888  -3.781   2.061  0.00  0.00     0.028 H 
ATOM     13  H3  <0> d          -1.899  -2.271   3.034  0.00  0.00     0.028 H 
ENDBRANCH   7  10
ENDBRANCH   1   7
BRANCH   2  14
ATOM     14  N4  <0> d           0.026  -0.048   2.429  0.00  0.00    -0.396 N 
ATOM     15  H11 <0> d           0.011   1.051   2.459  0.00  0.00     0.156 HD
ATOM     16  H12 <0> d           0.043  -0.624   3.367  0.00  0.00     0.156 HD
ENDBRANCH   2  14
BRANCH   5  17
ATOM     17  N3  <0> d           0.015  -2.653  -2.378  0.00  0.00    -0.231 N 
ATOM     18  H6  <0> d           0.035  -3.752  -2.408  0.00  0.00     0.174 HD
ATOM     19  H7  <0> d          -0.006  -2.078  -3.315  0.00  0.00     0.174 HD
ENDBRANCH   5  17
BRANCH   3  20
ATOM     20  C7  <0> d          -0.018   1.503   0.010  0.00  0.00    -0.033 C 
ATOM     21  H8  <0> d          -0.033   1.875  -1.025  0.00  0.00     0.035 H 
ATOM     22  H9  <0> d           0.880   1.879   0.522  0.00  0.00     0.035 H 
ATOM     23  H10 <0> d          -0.916   1.854   0.539  0.00  0.00     0.035 H 
ENDBRANCH   3  20
TORSDOF 5
