REMARK  3 active torsions:
REMARK  status: ('A' for Active; 'I' for Inactive)
REMARK    1  A    between atoms: C1_1  and  C2_2 
REMARK    2  A    between atoms: C2_2  and  C3_3 
REMARK    3  A    between atoms: C3_3  and  C5_7 
ROOT
ATOM      1  C3  <0> d          -0.729   1.579   1.267  0.00  0.00     0.113 C 
ATOM      2  H1  <0> d          -1.776   1.277   1.232  0.00  0.00     0.079 H 
ATOM      3  C4  <0> d          -0.644   3.047   1.336  0.00  0.00     0.074 C 
ATOM      4  N1  <0> d          -0.579   4.180   1.389  0.00  0.00    -0.196 NA
ENDROOT
BRANCH   1   5
ATOM      5  C2  <0> d          -0.013   1.086   0.008  0.00  0.00    -0.044 C 
ATOM      6  H5  <0> d           0.002  -0.004   0.002  0.00  0.00     0.035 H 
ATOM      7  H6  <0> d           1.010   1.463   0.000  0.00  0.00     0.035 H 
BRANCH   5   8
ATOM      8  C1  <0> d          -0.753   1.593  -1.232  0.00  0.00    -0.075 C 
ATOM      9  H2  <0> d          -0.242   1.241  -2.128  0.00  0.00     0.027 H 
ATOM     10  H3  <0> d          -1.775   1.215  -1.224  0.00  0.00     0.027 H 
ATOM     11  H4  <0> d          -0.767   2.683  -1.226  0.00  0.00     0.027 H 
ENDBRANCH   5   8
ENDBRANCH   1   5
BRANCH   1  12
ATOM     12  C5  <0> d          -0.074   0.981   2.485  0.00  0.00     0.191 C 
ATOM     13  O1  <0> d           0.869   0.235   2.359  0.00  0.00    -0.647 OA
ATOM     14  O2  <0> d          -0.538   1.275   3.709  0.00  0.00    -0.647 OA
ENDBRANCH   1  12
TORSDOF 3
