REMARK  0 active torsions:
REMARK  status: ('A' for Active; 'I' for Inactive)
ROOT
ATOM      1  C1  <0> d          -0.164   4.270   0.048  0.00  0.00    -0.082 A 
ATOM      2  C2  <0> d          -1.324   3.518   0.046  0.00  0.00    -0.082 A 
ATOM      3  C3  <0> d          -1.251   2.141   0.031  0.00  0.00    -0.074 A 
ATOM      4  C4  <0> d          -0.018   1.502   0.010  0.00  0.00    -0.027 A 
ATOM      5  C5  <0> d           1.137   2.253   0.003  0.00  0.00    -0.041 A 
ATOM      6  C6  <0> d           1.063   3.638   0.027  0.00  0.00    -0.076 A 
ATOM      7  C7  <0> d           2.500   1.608  -0.036  0.00  0.00     0.040 C 
ATOM      8  C8  <0> d           2.352   0.126   0.221  0.00  0.00     0.263 C 
ATOM      9  O1  <0> d           3.123  -0.474   0.931  0.00  0.00    -0.265 OA
ATOM     10  O2  <0> d           1.313  -0.496  -0.381  0.00  0.00    -0.317 OA
ATOM     11  C9  <0> d           0.002  -0.004   0.002  0.00  0.00     0.053 C 
ATOM     12  H1  <0> d          -0.217   5.349   0.067  0.00  0.00     0.083 H 
ATOM     13  H2  <0> d          -2.286   4.009   0.058  0.00  0.00     0.083 H 
ATOM     14  H3  <0> d          -2.158   1.555   0.034  0.00  0.00     0.084 H 
ATOM     15  H4  <0> d           1.970   4.224   0.029  0.00  0.00     0.084 H 
ATOM     16  H5  <0> d           3.135   2.050   0.732  0.00  0.00     0.055 H 
ATOM     17  H6  <0> d           2.951   1.764  -1.016  0.00  0.00     0.055 H 
ATOM     18  H7  <0> d          -0.242  -0.372   0.998  0.00  0.00     0.082 H 
ATOM     19  H8  <0> d          -0.740  -0.370  -0.708  0.00  0.00     0.082 H 
ENDROOT
TORSDOF 0
