REMARK  2 active torsions:
REMARK  status: ('A' for Active; 'I' for Inactive)
REMARK    1  A    between atoms: C1_1  and  N1_2 
REMARK    2  A    between atoms: C6_8  and  N3_11 
ROOT
ATOM      1  N1  <0> d           1.506   3.425   0.005  0.00  0.00    -0.344 N 
ATOM      2  C2  <0> d           2.865   3.511  -0.007  0.00  0.00     0.067 A 
ATOM      3  N2  <0> d           3.388   2.321  -0.018  0.00  0.00    -0.242 NA
ATOM      4  C3  <0> d           2.401   1.387  -0.013  0.00  0.00     0.085 A 
ATOM      5  C4  <0> d           1.180   2.083   0.002  0.00  0.00     0.066 A 
ATOM      6  C5  <0> d          -0.017   1.381   0.010  0.00  0.00    -0.029 A 
ATOM      7  C6  <0> d           0.002  -0.004   0.002  0.00  0.00     0.028 A 
ATOM      8  C7  <0> d           1.215  -0.690  -0.013  0.00  0.00    -0.055 A 
ATOM      9  C8  <0> d           2.398  -0.010  -0.020  0.00  0.00    -0.051 A 
ATOM     10  H4  <0> d           3.426   4.434  -0.007  0.00  0.00     0.143 H 
ATOM     11  H5  <0> d          -0.958   1.911   0.017  0.00  0.00     0.090 H 
ATOM     12  H6  <0> d           1.218  -1.770  -0.019  0.00  0.00     0.087 H 
ATOM     13  H7  <0> d           3.333  -0.551  -0.032  0.00  0.00     0.087 H 
ENDROOT
BRANCH   1  14
ATOM     14  C1  <0> d           0.564   4.547   0.020  0.00  0.00    -0.013 C 
ATOM     15  H1  <0> d           0.321   4.831  -1.004  0.00  0.00     0.057 H 
ATOM     16  H2  <0> d          -0.347   4.251   0.540  0.00  0.00     0.057 H 
ATOM     17  H3  <0> d           1.017   5.395   0.534  0.00  0.00     0.057 H 
ENDBRANCH   1  14
BRANCH   7  18
ATOM     18  N3  <0> d          -1.201  -0.717   0.010  0.00  0.00    -0.399 N 
ATOM     19  H8  <0> d          -2.046  -0.241   0.020  0.00  0.00     0.156 HD
ATOM     20  H9  <0> d          -1.190  -1.687   0.004  0.00  0.00     0.156 HD
ENDBRANCH   7  18
TORSDOF 2
