REMARK  3 active torsions:
REMARK  status: ('A' for Active; 'I' for Inactive)
REMARK    1  A    between atoms: C1_1  and  C2_2 
REMARK    2  A    between atoms: C2_2  and  C3_3 
REMARK    3  A    between atoms: C2_2  and  S1_4 
ROOT
ATOM      1  C2  <0> d          -1.110   2.020   1.327  0.00  0.00     0.055 C 
ATOM      2  H4  <0> d          -1.225   3.100   1.237  0.00  0.00     0.067 H 
ENDROOT
BRANCH   1   3
ATOM      3  C1  <0> d          -2.479   1.348   1.201  0.00  0.00    -0.058 C 
ATOM      4  H1  <0> d          -2.363   0.268   1.290  0.00  0.00     0.029 H 
ATOM      5  H2  <0> d          -3.135   1.711   1.992  0.00  0.00     0.029 H 
ATOM      6  H3  <0> d          -2.913   1.588   0.230  0.00  0.00     0.029 H 
ENDBRANCH   1   3
BRANCH   1   7
ATOM      7  C3  <0> d          -0.500   1.683   2.689  0.00  0.00    -0.058 C 
ATOM      8  H5  <0> d           0.475   2.161   2.779  0.00  0.00     0.029 H 
ATOM      9  H6  <0> d          -1.156   2.045   3.480  0.00  0.00     0.029 H 
ATOM     10  H7  <0> d          -0.385   0.603   2.779  0.00  0.00     0.029 H 
ENDBRANCH   1   7
BRANCH   1  11
ATOM     11  S1  <0> d          -0.017   1.417   0.010  0.00  0.00     0.105 S 
ATOM     12  O1  <0> d           0.002  -0.004   0.002  0.00  0.00    -0.595 OA
ATOM     13  O2  <0> d           1.195   2.158   0.002  0.00  0.00    -0.595 OA
ATOM     14  O3  <0> d          -0.716   1.803  -1.286  0.00  0.00    -0.595 OA
ENDBRANCH   1  11
TORSDOF 3
