REMARK  4 active torsions:
REMARK  status: ('A' for Active; 'I' for Inactive)
REMARK    1  A    between atoms: C1_1  and  C2_2 
REMARK    2  A    between atoms: C2_2  and  O1_3 
REMARK    3  A    between atoms: O1_3  and  C3_4 
REMARK    4  A    between atoms: C3_4  and  C4_6 
ROOT
ATOM      1  C4  <0> d           1.214   2.092   0.002  0.00  0.00     0.109 C 
ATOM      2  H1  <0> d           1.951   1.726   0.716  0.00  0.00     0.070 H 
ATOM      3  C5  <0> d           0.685   3.479   0.433  0.00  0.00    -0.030 C 
ATOM      4  C6  <0> d          -0.800   3.394   0.017  0.00  0.00    -0.004 C 
ATOM      5  N1  <0> d          -1.127   1.963   0.018  0.00  0.00    -0.360 N 
ATOM      6  C7  <0> d          -0.014   1.209   0.009  0.00  0.00     0.231 C 
ATOM      7  O3  <0> d           0.002  -0.004   0.002  0.00  0.00    -0.273 OA
ATOM      8  H7  <0> d           0.782   3.616   1.510  0.00  0.00     0.037 H 
ATOM      9  H8  <0> d           1.196   4.277  -0.107  0.00  0.00     0.037 H 
ATOM     10  H9  <0> d          -1.424   3.926   0.736  0.00  0.00     0.064 H 
ATOM     11  H10 <0> d          -0.936   3.810  -0.981  0.00  0.00     0.064 H 
ATOM     12  H11 <0> d          -2.029   1.608   0.025  0.00  0.00     0.162 HD
ENDROOT
BRANCH   1  13
ATOM     13  C3  <0> d           1.806   2.160  -1.382  0.00  0.00     0.272 C 
ATOM     14  O2  <0> d           1.878   3.220  -1.957  0.00  0.00    -0.264 OA
BRANCH  13  15
ATOM     15  O1  <0> d           2.255   1.043  -1.976  0.00  0.00    -0.321 OA
BRANCH  15  16
ATOM     16  C2  <0> d           2.813   1.184  -3.309  0.00  0.00     0.025 C 
ATOM     17  H5  <0> d           2.055   1.588  -3.980  0.00  0.00     0.074 H 
ATOM     18  H6  <0> d           3.667   1.861  -3.276  0.00  0.00     0.074 H 
BRANCH  16  19
ATOM     19  C1  <0> d           3.267  -0.185  -3.819  0.00  0.00    -0.056 C 
ATOM     20  H2  <0> d           4.026  -0.590  -3.148  0.00  0.00     0.030 H 
ATOM     21  H3  <0> d           2.414  -0.862  -3.852  0.00  0.00     0.030 H 
ATOM     22  H4  <0> d           3.686  -0.080  -4.820  0.00  0.00     0.030 H 
ENDBRANCH  16  19
ENDBRANCH  15  16
ENDBRANCH  13  15
ENDBRANCH   1  13
TORSDOF 4
