REMARK  1 active torsions:
REMARK  status: ('A' for Active; 'I' for Inactive)
REMARK    1  A    between atoms: C7_11  and  N3_12 
ROOT
ATOM      1  C1  <0> d          -0.017   1.394   0.010  0.00  0.00    -0.045 A 
ATOM      2  C2  <0> d           1.129   2.123   0.003  0.00  0.00    -0.064 A 
ATOM      3  C3  <0> d           2.372   1.463  -0.013  0.00  0.00     0.039 A 
ATOM      4  C4  <0> d           2.396  -0.007  -0.021  0.00  0.00     0.093 A 
ATOM      5  C5  <0> d           1.167  -0.703  -0.013  0.00  0.00    -0.015 A 
ATOM      6  C6  <0> d           0.002  -0.004   0.002  0.00  0.00     0.118 A 
ATOM      7  F1  <0> d          -1.169  -0.678   0.010  0.00  0.00    -0.206 F 
ATOM      8  N1  <0> d           3.666  -0.370  -0.035  0.00  0.00    -0.172 NA
ATOM      9  N2  <0> d           4.471   0.775  -0.037  0.00  0.00    -0.262 N 
ATOM     10  H1  <0> d           5.441   0.773  -0.046  0.00  0.00     0.191 HD
ATOM     11  C7  <0> d           3.702   1.876  -0.024  0.00  0.00     0.128 A 
ATOM     12  H2  <0> d          -0.967   1.907   0.026  0.00  0.00     0.088 H 
ATOM     13  H3  <0> d           1.086   3.202   0.009  0.00  0.00     0.085 H 
ATOM     14  H4  <0> d           1.154  -1.783  -0.018  0.00  0.00     0.091 H 
ENDROOT
BRANCH  11  15
ATOM     15  N3  <0> d           4.151   3.187  -0.021  0.00  0.00    -0.384 N 
ATOM     16  H5  <0> d           3.514   3.918  -0.012  0.00  0.00     0.157 HD
ATOM     17  H6  <0> d           5.103   3.374  -0.030  0.00  0.00     0.157 HD
ENDBRANCH  11  15
TORSDOF 1
