REMARK  1 active torsions:
REMARK  status: ('A' for Active; 'I' for Inactive)
REMARK    1  A    between atoms: C3_3  and  N1_6 
ROOT
ATOM      1  C1  <0> d          -0.016   1.351   0.009  0.00  0.00    -0.074 A 
ATOM      2  C2  <0> d           1.182   2.039   0.002  0.00  0.00    -0.048 A 
ATOM      3  C3  <0> d           2.346   1.331  -0.013  0.00  0.00     0.098 A 
ATOM      4  S1  <0> d           1.753  -0.353  -0.017  0.00  0.00    -0.082 SA
ATOM      5  C4  <0> d           0.002  -0.004   0.002  0.00  0.00    -0.043 A 
ATOM      6  H1  <0> d          -0.955   1.886   0.026  0.00  0.00     0.084 H 
ATOM      7  H2  <0> d           1.196   3.119   0.007  0.00  0.00     0.087 H 
ATOM      8  H3  <0> d          -0.828  -0.695   0.006  0.00  0.00     0.095 H 
ENDROOT
BRANCH   3   9
ATOM      9  N1  <0> d           3.663   1.802  -0.024  0.00  0.00    -0.239 N 
ATOM     10  N2  <0> d           4.059   3.145  -0.022  0.00  0.00    -0.180 NA
ATOM     11  C7  <0> d           5.367   3.187  -0.032  0.00  0.00     0.024 A 
ATOM     12  C6  <0> d           5.847   1.873  -0.049  0.00  0.00    -0.047 A 
ATOM     13  H6  <0> d           5.973   4.081  -0.030  0.00  0.00     0.117 H 
ATOM     14  C5  <0> d           4.780   1.040  -0.044  0.00  0.00     0.006 A 
ATOM     15  H5  <0> d           6.885   1.575  -0.064  0.00  0.00     0.087 H 
ATOM     16  H4  <0> d           4.814  -0.040  -0.054  0.00  0.00     0.114 H 
ENDBRANCH   3   9
TORSDOF 1
