REMARK  0 active torsions:
REMARK  status: ('A' for Active; 'I' for Inactive)
ROOT
ATOM      1  C1  <0> d          -0.018   1.456   0.010  0.00  0.00    -0.045 C 
ATOM      2  C2  <0> d           1.505   1.723  -0.003  0.00  0.00    -0.105 C 
ATOM      3  C3  <0> d           2.137   0.697  -0.582  0.00  0.00    -0.101 C 
ATOM      4  C4  <0> d           1.121  -0.282  -1.073  0.00  0.00    -0.027 C 
ATOM      5  H1  <0> d           0.791  -0.043  -2.084  0.00  0.00     0.047 H 
ATOM      6  C5  <0> d           0.002  -0.004   0.002  0.00  0.00    -0.037 C 
ATOM      7  H2  <0> d           0.613  -0.136   0.895  0.00  0.00     0.042 H 
ATOM      8  C6  <0> d          -0.784  -1.260   0.133  0.00  0.00    -0.033 C 
ATOM      9  H3  <0> d          -1.855  -1.179   0.321  0.00  0.00     0.046 H 
ATOM     10  C7  <0> d          -0.302  -2.121  -1.115  0.00  0.00    -0.051 C 
ATOM     11  C8  <0> d           1.253  -1.787  -0.867  0.00  0.00    -0.030 C 
ATOM     12  H4  <0> d           1.971  -2.280  -1.523  0.00  0.00     0.046 H 
ATOM     13  C9  <0> d           1.319  -2.192   0.589  0.00  0.00    -0.101 C 
ATOM     14  C10 <0> d           0.120  -1.957   1.202  0.00  0.00    -0.101 C 
ATOM     15  H5  <0> d          -0.483   1.844   0.917  0.00  0.00     0.039 H 
ATOM     16  H6  <0> d          -0.500   1.853  -0.883  0.00  0.00     0.039 H 
ATOM     17  H7  <0> d           1.986   2.604   0.395  0.00  0.00     0.076 H 
ATOM     18  H8  <0> d           3.207   0.593  -0.679  0.00  0.00     0.076 H 
ATOM     19  H9  <0> d          -0.520  -3.183  -0.999  0.00  0.00     0.034 H 
ATOM     20  H10 <0> d          -0.671  -1.727  -2.062  0.00  0.00     0.034 H 
ATOM     21  H11 <0> d           2.197  -2.593   1.072  0.00  0.00     0.076 H 
ATOM     22  H12 <0> d          -0.153  -2.211   2.216  0.00  0.00     0.076 H 
ENDROOT
TORSDOF 0
