REMARK  3 active torsions:
REMARK  status: ('A' for Active; 'I' for Inactive)
REMARK    1  A    between atoms: C1_1  and  N1_2 
REMARK       I    between atoms: N1_2  and  C2_3 
REMARK       I    between atoms: C2_3  and  N2_5 
REMARK    2  A    between atoms: N2_5  and  C3_6 
REMARK    3  A    between atoms: C3_6  and  C4_7 
ROOT
ATOM      1  C3  <0> d          -2.550   3.059   1.752  0.00  0.00     0.021 C 
ATOM      2  H7  <0> d          -3.170   3.858   1.344  0.00  0.00     0.068 H 
ATOM      3  H8  <0> d          -3.152   2.159   1.876  0.00  0.00     0.068 H 
ENDROOT
BRANCH   1   4
ATOM      4  N2  <0> d          -2.015   3.472   3.052  0.00  0.00    -0.341 N 
ATOM      5  C2  <0> d          -2.856   3.780   4.060  0.00  0.00     0.315 C 
ATOM      6  N1  <0> d          -2.364   4.159   5.256  0.00  0.00    -0.347 N 
ATOM      7  O1  <0> d          -4.058   3.714   3.890  0.00  0.00    -0.247 OA
ATOM      8  H5  <0> d          -1.405   4.212   5.391  0.00  0.00     0.163 HD
ATOM      9  H6  <0> d          -1.056   3.525   3.188  0.00  0.00     0.164 HD
BRANCH   6  10
ATOM     10  C1  <0> d          -3.277   4.493   6.351  0.00  0.00    -0.017 C 
ATOM     11  H2  <0> d          -2.700   4.775   7.232  0.00  0.00     0.056 H 
ATOM     12  H3  <0> d          -3.914   5.326   6.052  0.00  0.00     0.056 H 
ATOM     13  H4  <0> d          -3.897   3.627   6.585  0.00  0.00     0.056 H 
ENDBRANCH   6  10
ENDBRANCH   1   4
BRANCH   1  14
ATOM     14  C4  <0> d          -1.394   2.771   0.793  0.00  0.00     0.053 C 
ATOM     15  H1  <0> d          -0.700   3.611   0.763  0.00  0.00     0.085 H 
ATOM     16  O2  <0> d          -0.705   1.559   1.176  0.00  0.00    -0.384 OA
ATOM     17  C7  <0> d          -0.013   1.086   0.008  0.00  0.00     0.020 C 
ATOM     18  C6  <0> d          -0.778   1.606  -1.224  0.00  0.00    -0.043 C 
ATOM     19  H13 <0> d           0.002  -0.004   0.002  0.00  0.00     0.074 H 
ATOM     20  H14 <0> d           1.007   1.470   0.000  0.00  0.00     0.074 H 
ATOM     21  C5  <0> d          -1.928   2.453  -0.626  0.00  0.00    -0.037 C 
ATOM     22  H11 <0> d          -0.129   2.227  -1.842  0.00  0.00     0.036 H 
ATOM     23  H12 <0> d          -1.176   0.774  -1.805  0.00  0.00     0.036 H 
ATOM     24  H9  <0> d          -2.076   3.368  -1.200  0.00  0.00     0.036 H 
ATOM     25  H10 <0> d          -2.850   1.875  -0.574  0.00  0.00     0.036 H 
ENDBRANCH   1  14
TORSDOF 3
