REMARK  5 active torsions:
REMARK  status: ('A' for Active; 'I' for Inactive)
REMARK    1  A    between atoms: C1_1  and  O1_2 
REMARK    2  A    between atoms: O1_2  and  C2_3 
REMARK    3  A    between atoms: C5_6  and  N1_11 
REMARK    4  A    between atoms: C6_7  and  C8_9 
REMARK    5  A    between atoms: C8_9  and  O2_10 
ROOT
ATOM      1  C2  <0> d          -1.237   3.137   0.030  0.00  0.00     0.068 A 
ATOM      2  C3  <0> d          -1.218   1.750   0.017  0.00  0.00    -0.049 A 
ATOM      3  C4  <0> d          -0.013   1.076   0.008  0.00  0.00    -0.054 A 
ATOM      4  C5  <0> d           1.181   1.787   0.000  0.00  0.00     0.034 A 
ATOM      5  C6  <0> d           1.161   3.175   0.008  0.00  0.00    -0.006 A 
ATOM      6  C7  <0> d          -0.046   3.848   0.023  0.00  0.00    -0.041 A 
ATOM      7  H4  <0> d          -2.146   1.198   0.019  0.00  0.00     0.087 H 
ATOM      8  H5  <0> d           0.002  -0.004   0.002  0.00  0.00     0.087 H 
ATOM      9  H6  <0> d          -0.061   4.928   0.029  0.00  0.00     0.088 H 
ENDROOT
BRANCH   1  10
ATOM     10  O1  <0> d          -2.424   3.800   0.044  0.00  0.00    -0.356 OA
BRANCH  10  11
ATOM     11  C1  <0> d          -3.611   3.005   0.051  0.00  0.00     0.010 C 
ATOM     12  H1  <0> d          -4.493   3.663   0.062  0.00  0.00     0.066 H 
ATOM     13  H2  <0> d          -3.619   2.366   0.946  0.00  0.00     0.066 H 
ATOM     14  H3  <0> d          -3.635   2.375  -0.850  0.00  0.00     0.066 H 
ENDBRANCH  10  11
ENDBRANCH   1  10
BRANCH   5  15
ATOM     15  C8  <0> d           2.454   3.947  -0.001  0.00  0.00     0.043 C 
ATOM     16  H7  <0> d           3.044   3.685   0.890  0.00  0.00     0.081 H 
ATOM     17  H8  <0> d           3.026   3.695  -0.906  0.00  0.00     0.081 H 
BRANCH  15  18
ATOM     18  O2  <0> d           2.173   5.348   0.010  0.00  0.00    -0.396 OA
ATOM     19  H9  <0> d           2.998   6.075   0.005  0.00  0.00     0.209 HD
ENDBRANCH  15  18
ENDBRANCH   5  15
BRANCH   4  20
ATOM     20  N1  <0> d           2.402   1.104  -0.015  0.00  0.00    -0.399 N 
ATOM     21  H10 <0> d           3.347   1.668  -0.021  0.00  0.00     0.156 HD
ATOM     22  H11 <0> d           2.417   0.004  -0.022  0.00  0.00     0.156 HD
ENDBRANCH   4  20
TORSDOF 5
