REMARK  4 active torsions:
REMARK  status: ('A' for Active; 'I' for Inactive)
REMARK    1  A    between atoms: C1_1  and  C2_2 
REMARK    2  A    between atoms: C3_3  and  C8_12 
REMARK    3  A    between atoms: C4_4  and  C7_9 
REMARK    4  A    between atoms: C5_7  and  C6_8 
ROOT
ATOM      1  C2  <0> d          -2.085   1.835   1.378  0.00  0.00    -0.031 A 
ATOM      2  C3  <0> d          -0.718   1.572   1.248  0.00  0.00    -0.021 A 
ATOM      3  C4  <0> d          -0.137   1.847   2.469  0.00  0.00     0.116 A 
ATOM      4  N1  <0> d          -1.137   2.264   3.318  0.00  0.00    -0.354 N 
ATOM      5  H1  <0> d          -0.898   2.538   4.356  0.00  0.00     0.166 HD
ATOM      6  C5  <0> d          -2.309   2.249   2.649  0.00  0.00     0.012 A 
ENDROOT
BRANCH   1   7
ATOM      7  C1  <0> d          -3.125   1.683   0.298  0.00  0.00    -0.049 C 
ATOM      8  H2  <0> d          -2.644   1.331  -0.626  0.00  0.00     0.033 H 
ATOM      9  H3  <0> d          -3.607   2.654   0.114  0.00  0.00     0.033 H 
ATOM     10  H4  <0> d          -3.882   0.953   0.619  0.00  0.00     0.033 H 
ENDBRANCH   1   7
BRANCH   6  11
ATOM     11  C6  <0> d          -3.648   2.636   3.220  0.00  0.00    -0.037 C 
ATOM     12  H5  <0> d          -3.527   2.929   4.274  0.00  0.00     0.035 H 
ATOM     13  H6  <0> d          -4.336   1.780   3.155  0.00  0.00     0.035 H 
ATOM     14  H7  <0> d          -4.060   3.481   2.650  0.00  0.00     0.035 H 
ENDBRANCH   6  11
BRANCH   2  15
ATOM     15  C8  <0> d          -0.013   1.086   0.008  0.00  0.00    -0.048 C 
ATOM     16  H8  <0> d           1.061   0.972   0.218  0.00  0.00     0.033 H 
ATOM     17  H9  <0> d          -0.152   1.815  -0.803  0.00  0.00     0.033 H 
ATOM     18  H10 <0> d          -0.432   0.115  -0.296  0.00  0.00     0.033 H 
ENDBRANCH   2  15
BRANCH   3  19
ATOM     19  C7  <0> d           1.284   1.720   2.800  0.00  0.00     0.227 C 
ATOM     20  O1  <0> d           2.074   1.339   1.957  0.00  0.00    -0.643 OA
ATOM     21  O2  <0> d           1.718   2.025   4.041  0.00  0.00    -0.643 OA
ENDBRANCH   3  19
TORSDOF 4
