REMARK  3 active torsions:
REMARK  status: ('A' for Active; 'I' for Inactive)
REMARK    1  A    between atoms: C1_1  and  O1_2 
REMARK    2  A    between atoms: O1_2  and  C2_3 
REMARK    3  A    between atoms: C2_3  and  C3_5 
ROOT
ATOM      1  C3  <0> d          -1.247  -2.108   0.003  0.00  0.00     0.057 A 
ATOM      2  C4  <0> d          -2.480  -2.773   0.005  0.00  0.00    -0.064 A 
ATOM      3  C5  <0> d          -2.478  -4.156  -0.002  0.00  0.00    -0.065 A 
ATOM      4  C6  <0> d          -1.271  -4.832  -0.011  0.00  0.00     0.002 A 
ATOM      5  N1  <0> d          -0.125  -4.180  -0.013  0.00  0.00    -0.272 NA
ATOM      6  C7  <0> d          -0.074  -2.864  -0.013  0.00  0.00     0.018 A 
ATOM      7  H4  <0> d          -3.408  -2.220   0.013  0.00  0.00     0.085 H 
ATOM      8  H5  <0> d          -3.410  -4.703  -0.000  0.00  0.00     0.085 H 
ATOM      9  H6  <0> d          -1.268  -5.912  -0.017  0.00  0.00     0.114 H 
ATOM     10  H7  <0> d           0.884  -2.365  -0.019  0.00  0.00     0.116 H 
ENDROOT
BRANCH   1  11
ATOM     11  C2  <0> d          -1.190  -0.632   0.010  0.00  0.00     0.294 C 
ATOM     12  O2  <0> d          -2.217   0.016   0.023  0.00  0.00    -0.259 OA
BRANCH  11  13
ATOM     13  O1  <0> d           0.002  -0.004   0.002  0.00  0.00    -0.322 OA
BRANCH  13  14
ATOM     14  C1  <0> d          -0.017   1.425   0.010  0.00  0.00     0.013 C 
ATOM     15  H1  <0> d           1.005   1.802   0.002  0.00  0.00     0.067 H 
ATOM     16  H2  <0> d          -0.544   1.786  -0.873  0.00  0.00     0.067 H 
ATOM     17  H3  <0> d          -0.527   1.776   0.907  0.00  0.00     0.067 H 
ENDBRANCH  13  14
ENDBRANCH  11  13
ENDBRANCH   1  11
TORSDOF 3
