REMARK  2 active torsions:
REMARK  status: ('A' for Active; 'I' for Inactive)
REMARK    1  A    between atoms: C2_2  and  C4_7 
REMARK    2  A    between atoms: C4_7  and  O2_8 
ROOT
ATOM      1  C1  <0> d          -0.013   1.076   0.008  0.00  0.00    -0.002 A 
ATOM      2  C2  <0> d          -1.153   1.884   0.029  0.00  0.00     0.082 A 
ATOM      3  N1  <0> d          -0.770   3.135   0.031  0.00  0.00    -0.175 NA
ATOM      4  N2  <0> d           0.630   3.167   0.011  0.00  0.00    -0.254 N 
ATOM      5  C3  <0> d           1.075   1.891   0.002  0.00  0.00     0.197 A 
ATOM      6  O1  <0> d           2.374   1.496  -0.013  0.00  0.00    -0.171 OA
ATOM      7  H1  <0> d           0.002  -0.004   0.002  0.00  0.00     0.093 H 
ATOM      8  H2  <0> d           1.182   3.965   0.007  0.00  0.00     0.191 HD
ENDROOT
BRANCH   2   9
ATOM      9  C4  <0> d          -2.580   1.397   0.046  0.00  0.00     0.058 C 
ATOM     10  H3  <0> d          -3.077   1.760   0.946  0.00  0.00     0.083 H 
ATOM     11  H4  <0> d          -3.102   1.772  -0.834  0.00  0.00     0.083 H 
BRANCH   9  12
ATOM     12  O2  <0> d          -2.595  -0.032   0.038  0.00  0.00    -0.395 OA
ATOM     13  H5  <0> d          -3.483  -0.415   0.048  0.00  0.00     0.209 HD
ENDBRANCH   9  12
ENDBRANCH   2   9
TORSDOF 2
