REMARK  2 active torsions:
REMARK  status: ('A' for Active; 'I' for Inactive)
REMARK    1  A    between atoms: C1_1  and  C2_2 
REMARK    2  A    between atoms: C4_4  and  N2_10 
ROOT
ATOM      1  C2  <0> d          -0.052   3.724   0.022  0.00  0.00    -0.053 A 
ATOM      2  C3  <0> d          -1.243   3.001   0.029  0.00  0.00    -0.035 A 
ATOM      3  C4  <0> d          -1.204   1.623   0.017  0.00  0.00     0.101 A 
ATOM      4  N1  <0> d          -0.011   0.966   0.007  0.00  0.00    -0.310 N 
ATOM      5  H1  <0> d           0.002  -0.004   0.002  0.00  0.00     0.170 HD
ATOM      6  C5  <0> d           1.150   1.647  -0.000  0.00  0.00     0.247 A 
ATOM      7  O1  <0> d           2.210   1.040  -0.013  0.00  0.00    -0.268 OA
ATOM      8  C6  <0> d           1.148   3.046   0.007  0.00  0.00    -0.011 A 
ATOM      9  H5  <0> d          -2.192   3.517   0.040  0.00  0.00     0.090 H 
ATOM     10  H6  <0> d           2.081   3.591   0.002  0.00  0.00     0.092 H 
ENDROOT
BRANCH   1  11
ATOM     11  C1  <0> d          -0.076   5.231   0.031  0.00  0.00    -0.051 C 
ATOM     12  H2  <0> d           0.946   5.611   0.024  0.00  0.00     0.033 H 
ATOM     13  H3  <0> d          -0.603   5.591  -0.852  0.00  0.00     0.033 H 
ATOM     14  H4  <0> d          -0.587   5.581   0.927  0.00  0.00     0.033 H 
ENDBRANCH   1  11
BRANCH   3  15
ATOM     15  N2  <0> d          -2.379   0.906   0.018  0.00  0.00    -0.385 N 
ATOM     16  H7  <0> d          -2.355  -0.064   0.013  0.00  0.00     0.157 HD
ATOM     17  H8  <0> d          -3.230   1.371   0.025  0.00  0.00     0.157 HD
ENDBRANCH   3  15
TORSDOF 2
