REMARK  1 active torsions:
REMARK  status: ('A' for Active; 'I' for Inactive)
REMARK    1  A    between atoms: C4_6  and  O3_8 
ROOT
ATOM      1  C1  <0> d          -0.789   1.612  -1.217  0.00  0.00    -0.012 C 
ATOM      2  C2  <0> d          -0.013   1.086   0.008  0.00  0.00     0.032 C 
ATOM      3  O1  <0> d          -0.723   1.569   1.183  0.00  0.00    -0.319 OA
ATOM      4  C3  <0> d          -1.475   2.635   0.850  0.00  0.00     0.287 C 
ATOM      5  O2  <0> d          -1.734   3.580   1.557  0.00  0.00    -0.262 OA
ATOM      6  C4  <0> d          -1.938   2.426  -0.581  0.00  0.00     0.121 C 
ATOM      7  H1  <0> d          -2.868   1.859  -0.605  0.00  0.00     0.099 H 
ATOM      8  H2  <0> d          -0.154   2.253  -1.829  0.00  0.00     0.040 H 
ATOM      9  H3  <0> d          -1.181   0.784  -1.809  0.00  0.00     0.040 H 
ATOM     10  H4  <0> d           0.002  -0.004   0.002  0.00  0.00     0.075 H 
ATOM     11  H5  <0> d           1.006   1.474   0.000  0.00  0.00     0.075 H 
ENDROOT
BRANCH   6  12
ATOM     12  O3  <0> d          -2.094   3.681  -1.247  0.00  0.00    -0.386 OA
ATOM     13  H6  <0> d          -2.802   4.232  -0.887  0.00  0.00     0.210 HD
ENDBRANCH   6  12
TORSDOF 1
