REMARK  5 active torsions:
REMARK  status: ('A' for Active; 'I' for Inactive)
REMARK    1  A    between atoms: C1_1  and  C2_2 
REMARK    2  A    between atoms: C5_6  and  C7_8 
REMARK    3  A    between atoms: C7_8  and  C8_9 
REMARK    4  A    between atoms: C8_9  and  O1_10 
REMARK    5  A    between atoms: O1_10  and  C9_11 
ROOT
ATOM      1  C2  <0> d           2.371   1.359  -0.013  0.00  0.00    -0.059 A 
ATOM      2  C3  <0> d           1.162   2.038   0.002  0.00  0.00    -0.060 A 
ATOM      3  C4  <0> d          -0.016   1.315   0.009  0.00  0.00     0.003 A 
ATOM      4  N1  <0> d           0.002  -0.004   0.002  0.00  0.00    -0.265 NA
ATOM      5  C5  <0> d           1.133  -0.682  -0.012  0.00  0.00     0.036 A 
ATOM      6  C6  <0> d           2.350  -0.027  -0.021  0.00  0.00    -0.053 A 
ATOM      7  H4  <0> d           1.141   3.117   0.007  0.00  0.00     0.086 H 
ATOM      8  H5  <0> d          -0.962   1.836   0.017  0.00  0.00     0.114 H 
ATOM      9  H6  <0> d           3.273  -0.588  -0.033  0.00  0.00     0.087 H 
ENDROOT
BRANCH   5  10
ATOM     10  C7  <0> d           1.098  -2.189  -0.020  0.00  0.00    -0.005 C 
ATOM     11  H7  <0> d           0.646  -2.537  -0.949  0.00  0.00     0.045 H 
ATOM     12  H8  <0> d           2.114  -2.576   0.058  0.00  0.00     0.045 H 
BRANCH  10  13
ATOM     13  C8  <0> d           0.270  -2.685   1.168  0.00  0.00     0.024 C 
ATOM     14  H9  <0> d           0.722  -2.337   2.096  0.00  0.00     0.074 H 
ATOM     15  H10 <0> d          -0.746  -2.298   1.090  0.00  0.00     0.074 H 
BRANCH  13  16
ATOM     16  O1  <0> d           0.237  -4.114   1.161  0.00  0.00    -0.396 OA
BRANCH  16  17
ATOM     17  C9  <0> d          -0.514  -4.683   2.235  0.00  0.00     0.004 C 
ATOM     18  H11 <0> d          -0.079  -4.376   3.186  0.00  0.00     0.066 H 
ATOM     19  H12 <0> d          -1.547  -4.337   2.179  0.00  0.00     0.066 H 
ATOM     20  H13 <0> d          -0.491  -5.770   2.158  0.00  0.00     0.066 H 
ENDBRANCH  16  17
ENDBRANCH  13  16
ENDBRANCH  10  13
ENDBRANCH   5  10
BRANCH   1  21
ATOM     21  C1  <0> d           3.677   2.111  -0.022  0.00  0.00    -0.051 C 
ATOM     22  H1  <0> d           3.982   2.297  -1.052  0.00  0.00     0.033 H 
ATOM     23  H2  <0> d           3.553   3.061   0.498  0.00  0.00     0.033 H 
ATOM     24  H3  <0> d           4.441   1.518   0.481  0.00  0.00     0.033 H 
ENDBRANCH   1  21
TORSDOF 5
