REMARK  2 active torsions:
REMARK  status: ('A' for Active; 'I' for Inactive)
REMARK    1  A    between atoms: C1_1  and  C2_2 
REMARK    2  A    between atoms: C2_2  and  C3_3 
ROOT
ATOM      1  C3  <0> d           1.180   2.145   0.002  0.00  0.00    -0.038 A 
ATOM      2  C4  <0> d           1.154   3.525   0.010  0.00  0.00    -0.075 A 
ATOM      3  C5  <0> d          -0.055   4.197   0.025  0.00  0.00    -0.082 A 
ATOM      4  C6  <0> d          -1.246   3.492   0.032  0.00  0.00    -0.082 A 
ATOM      5  C7  <0> d          -1.234   2.113   0.019  0.00  0.00    -0.062 A 
ATOM      6  C8  <0> d          -0.017   1.428   0.010  0.00  0.00     0.051 A 
ATOM      7  C9  <0> d           0.002  -0.004   0.002  0.00  0.00     0.100 C 
ATOM      8  N1  <0> d           0.018  -1.140  -0.004  0.00  0.00    -0.191 NA
ATOM      9  H6  <0> d           2.080   4.081   0.004  0.00  0.00     0.084 H 
ATOM     10  H7  <0> d          -0.070   5.277   0.030  0.00  0.00     0.083 H 
ATOM     11  H8  <0> d          -2.186   4.023   0.043  0.00  0.00     0.083 H 
ATOM     12  H9  <0> d          -2.164   1.564   0.021  0.00  0.00     0.085 H 
ENDROOT
BRANCH   1  13
ATOM     13  C2  <0> d           2.498   1.415  -0.015  0.00  0.00    -0.043 C 
ATOM     14  H4  <0> d           3.272   2.051   0.416  0.00  0.00     0.039 H 
ATOM     15  H5  <0> d           2.414   0.499   0.570  0.00  0.00     0.039 H 
BRANCH  13  16
ATOM     16  C1  <0> d           2.869   1.066  -1.458  0.00  0.00    -0.073 C 
ATOM     17  H1  <0> d           2.954   1.982  -2.042  0.00  0.00     0.028 H 
ATOM     18  H2  <0> d           3.823   0.538  -1.470  0.00  0.00     0.028 H 
ATOM     19  H3  <0> d           2.096   0.430  -1.888  0.00  0.00     0.028 H 
ENDBRANCH  13  16
ENDBRANCH   1  13
TORSDOF 2
