REMARK  1 active torsions:
REMARK  status: ('A' for Active; 'I' for Inactive)
REMARK    1  A    between atoms: C1_1  and  C2_2 
ROOT
ATOM      1  C2  <0> d           0.002  -0.004   0.002  0.00  0.00    -0.104 C 
ATOM      2  C3  <0> d          -0.016   1.306   0.009  0.00  0.00    -0.084 C 
ATOM      3  C4  <0> d          -1.248   2.187   0.019  0.00  0.00    -0.045 C 
ATOM      4  C5  <0> d          -0.753   3.648   0.019  0.00  0.00    -0.061 C 
ATOM      5  C6  <0> d           0.669   3.553  -0.591  0.00  0.00    -0.061 C 
ATOM      6  C7  <0> d           1.195   2.222   0.003  0.00  0.00    -0.045 C 
ATOM      7  H4  <0> d           0.945  -0.531  -0.010  0.00  0.00     0.076 H 
ATOM      8  H5  <0> d          -1.850   1.995  -0.869  0.00  0.00     0.039 H 
ATOM      9  H6  <0> d          -1.836   1.995   0.917  0.00  0.00     0.039 H 
ATOM     10  H7  <0> d          -0.708   4.042   1.034  0.00  0.00     0.033 H 
ATOM     11  H8  <0> d          -1.397   4.267  -0.606  0.00  0.00     0.033 H 
ATOM     12  H9  <0> d           1.286   4.391  -0.269  0.00  0.00     0.033 H 
ATOM     13  H10 <0> d           0.622   3.500  -1.679  0.00  0.00     0.033 H 
ATOM     14  H11 <0> d           1.561   2.377   1.018  0.00  0.00     0.039 H 
ATOM     15  H12 <0> d           1.982   1.809  -0.628  0.00  0.00     0.039 H 
ENDROOT
BRANCH   1  16
ATOM     16  C1  <0> d          -1.293  -0.775   0.010  0.00  0.00    -0.059 C 
ATOM     17  H1  <0> d          -1.079  -1.844   0.003  0.00  0.00     0.032 H 
ATOM     18  H2  <0> d          -1.859  -0.524   0.907  0.00  0.00     0.032 H 
ATOM     19  H3  <0> d          -1.876  -0.515  -0.873  0.00  0.00     0.032 H 
ENDBRANCH   1  16
TORSDOF 1
