REMARK  4 active torsions:
REMARK  status: ('A' for Active; 'I' for Inactive)
REMARK    1  A    between atoms: C1_1  and  C2_2 
REMARK    2  A    between atoms: C3_5  and  C6_10 
REMARK    3  A    between atoms: C4_6  and  O1_8 
REMARK    4  A    between atoms: O1_8  and  C5_9 
REMARK       I    between atoms: C6_10  and  N3_12 
ROOT
ATOM      1  C2  <0> d           1.238  -0.431  -0.012  0.00  0.00     0.103 A 
ATOM      2  N1  <0> d           2.079   0.618  -0.015  0.00  0.00    -0.337 N 
ATOM      3  H1  <0> d           3.078   0.579  -0.024  0.00  0.00     0.167 HD
ATOM      4  C3  <0> d           1.299   1.766  -0.001  0.00  0.00     0.155 A 
ATOM      5  C4  <0> d          -0.016   1.333   0.009  0.00  0.00     0.198 A 
ATOM      6  N2  <0> d           0.002  -0.004   0.002  0.00  0.00    -0.209 NA
ENDROOT
BRANCH   4   7
ATOM      7  C6  <0> d           1.756   3.108   0.002  0.00  0.00     0.270 C 
ATOM      8  O2  <0> d           0.954   4.025   0.015  0.00  0.00    -0.266 OA
ATOM      9  N3  <0> d           3.078   3.370  -0.009  0.00  0.00    -0.365 N 
ATOM     10  H8  <0> d           3.717   2.640  -0.019  0.00  0.00     0.159 HD
ATOM     11  H9  <0> d           3.391   4.288  -0.007  0.00  0.00     0.159 HD
ENDBRANCH   4   7
BRANCH   5  12
ATOM     12  O1  <0> d          -1.120   2.120   0.019  0.00  0.00    -0.338 OA
BRANCH  12  13
ATOM     13  C5  <0> d          -2.388   1.460   0.022  0.00  0.00     0.012 C 
ATOM     14  H5  <0> d          -3.184   2.204   0.030  0.00  0.00     0.067 H 
ATOM     15  H6  <0> d          -2.477   0.842  -0.870  0.00  0.00     0.067 H 
ATOM     16  H7  <0> d          -2.468   0.833   0.910  0.00  0.00     0.067 H 
ENDBRANCH  12  13
ENDBRANCH   5  12
BRANCH   1  17
ATOM     17  C1  <0> d           1.656  -1.879  -0.024  0.00  0.00    -0.021 C 
ATOM     18  H2  <0> d           1.746  -2.223  -1.054  0.00  0.00     0.037 H 
ATOM     19  H3  <0> d           2.617  -1.984   0.480  0.00  0.00     0.037 H 
ATOM     20  H4  <0> d           0.907  -2.478   0.494  0.00  0.00     0.037 H 
ENDBRANCH   1  17
TORSDOF 4
