REMARK  4 active torsions:
REMARK  status: ('A' for Active; 'I' for Inactive)
REMARK    1  A    between atoms: C1_1  and  C2_2 
REMARK    2  A    between atoms: C7_7  and  O1_8 
REMARK    3  A    between atoms: O1_8  and  C8_9 
REMARK    4  A    between atoms: C8_9  and  C9_10 
ROOT
ATOM      1  C9  <0> d           0.047   0.069   4.747  0.00  0.00    -0.091 C 
ATOM      2  C10 <0> d           0.047   0.778   5.683  0.00  0.00    -0.152 C 
ATOM      3  H10 <0> d           0.046   1.412   6.520  0.00  0.00     0.166 H 
ENDROOT
BRANCH   1   4
ATOM      4  C8  <0> d           0.048  -0.820   3.574  0.00  0.00     0.080 C 
ATOM      5  H8  <0> d          -0.834  -1.460   3.603  0.00  0.00     0.094 H 
ATOM      6  H9  <0> d           0.946  -1.437   3.586  0.00  0.00     0.094 H 
BRANCH   4   7
ATOM      7  O1  <0> d           0.025  -0.033   2.381  0.00  0.00    -0.339 OA
BRANCH   7   8
ATOM      8  C7  <0> d           0.023  -0.705   1.199  0.00  0.00     0.075 A 
ATOM      9  C2  <0> d           0.002  -0.004   0.002  0.00  0.00    -0.029 A 
ATOM     10  C3  <0> d           0.006  -0.689  -1.198  0.00  0.00    -0.075 A 
ATOM     11  C4  <0> d           0.024  -2.071  -1.206  0.00  0.00    -0.082 A 
ATOM     12  H4  <0> d          -0.006  -0.144  -2.130  0.00  0.00     0.084 H 
ATOM     13  C5  <0> d           0.039  -2.772  -0.014  0.00  0.00    -0.080 A 
ATOM     14  H5  <0> d           0.026  -2.605  -2.145  0.00  0.00     0.083 H 
ATOM     15  C6  <0> d           0.036  -2.092   1.188  0.00  0.00    -0.050 A 
ATOM     16  H6  <0> d           0.053  -3.852  -0.023  0.00  0.00     0.083 H 
ATOM     17  H7  <0> d           0.048  -2.640   2.119  0.00  0.00     0.087 H 
BRANCH   9  18
ATOM     18  C1  <0> d          -0.018   1.503   0.010  0.00  0.00    -0.049 C 
ATOM     19  H1  <0> d           1.004   1.880   0.003  0.00  0.00     0.033 H 
ATOM     20  H2  <0> d          -0.545   1.864  -0.873  0.00  0.00     0.033 H 
ATOM     21  H3  <0> d          -0.529   1.854   0.907  0.00  0.00     0.033 H 
ENDBRANCH   9  18
ENDBRANCH   7   8
ENDBRANCH   4   7
ENDBRANCH   1   4
TORSDOF 4
