REMARK  1 active torsions:
REMARK  status: ('A' for Active; 'I' for Inactive)
REMARK    1  A    between atoms: C1_1  and  N1_2 
ROOT
ATOM      1  N1  <0> d           1.183   2.991   0.006  0.00  0.00    -0.312 N 
ATOM      2  C2  <0> d           0.043   3.732   0.021  0.00  0.00     0.009 A 
ATOM      3  C3  <0> d          -1.180   3.092   0.029  0.00  0.00     0.128 A 
ATOM      4  C4  <0> d          -1.192   1.620   0.017  0.00  0.00     0.271 A 
ATOM      5  O1  <0> d          -2.242   1.006   0.018  0.00  0.00    -0.266 OA
ATOM      6  N2  <0> d          -0.011   0.966   0.007  0.00  0.00    -0.274 N 
ATOM      7  H1  <0> d           0.003  -0.034   0.006  0.00  0.00     0.173 HD
ATOM      8  C5  <0> d           1.146   1.649  -0.000  0.00  0.00     0.328 A 
ATOM      9  O2  <0> d           2.194   1.032  -0.013  0.00  0.00    -0.246 OA
ATOM     10  C6  <0> d          -2.402   3.838   0.045  0.00  0.00     0.106 C 
ATOM     11  N3  <0> d          -3.372   4.430   0.057  0.00  0.00    -0.191 NA
ATOM     12  H5  <0> d           0.093   4.811   0.027  0.00  0.00     0.114 H 
ENDROOT
BRANCH   1  13
ATOM     13  C1  <0> d           2.480   3.672  -0.002  0.00  0.00    -0.010 C 
ATOM     14  H2  <0> d           3.279   2.931  -0.013  0.00  0.00     0.057 H 
ATOM     15  H3  <0> d           2.554   4.300  -0.890  0.00  0.00     0.057 H 
ATOM     16  H4  <0> d           2.571   4.291   0.890  0.00  0.00     0.057 H 
ENDBRANCH   1  13
TORSDOF 1
