REMARK  2 active torsions:
REMARK  status: ('A' for Active; 'I' for Inactive)
REMARK    1  A    between atoms: C1_1  and  N1_2 
REMARK    2  A    between atoms: N1_2  and  C2_3 
ROOT
ATOM      1  C2  <0> d           2.405  -0.002  -0.021  0.00  0.00     0.059 A 
ATOM      2  C3  <0> d           1.205  -0.692  -0.013  0.00  0.00    -0.055 A 
ATOM      3  C4  <0> d           0.002  -0.004   0.002  0.00  0.00    -0.078 A 
ATOM      4  C5  <0> d          -0.017   1.375   0.010  0.00  0.00    -0.048 A 
ATOM      5  C6  <0> d           1.175   2.086   0.002  0.00  0.00     0.107 A 
ATOM      6  C7  <0> d           2.397   1.399  -0.014  0.00  0.00     0.118 A 
ATOM      7  N2  <0> d           3.374   2.346  -0.018  0.00  0.00    -0.232 NA
ATOM      8  C8  <0> d           2.819   3.520  -0.006  0.00  0.00     0.104 A 
ATOM      9  O1  <0> d           1.481   3.402   0.007  0.00  0.00    -0.302 OA
ATOM     10  H5  <0> d           1.206  -1.772  -0.019  0.00  0.00     0.087 H 
ATOM     11  H6  <0> d          -0.928  -0.552   0.008  0.00  0.00     0.083 H 
ATOM     12  H7  <0> d          -0.959   1.903   0.017  0.00  0.00     0.087 H 
ATOM     13  H8  <0> d           3.356   4.457  -0.006  0.00  0.00     0.155 H 
ENDROOT
BRANCH   1  14
ATOM     14  N1  <0> d           3.615  -0.698  -0.037  0.00  0.00    -0.392 N 
ATOM     15  H4  <0> d           4.454  -0.211  -0.042  0.00  0.00     0.159 HD
BRANCH  14  16
ATOM     16  C1  <0> d           3.618  -2.163  -0.044  0.00  0.00    -0.021 C 
ATOM     17  H1  <0> d           3.113  -2.531   0.849  0.00  0.00     0.056 H 
ATOM     18  H2  <0> d           3.096  -2.522  -0.931  0.00  0.00     0.056 H 
ATOM     19  H3  <0> d           4.646  -2.524  -0.056  0.00  0.00     0.056 H 
ENDBRANCH  14  16
ENDBRANCH   1  14
TORSDOF 2
