REMARK  1 active torsions:
REMARK  status: ('A' for Active; 'I' for Inactive)
REMARK    1  A    between atoms: C3_5  and  C4_6 
ROOT
ATOM      1  C1  <0> d          -2.610   1.359   0.016  0.00  0.00    -0.023 A 
ATOM      2  C2  <0> d          -3.438   2.428   0.031  0.00  0.00     0.046 A 
ATOM      3  O1  <0> d          -2.659   3.518   0.033  0.00  0.00    -0.225 OA
ATOM      4  N1  <0> d          -1.484   3.232   0.026  0.00  0.00    -0.122 NA
ATOM      5  C3  <0> d          -1.308   1.934   0.019  0.00  0.00     0.162 A 
ATOM      6  H1  <0> d          -2.875   0.312   0.007  0.00  0.00     0.090 H 
ATOM      7  H2  <0> d          -4.518   2.408   0.035  0.00  0.00     0.126 H 
ENDROOT
BRANCH   5   8
ATOM      8  C4  <0> d          -0.014   1.210   0.009  0.00  0.00     0.231 C 
ATOM      9  O2  <0> d           0.002  -0.004   0.002  0.00  0.00    -0.643 OA
ATOM     10  O3  <0> d           1.142   1.899   0.001  0.00  0.00    -0.643 OA
ENDBRANCH   5   8
TORSDOF 1
