REMARK  1 active torsions:
REMARK  status: ('A' for Active; 'I' for Inactive)
REMARK    1  A    between atoms: C3_3  and  N2_9 
ROOT
ATOM      1  C1  <0> d           1.198   2.065   0.002  0.00  0.00    -0.066 A 
ATOM      2  C2  <0> d          -0.017   1.363   0.009  0.00  0.00    -0.051 A 
ATOM      3  C3  <0> d           0.002  -0.004   0.002  0.00  0.00     0.094 A 
ATOM      4  C4  <0> d           1.244  -0.676  -0.013  0.00  0.00     0.271 A 
ATOM      5  O1  <0> d           1.278  -1.896  -0.020  0.00  0.00    -0.266 OA
ATOM      6  N1  <0> d           2.390   0.030  -0.021  0.00  0.00    -0.332 N 
ATOM      7  H1  <0> d           3.358  -0.492  -0.033  0.00  0.00     0.168 HD
ATOM      8  C5  <0> d           2.370   1.391  -0.013  0.00  0.00    -0.020 A 
ATOM      9  H2  <0> d           1.197   3.145   0.007  0.00  0.00     0.085 H 
ATOM     10  H3  <0> d          -0.956   1.897   0.017  0.00  0.00     0.087 H 
ATOM     11  H4  <0> d           3.300   1.938  -0.019  0.00  0.00     0.111 H 
ENDROOT
BRANCH   3  12
ATOM     12  N2  <0> d          -1.196  -0.729   0.009  0.00  0.00    -0.395 N 
ATOM     13  H5  <0> d          -1.173  -1.829   0.003  0.00  0.00     0.156 HD
ATOM     14  H6  <0> d          -2.160  -0.199   0.021  0.00  0.00     0.156 HD
ENDBRANCH   3  12
TORSDOF 1
