REMARK  2 active torsions:
REMARK  status: ('A' for Active; 'I' for Inactive)
REMARK    1  A    between atoms: C1_1  and  N1_2 
REMARK    2  A    between atoms: C2_3  and  C5_7 
ROOT
ATOM      1  N1  <0> d           0.078   0.008  -0.385  0.00  0.00    -0.274 N 
ATOM      2  C2  <0> d           1.242  -0.410   0.188  0.00  0.00     0.064 A 
ATOM      3  C3  <0> d           1.968   0.707   0.493  0.00  0.00    -0.036 A 
ATOM      4  C4  <0> d           1.227   1.820   0.097  0.00  0.00     0.024 A 
ATOM      5  N2  <0> d           0.101   1.408  -0.427  0.00  0.00    -0.185 NA
ATOM      6  H4  <0> d           2.942   0.724   0.959  0.00  0.00     0.089 H 
ATOM      7  H5  <0> d           1.530   2.851   0.208  0.00  0.00     0.117 H 
ENDROOT
BRANCH   2   8
ATOM      8  C5  <0> d           1.645  -1.812   0.433  0.00  0.00    -0.008 A 
ATOM      9  C10 <0> d           0.681  -2.819   0.486  0.00  0.00    -0.071 A 
ATOM     10  C9  <0> d           1.063  -4.125   0.714  0.00  0.00    -0.082 A 
ATOM     11  H10 <0> d          -0.363  -2.577   0.349  0.00  0.00     0.084 H 
ATOM     12  C8  <0> d           2.399  -4.437   0.890  0.00  0.00    -0.083 A 
ATOM     13  H9  <0> d           0.318  -4.905   0.756  0.00  0.00     0.083 H 
ATOM     14  C7  <0> d           3.360  -3.443   0.839  0.00  0.00    -0.082 A 
ATOM     15  H8  <0> d           2.694  -5.460   1.069  0.00  0.00     0.083 H 
ATOM     16  C6  <0> d           2.991  -2.134   0.606  0.00  0.00    -0.071 A 
ATOM     17  H7  <0> d           4.402  -3.692   0.978  0.00  0.00     0.083 H 
ATOM     18  H6  <0> d           3.743  -1.359   0.562  0.00  0.00     0.084 H 
ENDBRANCH   2   8
BRANCH   1  19
ATOM     19  C1  <0> d          -1.004  -0.853  -0.871  0.00  0.00     0.003 C 
ATOM     20  H1  <0> d          -1.658  -1.119  -0.040  0.00  0.00     0.059 H 
ATOM     21  H2  <0> d          -1.578  -0.322  -1.630  0.00  0.00     0.059 H 
ATOM     22  H3  <0> d          -0.580  -1.760  -1.303  0.00  0.00     0.059 H 
ENDBRANCH   1  19
TORSDOF 2
