REMARK  3 active torsions:
REMARK  status: ('A' for Active; 'I' for Inactive)
REMARK    1  A    between atoms: C1_1  and  C2_2 
REMARK       I    between atoms: C2_2  and  N1_4 
REMARK    2  A    between atoms: N1_4  and  C3_5 
REMARK    3  A    between atoms: C8_10  and  N2_11 
ROOT
ATOM      1  C3  <0> d          -2.420   1.200  -0.070  0.00  0.00     0.061 A 
ATOM      2  C4  <0> d          -2.460  -0.186  -0.077  0.00  0.00    -0.055 A 
ATOM      3  C5  <0> d          -3.674  -0.843  -0.159  0.00  0.00    -0.081 A 
ATOM      4  C6  <0> d          -4.850  -0.120  -0.245  0.00  0.00    -0.081 A 
ATOM      5  C7  <0> d          -4.820   1.261  -0.244  0.00  0.00    -0.055 A 
ATOM      6  C8  <0> d          -3.606   1.928  -0.157  0.00  0.00     0.052 A 
ATOM      7  H5  <0> d          -1.543  -0.753  -0.015  0.00  0.00     0.087 H 
ATOM      8  H6  <0> d          -3.704  -1.922  -0.161  0.00  0.00     0.083 H 
ATOM      9  H7  <0> d          -5.796  -0.638  -0.314  0.00  0.00     0.083 H 
ATOM     10  H8  <0> d          -5.740   1.822  -0.311  0.00  0.00     0.087 H 
ENDROOT
BRANCH   1  11
ATOM     11  N1  <0> d          -1.191   1.867   0.018  0.00  0.00    -0.326 N 
ATOM     12  C2  <0> d          -0.097   1.345  -0.573  0.00  0.00     0.218 C 
ATOM     13  O1  <0> d          -0.158   0.260  -1.111  0.00  0.00    -0.274 OA
ATOM     14  H4  <0> d          -1.127   2.704   0.504  0.00  0.00     0.169 HD
BRANCH  12  15
ATOM     15  C1  <0> d           1.199   2.114  -0.571  0.00  0.00    -0.003 C 
ATOM     16  H1  <0> d           1.245   2.752  -1.453  0.00  0.00     0.040 H 
ATOM     17  H2  <0> d           1.255   2.730   0.327  0.00  0.00     0.040 H 
ATOM     18  H3  <0> d           2.036   1.415  -0.584  0.00  0.00     0.040 H 
ENDBRANCH  12  15
ENDBRANCH   1  11
BRANCH   6  19
ATOM     19  N2  <0> d          -3.572   3.326  -0.156  0.00  0.00    -0.397 N 
ATOM     20  H9  <0> d          -2.723   3.791  -0.095  0.00  0.00     0.156 HD
ATOM     21  H10 <0> d          -4.398   3.832  -0.216  0.00  0.00     0.156 HD
ENDBRANCH   6  19
TORSDOF 3
