REMARK  0 active torsions:
REMARK  status: ('A' for Active; 'I' for Inactive)
ROOT
ATOM      1  C1  <0> d          -0.751   3.118   1.307  0.00  0.00    -0.064 C 
ATOM      2  C2  <0> d           0.638   3.717   1.134  0.00  0.00    -0.062 C 
ATOM      3  C3  <0> d           1.371   3.151  -0.073  0.00  0.00    -0.053 C 
ATOM      4  H1  <0> d           2.409   3.517  -0.035  0.00  0.00     0.040 H 
ATOM      5  C4  <0> d           0.764   3.611  -1.388  0.00  0.00    -0.056 C 
ATOM      6  C5  <0> d          -0.631   3.050  -1.623  0.00  0.00    -0.009 C 
ATOM      7  C6  <0> d          -0.728   1.602  -1.221  0.00  0.00     0.131 C 
ATOM      8  O1  <0> d          -1.389   0.832  -1.894  0.00  0.00    -0.298 OA
ATOM      9  C7  <0> d          -0.013   1.094   0.008  0.00  0.00     0.004 C 
ATOM     10  H2  <0> d          -0.009   0.094   0.002  0.00  0.00     0.051 H 
ATOM     11  C8  <0> d          -0.720   1.595   1.267  0.00  0.00    -0.055 C 
ATOM     12  C9  <0> d           1.424   1.626  -0.003  0.00  0.00    -0.052 C 
ATOM     13  H3  <0> d          -1.140   3.429   2.291  0.00  0.00     0.033 H 
ATOM     14  H4  <0> d          -1.435   3.506   0.559  0.00  0.00     0.033 H 
ATOM     15  H5  <0> d           1.228   3.520   2.035  0.00  0.00     0.033 H 
ATOM     16  H6  <0> d           0.549   4.803   1.021  0.00  0.00     0.033 H 
ATOM     17  H7  <0> d           0.718   4.706  -1.396  0.00  0.00     0.034 H 
ATOM     18  H8  <0> d           1.419   3.301  -2.211  0.00  0.00     0.034 H 
ATOM     19  H9  <0> d          -1.295   3.574  -1.089  0.00  0.00     0.044 H 
ATOM     20  H10 <0> d          -0.860   3.125  -2.700  0.00  0.00     0.044 H 
ATOM     21  H11 <0> d          -1.745   1.209   1.284  0.00  0.00     0.034 H 
ATOM     22  H12 <0> d          -0.197   1.218   2.151  0.00  0.00     0.034 H 
ATOM     23  H13 <0> d           1.937   1.319   0.908  0.00  0.00     0.034 H 
ATOM     24  H14 <0> d           1.954   1.238  -0.872  0.00  0.00     0.034 H 
ENDROOT
TORSDOF 0
