REMARK  1 active torsions:
REMARK  status: ('A' for Active; 'I' for Inactive)
REMARK    1  A    between atoms: C1_1  and  C2_2 
ROOT
ATOM      1  C2  <0> d           1.215  -0.677  -0.013  0.00  0.00    -0.018 A 
ATOM      2  C3  <0> d           2.379   0.079  -0.020  0.00  0.00    -0.056 A 
ATOM      3  C4  <0> d           2.258   1.460  -0.012  0.00  0.00     0.024 A 
ATOM      4  N1  <0> d           1.061   2.014   0.003  0.00  0.00    -0.161 NA
ATOM      5  N2  <0> d          -0.016   1.316   0.009  0.00  0.00    -0.138 NA
ATOM      6  C5  <0> d           0.002  -0.004   0.002  0.00  0.00     0.154 A 
ATOM      7 Cl1  <0> d          -1.488  -0.895   0.011  0.00  0.00    -0.060 Cl
ATOM      8  H4  <0> d           3.350  -0.394  -0.032  0.00  0.00     0.086 H 
ATOM      9  H5  <0> d           3.142   2.080  -0.017  0.00  0.00     0.117 H 
ENDROOT
BRANCH   1  10
ATOM     10  C1  <0> d           1.267  -2.183  -0.021  0.00  0.00    -0.048 C 
ATOM     11  H1  <0> d           1.270  -2.541  -1.051  0.00  0.00     0.033 H 
ATOM     12  H2  <0> d           2.174  -2.518   0.482  0.00  0.00     0.033 H 
ATOM     13  H3  <0> d           0.395  -2.580   0.499  0.00  0.00     0.033 H 
ENDBRANCH   1  10
TORSDOF 1
