REMARK  5 active torsions:
REMARK  status: ('A' for Active; 'I' for Inactive)
REMARK    1  A    between atoms: C1_1  and  C2_2 
REMARK    2  A    between atoms: C5_5  and  O1_8 
REMARK    3  A    between atoms: O1_8  and  C8_9 
REMARK    4  A    between atoms: C8_9  and  C9_10 
REMARK    5  A    between atoms: C8_9  and  C10_11 
ROOT
ATOM      1  C2  <0> d           1.135   2.038  -0.645  0.00  0.00    -0.062 A 
ATOM      2  C3  <0> d          -0.043   1.312  -0.631  0.00  0.00    -0.075 A 
ATOM      3  C4  <0> d          -0.012  -0.053  -0.423  0.00  0.00    -0.050 A 
ATOM      4  C5  <0> d           1.202  -0.696  -0.226  0.00  0.00     0.069 A 
ATOM      5  C6  <0> d           2.381   0.034  -0.240  0.00  0.00    -0.050 A 
ATOM      6  C7  <0> d           2.345   1.399  -0.449  0.00  0.00    -0.075 A 
ATOM      7  H4  <0> d          -0.987   1.813  -0.789  0.00  0.00     0.084 H 
ATOM      8  H5  <0> d          -0.931  -0.619  -0.413  0.00  0.00     0.087 H 
ATOM      9  H6  <0> d           3.327  -0.465  -0.087  0.00  0.00     0.087 H 
ATOM     10  H7  <0> d           3.263   1.968  -0.461  0.00  0.00     0.084 H 
ENDROOT
BRANCH   4  11
ATOM     11  O1  <0> d           1.234  -2.039  -0.020  0.00  0.00    -0.347 OA
BRANCH  11  12
ATOM     12  C8  <0> d          -0.022  -2.708   0.100  0.00  0.00     0.038 C 
ATOM     13  H8  <0> d          -0.734  -2.057   0.608  0.00  0.00     0.082 H 
BRANCH  12  14
ATOM     14  C9  <0> d          -0.552  -3.053  -1.294  0.00  0.00    -0.052 C 
ATOM     15  H9  <0> d           0.159  -3.704  -1.802  0.00  0.00     0.030 H 
ATOM     16  H10 <0> d          -1.511  -3.563  -1.202  0.00  0.00     0.030 H 
ATOM     17  H11 <0> d          -0.681  -2.136  -1.870  0.00  0.00     0.030 H 
ENDBRANCH  12  14
BRANCH  12  18
ATOM     18  C10 <0> d           0.159  -3.994   0.908  0.00  0.00    -0.052 C 
ATOM     19  H12 <0> d           0.536  -3.748   1.901  0.00  0.00     0.030 H 
ATOM     20  H13 <0> d          -0.800  -4.504   1.000  0.00  0.00     0.030 H 
ATOM     21  H14 <0> d           0.870  -4.645   0.401  0.00  0.00     0.030 H 
ENDBRANCH  12  18
ENDBRANCH  11  12
ENDBRANCH   4  11
BRANCH   1  22
ATOM     22  C1  <0> d           1.098   3.527  -0.873  0.00  0.00    -0.051 C 
ATOM     23  H1  <0> d           1.006   4.039   0.085  0.00  0.00     0.033 H 
ATOM     24  H2  <0> d           2.017   3.842  -1.367  0.00  0.00     0.033 H 
ATOM     25  H3  <0> d           0.244   3.777  -1.502  0.00  0.00     0.033 H 
ENDBRANCH   1  22
TORSDOF 5
