REMARK  4 active torsions:
REMARK  status: ('A' for Active; 'I' for Inactive)
REMARK    1  A    between atoms: C1_1  and  C2_2 
REMARK    2  A    between atoms: C2_2  and  C3_3 
REMARK    3  A    between atoms: C2_2  and  O1_4 
REMARK    4  A    between atoms: O1_4  and  C4_5 
ROOT
ATOM      1  C4  <0> d          -1.224   1.753   0.018  0.00  0.00     0.072 A 
ATOM      2  C5  <0> d          -1.229   3.122   0.244  0.00  0.00    -0.051 A 
ATOM      3  C6  <0> d          -0.041   3.826   0.248  0.00  0.00    -0.077 A 
ATOM      4  C7  <0> d           1.155   3.169   0.023  0.00  0.00    -0.045 A 
ATOM      5  C8  <0> d           1.164   1.804  -0.208  0.00  0.00     0.119 A 
ATOM      6  C9  <0> d          -0.025   1.095  -0.214  0.00  0.00    -0.014 A 
ATOM      7  F1  <0> d           2.333   1.164  -0.428  0.00  0.00    -0.206 F 
ATOM      8  H8  <0> d          -2.162   3.637   0.421  0.00  0.00     0.087 H 
ATOM      9  H9  <0> d          -0.045   4.891   0.428  0.00  0.00     0.083 H 
ATOM     10  H10 <0> d           2.083   3.721   0.028  0.00  0.00     0.088 H 
ATOM     11  H11 <0> d          -0.019   0.031  -0.395  0.00  0.00     0.092 H 
ENDROOT
BRANCH   1  12
ATOM     12  O1  <0> d          -2.392   1.059   0.019  0.00  0.00    -0.347 OA
BRANCH  12  13
ATOM     13  C2  <0> d          -3.597   1.817   0.140  0.00  0.00     0.038 C 
ATOM     14  H4  <0> d          -3.482   2.767  -0.381  0.00  0.00     0.082 H 
BRANCH  13  15
ATOM     15  C1  <0> d          -4.757   1.033  -0.478  0.00  0.00    -0.052 C 
ATOM     16  H1  <0> d          -4.871   0.083   0.043  0.00  0.00     0.030 H 
ATOM     17  H2  <0> d          -5.676   1.611  -0.386  0.00  0.00     0.030 H 
ATOM     18  H3  <0> d          -4.548   0.847  -1.532  0.00  0.00     0.030 H 
ENDBRANCH  13  15
BRANCH  13  19
ATOM     19  C3  <0> d          -3.889   2.078   1.619  0.00  0.00    -0.052 C 
ATOM     20  H5  <0> d          -4.004   1.128   2.140  0.00  0.00     0.030 H 
ATOM     21  H6  <0> d          -3.063   2.636   2.059  0.00  0.00     0.030 H 
ATOM     22  H7  <0> d          -4.809   2.656   1.711  0.00  0.00     0.030 H 
ENDBRANCH  13  19
ENDBRANCH  12  13
ENDBRANCH   1  12
TORSDOF 4
