REMARK  3 active torsions:
REMARK  status: ('A' for Active; 'I' for Inactive)
REMARK    1  A    between atoms: C1_1  and  C2_2 
REMARK    2  A    between atoms: C2_2  and  C10_14 
REMARK    3  A    between atoms: C8_10  and  O1_13 
ROOT
ATOM      1  C2  <0> d           2.694   3.441   2.036  0.00  0.00    -0.036 C 
ATOM      2  C3  <0> d           2.469   3.707   0.536  0.00  0.00    -0.044 C 
ATOM      3  H1  <0> d           2.619   4.743   0.232  0.00  0.00     0.041 H 
ATOM      4  C4  <0> d           3.683   2.790   0.308  0.00  0.00    -0.053 C 
ATOM      5  C5  <0> d           3.228   2.062   1.596  0.00  0.00    -0.023 C 
ATOM      6  H2  <0> d           4.000   1.613   2.222  0.00  0.00     0.048 H 
ATOM      7  C6  <0> d           2.059   1.143   1.241  0.00  0.00    -0.056 C 
ATOM      8  C7  <0> d           1.748   0.084   1.947  0.00  0.00    -0.116 C 
ATOM      9  C8  <0> d           1.286   1.562  -0.002  0.00  0.00     0.057 C 
ATOM     10  H3  <0> d           1.829   1.257  -0.896  0.00  0.00     0.090 H 
ATOM     11  C9  <0> d           1.156   3.092   0.034  0.00  0.00    -0.033 C 
ATOM     12  H7  <0> d           4.643   3.297   0.405  0.00  0.00     0.034 H 
ATOM     13  H8  <0> d           3.611   2.179  -0.592  0.00  0.00     0.034 H 
ATOM     14  H9  <0> d           0.913  -0.534   1.654  0.00  0.00     0.067 H 
ATOM     15  H10 <0> d           2.328  -0.171   2.822  0.00  0.00     0.067 H 
ATOM     16  H11 <0> d           0.940   3.462  -0.968  0.00  0.00     0.037 H 
ATOM     17  H12 <0> d           0.345   3.371   0.706  0.00  0.00     0.037 H 
ENDROOT
BRANCH   1  18
ATOM     18  C1  <0> d           1.401   3.371   2.852  0.00  0.00    -0.068 C 
ATOM     19  H4  <0> d           1.636   3.105   3.883  0.00  0.00     0.028 H 
ATOM     20  H5  <0> d           0.906   4.341   2.831  0.00  0.00     0.028 H 
ATOM     21  H6  <0> d           0.742   2.616   2.424  0.00  0.00     0.028 H 
ENDBRANCH   1  18
BRANCH   1  22
ATOM     22  C10 <0> d           3.756   4.340   2.671  0.00  0.00    -0.068 C 
ATOM     23  H14 <0> d           4.691   4.243   2.120  0.00  0.00     0.028 H 
ATOM     24  H15 <0> d           3.421   5.377   2.637  0.00  0.00     0.028 H 
ATOM     25  H16 <0> d           3.912   4.043   3.708  0.00  0.00     0.028 H 
ENDBRANCH   1  22
BRANCH   9  26
ATOM     26  O1  <0> d          -0.011   0.963   0.007  0.00  0.00    -0.391 OA
ATOM     27  H13 <0> d           0.002  -0.004   0.002  0.00  0.00     0.210 HD
ENDBRANCH   9  26
TORSDOF 3
