REMARK  2 active torsions:
REMARK  status: ('A' for Active; 'I' for Inactive)
REMARK    1  A    between atoms: C3_3  and  O2_9 
REMARK    2  A    between atoms: C5_6  and  O1_8 
ROOT
ATOM      1  C1  <0> d           0.483   1.903  -2.236  0.00  0.00    -0.039 C 
ATOM      2  C2  <0> d          -0.694   1.612  -1.272  0.00  0.00    -0.039 C 
ATOM      3  C3  <0> d          -0.013   1.086   0.008  0.00  0.00     0.038 C 
ATOM      4  H1  <0> d           0.002  -0.004   0.002  0.00  0.00     0.083 H 
ATOM      5  C4  <0> d           1.426   1.633  -0.003  0.00  0.00    -0.017 C 
ATOM      6  C5  <0> d           1.568   2.472  -1.289  0.00  0.00     0.038 C 
ATOM      7  H2  <0> d           1.379   3.525  -1.081  0.00  0.00     0.083 H 
ATOM      8  H3  <0> d           0.196   2.643  -2.984  0.00  0.00     0.036 H 
ATOM      9  H4  <0> d           0.829   0.987  -2.715  0.00  0.00     0.036 H 
ATOM     10  H5  <0> d          -1.353   0.853  -1.693  0.00  0.00     0.036 H 
ATOM     11  H6  <0> d          -1.249   2.526  -1.061  0.00  0.00     0.036 H 
ATOM     12  H7  <0> d           1.593   2.260   0.873  0.00  0.00     0.040 H 
ATOM     13  H8  <0> d           2.138   0.808  -0.014  0.00  0.00     0.040 H 
ENDROOT
BRANCH   3  14
ATOM     14  O2  <0> d          -0.708   1.559   1.163  0.00  0.00    -0.395 OA
ATOM     15  H10 <0> d          -1.624   1.257   1.222  0.00  0.00     0.210 HD
ENDBRANCH   3  14
BRANCH   6  16
ATOM     16  O1  <0> d           2.869   2.302  -1.856  0.00  0.00    -0.395 OA
ATOM     17  H9  <0> d           3.014   2.808  -2.667  0.00  0.00     0.210 HD
ENDBRANCH   6  16
TORSDOF 2
