REMARK  3 active torsions:
REMARK  status: ('A' for Active; 'I' for Inactive)
REMARK    1  A    between atoms: C1_1  and  C2_2 
REMARK    2  A    between atoms: C3_4  and  N3_9 
REMARK    3  A    between atoms: N3_9  and  C6_10 
ROOT
ATOM      1  C2  <0> d          -2.403   4.118   0.035  0.00  0.00     0.104 A 
ATOM      2  N1  <0> d          -1.257   3.468   0.027  0.00  0.00    -0.218 NA
ATOM      3  C3  <0> d          -1.227   2.137   0.019  0.00  0.00     0.129 A 
ATOM      4  C4  <0> d          -2.430   1.435   0.015  0.00  0.00     0.013 A 
ATOM      5  C5  <0> d          -3.615   2.159   0.030  0.00  0.00     0.183 A 
ATOM      6  N2  <0> d          -3.560   3.489   0.037  0.00  0.00    -0.323 N 
ATOM      7  O1  <0> d          -4.811   1.521   0.033  0.00  0.00    -0.172 OA
ATOM      8  H4  <0> d          -2.441   0.355   0.005  0.00  0.00     0.096 H 
ATOM      9  H9  <0> d          -4.499   4.062   0.045  0.00  0.00     0.169 HD
ENDROOT
BRANCH   3  10
ATOM     10  N3  <0> d          -0.018   1.461   0.010  0.00  0.00    -0.379 N 
ATOM     11  H5  <0> d           0.927   2.024   0.009  0.00  0.00     0.160 HD
BRANCH  10  12
ATOM     12  C6  <0> d           0.002  -0.004   0.002  0.00  0.00    -0.020 C 
ATOM     13  H6  <0> d           1.044  -0.357  -0.005  0.00  0.00     0.056 H 
ATOM     14  H7  <0> d          -0.516  -0.373  -0.896  0.00  0.00     0.056 H 
ATOM     15  H8  <0> d          -0.507  -0.383   0.900  0.00  0.00     0.056 H 
ENDBRANCH  10  12
ENDBRANCH   3  10
BRANCH   1  16
ATOM     16  C1  <0> d          -2.390   5.625   0.043  0.00  0.00    -0.021 C 
ATOM     17  H1  <0> d          -1.349   5.983   0.041  0.00  0.00     0.037 H 
ATOM     18  H2  <0> d          -2.901   5.991   0.946  0.00  0.00     0.037 H 
ATOM     19  H3  <0> d          -2.909   6.001  -0.850  0.00  0.00     0.037 H 
ENDBRANCH   1  16
TORSDOF 3
