REMARK  4 active torsions:
REMARK  status: ('A' for Active; 'I' for Inactive)
REMARK    1  A    between atoms: C1_1  and  C2_2 
REMARK    2  A    between atoms: C2_2  and  O1_3 
REMARK    3  A    between atoms: O1_3  and  C3_4 
REMARK    4  A    between atoms: C5_7  and  N3_10 
ROOT
ATOM      1  C3  <0> d           0.802  -1.823   1.306  0.00  0.00     0.182 A 
ATOM      2  C4  <0> d           1.456  -2.351   2.411  0.00  0.00     0.055 A 
ATOM      3  N1  <0> d           1.562  -3.660   2.554  0.00  0.00    -0.238 NA
ATOM      4  C5  <0> d           1.043  -4.471   1.641  0.00  0.00     0.138 A 
ATOM      5  C6  <0> d           0.388  -3.942   0.534  0.00  0.00     0.049 A 
ATOM      6  N2  <0> d           0.279  -2.632   0.396  0.00  0.00    -0.232 NA
ATOM      7  H6  <0> d           1.879  -1.690   3.154  0.00  0.00     0.121 H 
ATOM      8  H7  <0> d          -0.035  -4.601  -0.209  0.00  0.00     0.120 H 
ENDROOT
BRANCH   1   9
ATOM      9  O1  <0> d           0.693  -0.477   1.160  0.00  0.00    -0.334 OA
BRANCH   9  10
ATOM     10  C2  <0> d           0.002  -0.004   0.002  0.00  0.00     0.024 C 
ATOM     11  H4  <0> d          -1.020  -0.381   0.010  0.00  0.00     0.074 H 
ATOM     12  H5  <0> d           0.512  -0.356  -0.895  0.00  0.00     0.074 H 
BRANCH  10  13
ATOM     13  C1  <0> d          -0.019   1.526   0.010  0.00  0.00    -0.056 C 
ATOM     14  H1  <0> d           1.004   1.903   0.003  0.00  0.00     0.030 H 
ATOM     15  H2  <0> d          -0.546   1.887  -0.873  0.00  0.00     0.030 H 
ATOM     16  H3  <0> d          -0.529   1.877   0.907  0.00  0.00     0.030 H 
ENDBRANCH  10  13
ENDBRANCH   9  10
ENDBRANCH   1   9
BRANCH   4  17
ATOM     17  N3  <0> d           1.154  -5.851   1.790  0.00  0.00    -0.383 N 
ATOM     18  H8  <0> d           1.612  -6.220   2.562  0.00  0.00     0.157 HD
ATOM     19  H9  <0> d           0.775  -6.444   1.123  0.00  0.00     0.157 HD
ENDBRANCH   4  17
TORSDOF 4
