REMARK  3 active torsions:
REMARK  status: ('A' for Active; 'I' for Inactive)
REMARK    1  A    between atoms: C1_1  and  C2_2 
REMARK    2  A    between atoms: C2_2  and  C3_3 
REMARK    3  A    between atoms: C7_9  and  C8_12 
ROOT
ATOM      1  C3  <0> d           2.124   0.700  -0.530  0.00  0.00     0.373 C 
ATOM      2  N1  <0> d           1.423   1.893  -0.001  0.00  0.00     0.156 N 
ATOM      3  C4  <0> d           1.905   2.049   1.401  0.00  0.00     0.139 C 
ATOM      4  C5  <0> d           2.428   0.632   1.746  0.00  0.00     0.050 C 
ATOM      5  O1  <0> d           2.999   0.197   0.491  0.00  0.00    -0.329 OA
ATOM      6  C6  <0> d          -0.019   1.545   0.011  0.00  0.00     0.143 C 
ATOM      7  C7  <0> d           0.002  -0.004   0.002  0.00  0.00     0.066 C 
ATOM      8  H1  <0> d           0.122  -0.481   0.986  0.00  0.00     0.085 H 
ATOM      9  O2  <0> d           1.137  -0.295  -0.846  0.00  0.00    -0.324 OA
ATOM     10  H7  <0> d           2.696   2.812   1.434  0.00  0.00     0.083 H 
ATOM     11  H8  <0> d           1.068   2.360   2.043  0.00  0.00     0.083 H 
ATOM     12  H9  <0> d           3.172   0.703   2.553  0.00  0.00     0.077 H 
ATOM     13  H10 <0> d           1.588   0.002   2.075  0.00  0.00     0.077 H 
ATOM     14  H11 <0> d          -0.488   1.958   0.915  0.00  0.00     0.084 H 
ATOM     15  H12 <0> d          -0.506   1.968  -0.881  0.00  0.00     0.084 H 
ENDROOT
BRANCH   1  16
ATOM     16  C2  <0> d           2.925   1.066  -1.781  0.00  0.00     0.014 C 
ATOM     17  H5  <0> d           3.664   1.841  -1.529  0.00  0.00     0.043 H 
ATOM     18  H6  <0> d           2.243   1.448  -2.555  0.00  0.00     0.043 H 
BRANCH  16  19
ATOM     19  C1  <0> d           3.647  -0.176  -2.307  0.00  0.00    -0.070 C 
ATOM     20  H2  <0> d           4.223   0.087  -3.206  0.00  0.00     0.027 H 
ATOM     21  H3  <0> d           2.908  -0.951  -2.559  0.00  0.00     0.027 H 
ATOM     22  H4  <0> d           4.329  -0.558  -1.533  0.00  0.00     0.027 H 
ENDBRANCH  16  19
ENDBRANCH   1  16
BRANCH   7  23
ATOM     23  C8  <0> d          -1.287  -0.562  -0.604  0.00  0.00    -0.050 C 
ATOM     24  H13 <0> d          -1.249  -1.661  -0.599  0.00  0.00     0.030 H 
ATOM     25  H14 <0> d          -1.391  -0.203  -1.639  0.00  0.00     0.030 H 
ATOM     26  H15 <0> d          -2.148  -0.223  -0.010  0.00  0.00     0.030 H 
ENDBRANCH   7  23
TORSDOF 3
