REMARK  2 active torsions:
REMARK  status: ('A' for Active; 'I' for Inactive)
REMARK    1  A    between atoms: C1_1  and  C2_2 
REMARK    2  A    between atoms: C2_2  and  C3_3 
ROOT
ATOM      1  C3  <0> d           0.718  -0.497  -1.257  0.00  0.00    -0.037 C 
ATOM      2  H1  <0> d           1.709  -0.050  -1.335  0.00  0.00     0.042 H 
ATOM      3  C4  <0> d           0.815  -2.050  -1.261  0.00  0.00    -0.041 C 
ATOM      4  C5  <0> d           0.904  -2.320  -2.778  0.00  0.00     0.015 C 
ATOM      5  H2  <0> d           1.905  -2.129  -3.164  0.00  0.00     0.072 H 
ATOM      6  C6  <0> d           0.419  -3.736  -3.128  0.00  0.00    -0.038 C 
ATOM      7  C7  <0> d          -0.296  -3.474  -4.478  0.00  0.00     0.011 C 
ATOM      8  C8  <0> d          -0.712  -2.020  -4.404  0.00  0.00     0.220 C 
ATOM      9  O1  <0> d          -1.474  -1.476  -5.175  0.00  0.00    -0.273 OA
ATOM     10  N1  <0> d          -0.098  -1.402  -3.361  0.00  0.00    -0.347 N 
ATOM     11  C9  <0> d          -0.120  -0.189  -2.517  0.00  0.00     0.002 C 
ATOM     12  H8  <0> d           1.713  -2.391  -0.746  0.00  0.00     0.036 H 
ATOM     13  H9  <0> d          -0.079  -2.502  -0.832  0.00  0.00     0.036 H 
ATOM     14  H10 <0> d           1.259  -4.419  -3.254  0.00  0.00     0.036 H 
ATOM     15  H11 <0> d          -0.280  -4.109  -2.379  0.00  0.00     0.036 H 
ATOM     16  H12 <0> d           0.390  -3.632  -5.310  0.00  0.00     0.047 H 
ATOM     17  H13 <0> d          -1.171  -4.116  -4.577  0.00  0.00     0.047 H 
ATOM     18  H14 <0> d          -1.145   0.045  -2.232  0.00  0.00     0.065 H 
ATOM     19  H15 <0> d           0.318   0.650  -3.058  0.00  0.00     0.065 H 
ENDROOT
BRANCH   1  20
ATOM     20  C2  <0> d           0.002  -0.004   0.002  0.00  0.00    -0.064 C 
ATOM     21  H6  <0> d           0.529  -0.365   0.885  0.00  0.00     0.033 H 
ATOM     22  H7  <0> d          -1.020  -0.381   0.010  0.00  0.00     0.033 H 
BRANCH  20  23
ATOM     23  C1  <0> d          -0.019   1.526   0.010  0.00  0.00    -0.076 C 
ATOM     24  H3  <0> d           1.004   1.903   0.003  0.00  0.00     0.027 H 
ATOM     25  H4  <0> d          -0.546   1.887  -0.873  0.00  0.00     0.027 H 
ATOM     26  H5  <0> d          -0.529   1.877   0.907  0.00  0.00     0.027 H 
ENDBRANCH  20  23
ENDBRANCH   1  20
TORSDOF 2
