REMARK  1 active torsions:
REMARK  status: ('A' for Active; 'I' for Inactive)
REMARK    1  A    between atoms: C2_2  and  C3_3 
ROOT
ATOM      1  C1  <0> d           0.018  -1.178  -0.004  0.00  0.00    -0.151 C 
ATOM      2  C2  <0> d           0.002  -0.004   0.002  0.00  0.00    -0.085 C 
ATOM      3  H2  <0> d           0.032  -2.228  -0.010  0.00  0.00     0.166 H 
ENDROOT
BRANCH   2   4
ATOM      4  C3  <0> d          -0.018   1.468   0.010  0.00  0.00     0.096 C 
ATOM      5  H1  <0> d           1.005   1.845   0.002  0.00  0.00     0.103 H 
ATOM      6  O1  <0> d          -0.710   1.941  -1.147  0.00  0.00    -0.374 OA
ATOM      7  C7  <0> d          -0.765   3.365  -1.252  0.00  0.00     0.021 C 
ATOM      8  C6  <0> d          -1.512   3.936  -0.043  0.00  0.00    -0.045 C 
ATOM      9  H9  <0> d          -1.289   3.643  -2.167  0.00  0.00     0.074 H 
ATOM     10  H10 <0> d           0.247   3.768  -1.276  0.00  0.00     0.074 H 
ATOM     11  C5  <0> d          -0.805   3.492   1.241  0.00  0.00    -0.060 C 
ATOM     12  H7  <0> d          -2.538   3.565  -0.041  0.00  0.00     0.036 H 
ATOM     13  H8  <0> d          -1.517   5.024  -0.098  0.00  0.00     0.036 H 
ATOM     14  C4  <0> d          -0.735   1.962   1.269  0.00  0.00    -0.031 C 
ATOM     15  H5  <0> d          -1.363   3.847   2.107  0.00  0.00     0.033 H 
ATOM     16  H6  <0> d           0.204   3.903   1.262  0.00  0.00     0.033 H 
ATOM     17  H3  <0> d          -1.744   1.552   1.298  0.00  0.00     0.038 H 
ATOM     18  H4  <0> d          -0.184   1.639   2.153  0.00  0.00     0.038 H 
ENDBRANCH   2   4
TORSDOF 1
