REMARK  2 active torsions:
REMARK  status: ('A' for Active; 'I' for Inactive)
REMARK    1  A    between atoms: N1_4  and  C6_8 
REMARK    2  A    between atoms: C6_8  and  C7_9 
ROOT
ATOM      1  C1  <0> d          -0.054   4.243   0.365  0.00  0.00    -0.056 C 
ATOM      2  C2  <0> d           1.075   3.608  -0.457  0.00  0.00    -0.050 C 
ATOM      3  C3  <0> d           1.260   2.161   0.002  0.00  0.00    -0.002 C 
ATOM      4  N1  <0> d          -0.018   1.461   0.010  0.00  0.00    -0.342 N 
ATOM      5  C4  <0> d          -1.204   2.070   0.019  0.00  0.00     0.220 C 
ATOM      6  O1  <0> d          -2.202   1.382   0.062  0.00  0.00    -0.273 OA
ATOM      7  C5  <0> d          -1.371   3.562  -0.014  0.00  0.00     0.009 C 
ATOM      8  H1  <0> d          -0.120   5.319   0.145  0.00  0.00     0.033 H 
ATOM      9  H2  <0> d           0.137   4.100   1.439  0.00  0.00     0.033 H 
ATOM     10  H3  <0> d           0.808   3.631  -1.524  0.00  0.00     0.035 H 
ATOM     11  H4  <0> d           2.005   4.173  -0.299  0.00  0.00     0.035 H 
ATOM     12  H5  <0> d           1.947   1.644  -0.685  0.00  0.00     0.064 H 
ATOM     13  H6  <0> d           1.681   2.150   1.018  0.00  0.00     0.064 H 
ATOM     14  H7  <0> d          -2.154   3.855   0.700  0.00  0.00     0.047 H 
ATOM     15  H8  <0> d          -1.665   3.871  -1.028  0.00  0.00     0.047 H 
ENDROOT
BRANCH   4  16
ATOM     16  C6  <0> d           0.002  -0.004   0.002  0.00  0.00     0.077 C 
ATOM     17  H9  <0> d          -0.896  -0.380  -0.510  0.00  0.00     0.081 H 
ATOM     18  H10 <0> d           0.900  -0.356  -0.527  0.00  0.00     0.081 H 
BRANCH  16  19
ATOM     19  C7  <0> d           0.022  -0.514   1.420  0.00  0.00     0.191 C 
ATOM     20  O2  <0> d           0.021   0.266   2.343  0.00  0.00    -0.647 OA
ATOM     21  O3  <0> d           0.043  -1.835   1.658  0.00  0.00    -0.647 OA
ENDBRANCH  16  19
ENDBRANCH   4  16
TORSDOF 2
