REMARK  0 active torsions:
REMARK  status: ('A' for Active; 'I' for Inactive)
ROOT
ATOM      1  C1  <0> d          -0.019   1.525   0.010  0.00  0.00    -0.065 C 
ATOM      2  C2  <0> d           1.413   2.063  -0.000  0.00  0.00    -0.064 C 
ATOM      3  C3  <0> d           2.134   1.622   1.277  0.00  0.00    -0.058 C 
ATOM      4  C4  <0> d           2.081   0.094   1.373  0.00  0.00    -0.040 A 
ATOM      5  C5  <0> d           0.677  -0.512   1.280  0.00  0.00    -0.058 C 
ATOM      6  C6  <0> d           0.002  -0.004   0.002  0.00  0.00    -0.064 C 
ATOM      7  C7  <0> d           3.238  -0.696   0.763  0.00  0.00    -0.057 A 
ATOM      8  C8  <0> d           3.095  -0.597   2.283  0.00  0.00    -0.057 A 
ATOM      9  H1  <0> d          -0.531   1.876   0.907  0.00  0.00     0.033 H 
ATOM     10  H2  <0> d          -0.548   1.885  -0.872  0.00  0.00     0.033 H 
ATOM     11  H3  <0> d           1.942   1.672  -0.870  0.00  0.00     0.033 H 
ATOM     12  H4  <0> d           1.391   3.152  -0.048  0.00  0.00     0.033 H 
ATOM     13  H5  <0> d           3.172   1.950   1.242  0.00  0.00     0.034 H 
ATOM     14  H6  <0> d           1.640   2.060   2.145  0.00  0.00     0.034 H 
ATOM     15  H7  <0> d           0.751  -1.599   1.246  0.00  0.00     0.034 H 
ATOM     16  H8  <0> d           0.091  -0.211   2.147  0.00  0.00     0.034 H 
ATOM     17  H9  <0> d          -1.020  -0.381  -0.044  0.00  0.00     0.033 H 
ATOM     18  H10 <0> d           0.558  -0.355  -0.867  0.00  0.00     0.033 H 
ATOM     19  H11 <0> d           3.003  -1.653   0.297  0.00  0.00     0.034 H 
ATOM     20  H12 <0> d           4.043  -0.130   0.295  0.00  0.00     0.034 H 
ATOM     21  H13 <0> d           3.806   0.035   2.816  0.00  0.00     0.034 H 
ATOM     22  H14 <0> d           2.767  -1.489   2.817  0.00  0.00     0.034 H 
ENDROOT
TORSDOF 0
