REMARK  8 active torsions:
REMARK  status: ('A' for Active; 'I' for Inactive)
REMARK    1  A    between atoms: C1_1  and  C2_2 
REMARK    2  A    between atoms: C2_2  and  C3_3 
REMARK    3  A    between atoms: C2_2  and  C4_4 
REMARK    4  A    between atoms: C4_4  and  C5_5 
REMARK    5  A    between atoms: C5_5  and  C6_6 
REMARK    6  A    between atoms: C6_6  and  C7_7 
REMARK    7  A    between atoms: C6_6  and  C8_8 
REMARK    8  A    between atoms: C6_6  and  O1_9 
ROOT
ATOM      1  C5  <0> d          -0.064   0.971   2.503  0.00  0.00    -0.037 C 
ATOM      2  H10 <0> d          -0.126  -0.116   2.452  0.00  0.00     0.037 H 
ATOM      3  H11 <0> d           0.983   1.274   2.539  0.00  0.00     0.037 H 
ENDROOT
BRANCH   1   4
ATOM      4  C4  <0> d          -0.729   1.579   1.267  0.00  0.00    -0.060 C 
ATOM      5  H8  <0> d          -0.666   2.666   1.318  0.00  0.00     0.033 H 
ATOM      6  H9  <0> d          -1.776   1.277   1.232  0.00  0.00     0.033 H 
BRANCH   4   7
ATOM      7  C2  <0> d          -0.013   1.086   0.008  0.00  0.00    -0.061 C 
ATOM      8  H4  <0> d           0.002  -0.004   0.002  0.00  0.00     0.038 H 
BRANCH   7   9
ATOM      9  C1  <0> d           1.423   1.615  -0.003  0.00  0.00    -0.073 C 
ATOM     10  H1  <0> d           1.950   1.254   0.880  0.00  0.00     0.028 H 
ATOM     11  H2  <0> d           1.933   1.264  -0.900  0.00  0.00     0.028 H 
ATOM     12  H3  <0> d           1.408   2.705   0.003  0.00  0.00     0.028 H 
ENDBRANCH   7   9
BRANCH   7  13
ATOM     13  C3  <0> d          -0.753   1.593  -1.232  0.00  0.00    -0.073 C 
ATOM     14  H5  <0> d          -0.242   1.241  -2.128  0.00  0.00     0.028 H 
ATOM     15  H6  <0> d          -1.775   1.215  -1.224  0.00  0.00     0.028 H 
ATOM     16  H7  <0> d          -0.767   2.683  -1.226  0.00  0.00     0.028 H 
ENDBRANCH   7  13
ENDBRANCH   4   7
ENDBRANCH   1   4
BRANCH   1  17
ATOM     17  C6  <0> d          -0.780   1.465   3.762  0.00  0.00     0.051 C 
BRANCH  17  18
ATOM     18  C7  <0> d          -0.040   0.958   5.002  0.00  0.00    -0.048 C 
ATOM     19  H12 <0> d           0.983   1.335   4.994  0.00  0.00     0.031 H 
ATOM     20  H13 <0> d          -0.550   1.309   5.899  0.00  0.00     0.031 H 
ATOM     21  H14 <0> d          -0.025  -0.132   4.996  0.00  0.00     0.031 H 
ENDBRANCH  17  18
BRANCH  17  22
ATOM     22  C8  <0> d          -0.801   2.995   3.771  0.00  0.00    -0.048 C 
ATOM     23  H15 <0> d          -1.328   3.356   2.888  0.00  0.00     0.031 H 
ATOM     24  H16 <0> d          -1.311   3.346   4.667  0.00  0.00     0.031 H 
ATOM     25  H17 <0> d           0.222   3.372   3.763  0.00  0.00     0.031 H 
ENDBRANCH  17  22
BRANCH  17  26
ATOM     26  O1  <0> d          -2.120   0.970   3.772  0.00  0.00    -0.391 OA
ATOM     27  H18 <0> d          -2.635   1.244   4.544  0.00  0.00     0.210 HD
ENDBRANCH  17  26
ENDBRANCH   1  17
TORSDOF 8
