REMARK  2 active torsions:
REMARK  status: ('A' for Active; 'I' for Inactive)
REMARK    1  A    between atoms: C3_4  and  C5_8 
REMARK    2  A    between atoms: C4_6  and  N3_7 
ROOT
ATOM      1  C1  <0> d          -2.426   0.939   0.019  0.00  0.00    -0.022 A 
ATOM      2  C2  <0> d          -3.605   1.659   0.029  0.00  0.00     0.008 A 
ATOM      3  N1  <0> d          -3.554   2.983   0.036  0.00  0.00    -0.245 NA
ATOM      4  C3  <0> d          -2.399   3.618   0.034  0.00  0.00     0.132 A 
ATOM      5  N2  <0> d          -1.250   2.972   0.030  0.00  0.00    -0.216 NA
ATOM      6  C4  <0> d          -1.220   1.642   0.017  0.00  0.00     0.124 A 
ATOM      7  H1  <0> d          -2.437  -0.141   0.013  0.00  0.00     0.091 H 
ATOM      8  H2  <0> d          -4.557   1.149   0.031  0.00  0.00     0.115 H 
ENDROOT
BRANCH   4   9
ATOM      9  C5  <0> d          -2.391   5.125   0.043  0.00  0.00     0.006 A 
ATOM     10  C7  <0> d          -3.072   5.842  -1.125  0.00  0.00    -0.054 A 
ATOM     11  C6  <0> d          -3.728   5.837   0.257  0.00  0.00    -0.054 A 
ATOM     12  H8  <0> d          -2.629   6.776  -1.469  0.00  0.00     0.034 H 
ATOM     13  H9  <0> d          -3.525   5.223  -1.900  0.00  0.00     0.034 H 
ATOM     14  H6  <0> d          -4.613   5.216   0.392  0.00  0.00     0.034 H 
ATOM     15  H7  <0> d          -3.717   6.769   0.822  0.00  0.00     0.034 H 
ATOM     16  H5  <0> d          -1.500   5.588   0.467  0.00  0.00     0.052 H 
ENDBRANCH   4   9
BRANCH   6  17
ATOM     17  N3  <0> d          -0.011   0.966   0.007  0.00  0.00    -0.384 N 
ATOM     18  H3  <0> d           0.002  -0.004   0.002  0.00  0.00     0.157 HD
ATOM     19  H4  <0> d           0.822   1.462   0.002  0.00  0.00     0.157 HD
ENDBRANCH   6  17
TORSDOF 2
