REMARK  3 active torsions:
REMARK  status: ('A' for Active; 'I' for Inactive)
REMARK    1  A    between atoms: C1_1  and  C2_2 
REMARK    2  A    between atoms: N2_5  and  C5_7 
REMARK    3  A    between atoms: C5_7  and  C6_8 
ROOT
ATOM      1  C6  <0> d           3.187   2.103  -1.198  0.00  0.00     0.031 C 
ATOM      2  C7  <0> d           4.594   1.672  -1.212  0.00  0.00     0.060 C 
ATOM      3  N3  <0> d           5.680   1.338  -1.224  0.00  0.00    -0.197 NA
ATOM      4  H8  <0> d           2.704   1.799  -2.126  0.00  0.00     0.057 H 
ATOM      5  H9  <0> d           3.140   3.188  -1.103  0.00  0.00     0.057 H 
ENDROOT
BRANCH   1   6
ATOM      6  C5  <0> d           2.467   1.456  -0.013  0.00  0.00     0.028 C 
ATOM      7  H6  <0> d           2.950   1.761   0.916  0.00  0.00     0.068 H 
ATOM      8  H7  <0> d           2.513   0.372  -0.107  0.00  0.00     0.068 H 
BRANCH   6   9
ATOM      9  N2  <0> d           1.067   1.886   0.002  0.00  0.00    -0.280 N 
ATOM     10  N1  <0> d           0.611   3.211   0.013  0.00  0.00    -0.185 NA
ATOM     11  C3  <0> d          -0.697   3.193   0.025  0.00  0.00     0.029 A 
ATOM     12  C2  <0> d          -1.116   1.859   0.017  0.00  0.00    -0.026 A 
ATOM     13  H4  <0> d          -1.342   4.059   0.035  0.00  0.00     0.118 H 
ATOM     14  C4  <0> d          -0.013   1.076   0.008  0.00  0.00     0.005 A 
ATOM     15  H5  <0> d           0.002  -0.004   0.002  0.00  0.00     0.115 H 
BRANCH  12  16
ATOM     16  C1  <0> d          -2.544   1.378   0.021  0.00  0.00    -0.049 C 
ATOM     17  H1  <0> d          -2.884   1.257   1.049  0.00  0.00     0.033 H 
ATOM     18  H2  <0> d          -3.175   2.108  -0.487  0.00  0.00     0.033 H 
ATOM     19  H3  <0> d          -2.607   0.421  -0.497  0.00  0.00     0.033 H 
ENDBRANCH  12  16
ENDBRANCH   6   9
ENDBRANCH   1   6
TORSDOF 3
