REMARK  3 active torsions:
REMARK  status: ('A' for Active; 'I' for Inactive)
REMARK    1  A    between atoms: C1_1  and  C2_2 
REMARK    2  A    between atoms: C2_2  and  O2_13 
REMARK    3  A    between atoms: C8_10  and  O1_12 
ROOT
ATOM      1  C2  <0> d           2.030   0.016   1.404  0.00  0.00     0.058 C 
ATOM      2  C3  <0> d           2.010   1.561   1.412  0.00  0.00    -0.031 C 
ATOM      3  C4  <0> d           1.484   1.956  -0.002  0.00  0.00    -0.026 C 
ATOM      4  H1  <0> d           1.694   2.977  -0.320  0.00  0.00     0.044 H 
ATOM      5  C5  <0> d           2.096   0.802  -0.871  0.00  0.00    -0.053 C 
ATOM      6  C6  <0> d           1.516  -0.378  -0.014  0.00  0.00    -0.022 C 
ATOM      7  H2  <0> d           1.753  -1.389  -0.344  0.00  0.00     0.044 H 
ATOM      8  C7  <0> d           0.002  -0.004   0.002  0.00  0.00    -0.035 C 
ATOM      9  C8  <0> d          -0.019   1.542   0.011  0.00  0.00     0.039 C 
ATOM     10  H3  <0> d          -0.507   1.910   0.912  0.00  0.00     0.083 H 
ATOM     11  H7  <0> d           1.333   1.928   2.185  0.00  0.00     0.038 H 
ATOM     12  H8  <0> d           3.014   1.954   1.570  0.00  0.00     0.038 H 
ATOM     13  H9  <0> d           3.186   0.817  -0.861  0.00  0.00     0.034 H 
ATOM     14  H10 <0> d           1.702   0.802  -1.887  0.00  0.00     0.034 H 
ATOM     15  H11 <0> d          -0.476  -0.396   0.900  0.00  0.00     0.037 H 
ATOM     16  H12 <0> d          -0.495  -0.386  -0.890  0.00  0.00     0.037 H 
ENDROOT
BRANCH   1  17
ATOM     17  C1  <0> d           3.455  -0.499   1.616  0.00  0.00    -0.048 C 
ATOM     18  H4  <0> d           4.115  -0.064   0.866  0.00  0.00     0.031 H 
ATOM     19  H5  <0> d           3.800  -0.216   2.611  0.00  0.00     0.031 H 
ATOM     20  H6  <0> d           3.467  -1.585   1.523  0.00  0.00     0.031 H 
ENDBRANCH   1  17
BRANCH   1  21
ATOM     21  O2  <0> d           1.158  -0.500   2.411  0.00  0.00    -0.390 OA
ATOM     22  H14 <0> d           1.429  -0.285   3.314  0.00  0.00     0.210 HD
ENDBRANCH   1  21
BRANCH   9  23
ATOM     23  O1  <0> d          -0.682   2.037  -1.154  0.00  0.00    -0.395 OA
ATOM     24  H13 <0> d          -1.607   1.766  -1.225  0.00  0.00     0.210 HD
ENDBRANCH   9  23
TORSDOF 3
