REMARK  4 active torsions:
REMARK  status: ('A' for Active; 'I' for Inactive)
REMARK    1  A    between atoms: C1_1  and  C2_2 
REMARK    2  A    between atoms: C2_2  and  C3_3 
REMARK    3  A    between atoms: C3_3  and  C4_5 
REMARK    4  A    between atoms: C7_8  and  O2_11 
ROOT
ATOM      1  C4  <0> d           0.887  -1.946   1.446  0.00  0.00     0.010 A 
ATOM      2  C5  <0> d           0.364  -2.861   0.523  0.00  0.00    -0.067 A 
ATOM      3  C6  <0> d           0.513  -4.207   0.736  0.00  0.00    -0.050 A 
ATOM      4  C7  <0> d           1.181  -4.665   1.866  0.00  0.00     0.065 A 
ATOM      5  C8  <0> d           1.702  -3.761   2.786  0.00  0.00    -0.050 A 
ATOM      6  C9  <0> d           1.564  -2.413   2.580  0.00  0.00    -0.067 A 
ATOM      7  H6  <0> d          -0.155  -2.506  -0.355  0.00  0.00     0.085 H 
ATOM      8  H7  <0> d           0.110  -4.913   0.025  0.00  0.00     0.087 H 
ATOM      9  H8  <0> d           2.219  -4.122   3.663  0.00  0.00     0.087 H 
ATOM     10  H9  <0> d           1.972  -1.712   3.292  0.00  0.00     0.085 H 
ENDROOT
BRANCH   1  11
ATOM     11  C3  <0> d           0.731  -0.503   1.223  0.00  0.00     0.159 C 
ATOM     12  O1  <0> d           1.189   0.287   2.021  0.00  0.00    -0.292 OA
BRANCH  11  13
ATOM     13  C2  <0> d           0.002  -0.004   0.002  0.00  0.00    -0.008 C 
ATOM     14  H4  <0> d          -1.020  -0.381   0.010  0.00  0.00     0.044 H 
ATOM     15  H5  <0> d           0.512  -0.356  -0.895  0.00  0.00     0.044 H 
BRANCH  13  16
ATOM     16  C1  <0> d          -0.019   1.526   0.010  0.00  0.00    -0.070 C 
ATOM     17  H1  <0> d           1.004   1.903   0.003  0.00  0.00     0.028 H 
ATOM     18  H2  <0> d          -0.546   1.887  -0.873  0.00  0.00     0.028 H 
ATOM     19  H3  <0> d          -0.529   1.877   0.907  0.00  0.00     0.028 H 
ENDBRANCH  13  16
ENDBRANCH  11  13
ENDBRANCH   1  11
BRANCH   4  20
ATOM     20  O2  <0> d           1.325  -5.998   2.072  0.00  0.00    -0.361 OA
ATOM     21  H10 <0> d           2.130  -6.371   1.687  0.00  0.00     0.217 HD
ENDBRANCH   4  20
TORSDOF 4
