REMARK  1 active torsions:
REMARK  status: ('A' for Active; 'I' for Inactive)
REMARK    1  A    between atoms: C1_1  and  C2_2 
ROOT
ATOM      1  C2  <0> d           0.002  -0.004   0.002  0.00  0.00    -0.034 A 
ATOM      2  C3  <0> d           0.006  -0.690  -1.193  0.00  0.00    -0.075 A 
ATOM      3  C4  <0> d           0.024  -2.077  -1.214  0.00  0.00    -0.081 A 
ATOM      4  C5  <0> d           0.039  -2.790  -0.047  0.00  0.00    -0.067 A 
ATOM      5  C6  <0> d           0.036  -2.115   1.173  0.00  0.00     0.041 A 
ATOM      6  C7  <0> d           0.023  -0.709   1.201  0.00  0.00     0.052 A 
ATOM      7  N1  <0> d           0.025  -0.055   2.413  0.00  0.00    -0.365 N 
ATOM      8  H1  <0> d           0.012   0.915   2.426  0.00  0.00     0.165 HD
ATOM      9  C8  <0> d           0.045  -0.732   3.586  0.00  0.00    -0.019 A 
ATOM     10  C9  <0> d           0.064  -2.080   3.646  0.00  0.00    -0.019 A 
ATOM     11  C10 <0> d           0.051  -2.843   2.454  0.00  0.00     0.185 A 
ATOM     12  O1  <0> d           0.068  -4.062   2.487  0.00  0.00    -0.287 OA
ATOM     13  H5  <0> d          -0.006  -0.141  -2.124  0.00  0.00     0.084 H 
ATOM     14  H6  <0> d           0.026  -2.599  -2.160  0.00  0.00     0.083 H 
ATOM     15  H7  <0> d           0.053  -3.869  -0.071  0.00  0.00     0.085 H 
ATOM     16  H8  <0> d           0.045  -0.172   4.509  0.00  0.00     0.111 H 
ATOM     17  H9  <0> d           0.080  -2.577   4.604  0.00  0.00     0.091 H 
ENDROOT
BRANCH   1  18
ATOM     18  C1  <0> d          -0.018   1.503   0.010  0.00  0.00    -0.049 C 
ATOM     19  H2  <0> d           1.004   1.880   0.003  0.00  0.00     0.033 H 
ATOM     20  H3  <0> d          -0.545   1.864  -0.873  0.00  0.00     0.033 H 
ATOM     21  H4  <0> d          -0.529   1.854   0.907  0.00  0.00     0.033 H 
ENDBRANCH   1  18
TORSDOF 1
