REMARK  3 active torsions:
REMARK  status: ('A' for Active; 'I' for Inactive)
REMARK    1  A    between atoms: C1_1  and  C2_2 
REMARK    2  A    between atoms: C4_4  and  C8_9 
REMARK    3  A    between atoms: C5_6  and  C7_8 
ROOT
ATOM      1  C2  <0> d           2.389   0.016  -0.021  0.00  0.00    -0.058 A 
ATOM      2  C3  <0> d           1.199  -0.695  -0.014  0.00  0.00    -0.054 A 
ATOM      3  C4  <0> d           0.002  -0.004   0.002  0.00  0.00     0.031 A 
ATOM      4  N1  <0> d          -0.016   1.315   0.009  0.00  0.00    -0.259 NA
ATOM      5  C5  <0> d           1.096   2.023   0.003  0.00  0.00     0.031 A 
ATOM      6  C6  <0> d           2.330   1.401  -0.013  0.00  0.00    -0.054 A 
ATOM      7  H4  <0> d           1.207  -1.775  -0.019  0.00  0.00     0.087 H 
ATOM      8  H5  <0> d           3.238   1.987  -0.018  0.00  0.00     0.087 H 
ENDROOT
BRANCH   1   9
ATOM      9  C1  <0> d           3.715  -0.700  -0.039  0.00  0.00    -0.051 C 
ATOM     10  H1  <0> d           4.025  -0.866  -1.070  0.00  0.00     0.033 H 
ATOM     11  H2  <0> d           4.463  -0.092   0.471  0.00  0.00     0.033 H 
ATOM     12  H3  <0> d           3.618  -1.658   0.470  0.00  0.00     0.033 H 
ENDBRANCH   1   9
BRANCH   5  13
ATOM     13  C7  <0> d           1.020   3.528   0.011  0.00  0.00    -0.035 C 
ATOM     14  H6  <0> d           1.012   3.886   1.040  0.00  0.00     0.035 H 
ATOM     15  H7  <0> d           1.886   3.938  -0.509  0.00  0.00     0.035 H 
ATOM     16  H8  <0> d           0.108   3.849  -0.493  0.00  0.00     0.035 H 
ENDBRANCH   5  13
BRANCH   3  17
ATOM     17  C8  <0> d          -1.298  -0.767   0.010  0.00  0.00    -0.035 C 
ATOM     18  H9  <0> d          -1.621  -0.945  -1.015  0.00  0.00     0.035 H 
ATOM     19  H10 <0> d          -1.156  -1.721   0.518  0.00  0.00     0.035 H 
ATOM     20  H11 <0> d          -2.057  -0.186   0.535  0.00  0.00     0.035 H 
ENDBRANCH   3  17
TORSDOF 3
