REMARK  3 active torsions:
REMARK  status: ('A' for Active; 'I' for Inactive)
REMARK    1  A    between atoms: C1_1  and  C2_2 
REMARK    2  A    between atoms: C2_2  and  C3_4 
REMARK    3  A    between atoms: C2_2  and  O1_11 
ROOT
ATOM      1  C3  <0> d           0.036   3.797   0.022  0.00  0.00     0.100 A 
ATOM      2  C4  <0> d          -1.188   3.149   0.031  0.00  0.00     0.143 A 
ATOM      3  C5  <0> d          -1.218   1.761   0.017  0.00  0.00    -0.042 A 
ATOM      4  C6  <0> d          -0.013   1.076   0.008  0.00  0.00    -0.063 A 
ATOM      5  C7  <0> d           1.170   1.791   0.001  0.00  0.00     0.003 A 
ATOM      6  N1  <0> d           1.161   3.110   0.007  0.00  0.00    -0.260 NA
ATOM      7  F1  <0> d          -2.338   3.858   0.046  0.00  0.00    -0.204 F 
ATOM      8  H5  <0> d          -2.157   1.228   0.018  0.00  0.00     0.088 H 
ATOM      9  H6  <0> d           0.002  -0.004   0.002  0.00  0.00     0.085 H 
ATOM     10  H7  <0> d           2.112   1.264  -0.011  0.00  0.00     0.114 H 
ENDROOT
BRANCH   1  11
ATOM     11  C2  <0> d           0.082   5.303   0.029  0.00  0.00     0.077 C 
ATOM     12  H1  <0> d          -0.901   5.698  -0.226  0.00  0.00     0.092 H 
BRANCH  11  13
ATOM     13  C1  <0> d           0.484   5.794   1.421  0.00  0.00    -0.047 C 
ATOM     14  H2  <0> d           1.468   5.399   1.675  0.00  0.00     0.031 H 
ATOM     15  H3  <0> d           0.518   6.884   1.426  0.00  0.00     0.031 H 
ATOM     16  H4  <0> d          -0.246   5.450   2.153  0.00  0.00     0.031 H 
ENDBRANCH  11  13
BRANCH  11  17
ATOM     17  O1  <0> d           1.040   5.755  -0.931  0.00  0.00    -0.390 OA
ATOM     18  H8  <0> d           1.123   6.717  -0.981  0.00  0.00     0.210 HD
ENDBRANCH  11  17
ENDBRANCH   1  11
TORSDOF 3
