REMARK  4 active torsions:
REMARK  status: ('A' for Active; 'I' for Inactive)
REMARK    1  A    between atoms: C1_1  and  C2_2 
REMARK    2  A    between atoms: C4_6  and  C8_12 
REMARK    3  A    between atoms: C5_7  and  N2_8 
REMARK       I    between atoms: N2_8  and  C6_9 
REMARK    4  A    between atoms: C6_9  and  C7_11 
ROOT
ATOM      1  C2  <0> d          -0.662  -0.428   0.121  0.00  0.00    -0.018 A 
ATOM      2  C3  <0> d          -0.338  -1.081  -1.013  0.00  0.00    -0.015 A 
ATOM      3  N1  <0> d           0.715  -1.906  -0.747  0.00  0.00    -0.367 N 
ATOM      4  H1  <0> d           1.149  -2.492  -1.386  0.00  0.00     0.165 HD
ATOM      5  C4  <0> d           1.058  -1.771   0.571  0.00  0.00     0.032 A 
ATOM      6  C5  <0> d           0.227  -0.860   1.130  0.00  0.00     0.064 A 
ATOM      7  H5  <0> d          -0.828  -0.971  -1.968  0.00  0.00     0.112 H 
ENDROOT
BRANCH   6   8
ATOM      8  N2  <0> d           0.245  -0.427   2.468  0.00  0.00    -0.325 N 
ATOM      9  C6  <0> d           0.459   0.873   2.753  0.00  0.00     0.218 C 
ATOM     10  O1  <0> d           0.636   1.669   1.855  0.00  0.00    -0.274 OA
ATOM     11  H6  <0> d           0.103  -1.064   3.186  0.00  0.00     0.169 HD
BRANCH   9  12
ATOM     12  C7  <0> d           0.478   1.337   4.186  0.00  0.00    -0.003 C 
ATOM     13  H7  <0> d           0.301   0.487   4.846  0.00  0.00     0.040 H 
ATOM     14  H8  <0> d           1.448   1.778   4.413  0.00  0.00     0.040 H 
ATOM     15  H9  <0> d          -0.304   2.082   4.337  0.00  0.00     0.040 H 
ENDBRANCH   9  12
ENDBRANCH   6   8
BRANCH   1  16
ATOM     16  C1  <0> d          -1.768   0.584   0.282  0.00  0.00    -0.048 C 
ATOM     17  H2  <0> d          -1.369   1.586   0.123  0.00  0.00     0.033 H 
ATOM     18  H3  <0> d          -2.551   0.385  -0.449  0.00  0.00     0.033 H 
ATOM     19  H4  <0> d          -2.183   0.512   1.287  0.00  0.00     0.033 H 
ENDBRANCH   1  16
BRANCH   5  20
ATOM     20  C8  <0> d           2.170  -2.504   1.275  0.00  0.00    -0.035 C 
ATOM     21  H10 <0> d           3.068  -1.887   1.277  0.00  0.00     0.035 H 
ATOM     22  H11 <0> d           1.872  -2.716   2.302  0.00  0.00     0.035 H 
ATOM     23  H12 <0> d           2.373  -3.441   0.756  0.00  0.00     0.035 H 
ENDBRANCH   5  20
TORSDOF 4
