REMARK  0 active torsions:
REMARK  status: ('A' for Active; 'I' for Inactive)
ROOT
ATOM      1  C1  <0> d          -0.017   1.393   0.010  0.00  0.00    -0.066 A 
ATOM      2  C2  <0> d           1.194   2.059   0.002  0.00  0.00    -0.043 A 
ATOM      3  C3  <0> d           2.373   1.329  -0.013  0.00  0.00     0.128 A 
ATOM      4  N1  <0> d           2.369   0.012  -0.021  0.00  0.00    -0.218 NA
ATOM      5  C4  <0> d           1.237  -0.680  -0.013  0.00  0.00     0.139 A 
ATOM      6  C5  <0> d           0.002  -0.004   0.002  0.00  0.00     0.011 A 
ATOM      7  C6  <0> d          -1.032  -1.041   0.006  0.00  0.00    -0.054 A 
ATOM      8  C7  <0> d          -0.398  -2.223  -0.006  0.00  0.00    -0.020 A 
ATOM      9  N2  <0> d           0.958  -2.026  -0.018  0.00  0.00    -0.350 N 
ATOM     10  H1  <0> d           1.623  -2.732  -0.028  0.00  0.00     0.166 HD
ATOM     11 Cl1  <0> d           3.892   2.171  -0.024  0.00  0.00    -0.062 Cl
ATOM     12  H2  <0> d          -0.950   1.936   0.017  0.00  0.00     0.085 H 
ATOM     13  H3  <0> d           1.221   3.139   0.007  0.00  0.00     0.088 H 
ATOM     14  H4  <0> d          -2.100  -0.884   0.017  0.00  0.00     0.087 H 
ATOM     15  H5  <0> d          -0.884  -3.188  -0.007  0.00  0.00     0.111 H 
ENDROOT
TORSDOF 0
