REMARK  8 active torsions:
REMARK  status: ('A' for Active; 'I' for Inactive)
REMARK    1  A    between atoms: C1_1  and  C2_2 
REMARK    2  A    between atoms: C2_2  and  C3_3 
REMARK    3  A    between atoms: C3_3  and  C4_5 
REMARK    4  A    between atoms: C3_3  and  C5_6 
REMARK    5  A    between atoms: C5_6  and  C6_8 
REMARK    6  A    between atoms: C6_8  and  C7_10 
REMARK    7  A    between atoms: C6_8  and  C8_11 
REMARK    8  A    between atoms: C8_11  and  C9_12 
ROOT
ATOM      1  C5  <0> d          -0.621   1.658   3.743  0.00  0.00     0.134 C 
ATOM      2  O1  <0> d          -1.798   1.927   3.750  0.00  0.00    -0.297 OA
ENDROOT
BRANCH   1   3
ATOM      3  C3  <0> d           0.011   1.072   2.506  0.00  0.00     0.000 C 
ATOM      4  H1  <0> d           0.971   1.350   2.459  0.00  0.00     0.051 H 
BRANCH   3   5
ATOM      5  C2  <0> d          -0.729   1.579   1.267  0.00  0.00    -0.059 C 
ATOM      6  H6  <0> d          -0.744   2.669   1.273  0.00  0.00     0.033 H 
ATOM      7  H7  <0> d          -1.751   1.202   1.275  0.00  0.00     0.033 H 
BRANCH   5   8
ATOM      8  C1  <0> d          -0.013   1.086   0.008  0.00  0.00    -0.076 C 
ATOM      9  H3  <0> d           0.002  -0.004   0.002  0.00  0.00     0.027 H 
ATOM     10  H4  <0> d           1.010   1.463   0.000  0.00  0.00     0.027 H 
ATOM     11  H5  <0> d          -0.540   1.447  -0.875  0.00  0.00     0.027 H 
ENDBRANCH   5   8
ENDBRANCH   3   5
BRANCH   3  12
ATOM     12  C4  <0> d          -0.075  -0.454   2.563  0.00  0.00    -0.066 C 
ATOM     13  H8  <0> d           0.381  -0.878   1.669  0.00  0.00     0.028 H 
ATOM     14  H9  <0> d           0.452  -0.815   3.446  0.00  0.00     0.028 H 
ATOM     15  H10 <0> d          -1.121  -0.757   2.615  0.00  0.00     0.028 H 
ENDBRANCH   3  12
ENDBRANCH   1   3
BRANCH   1  16
ATOM     16  C6  <0> d           0.217   1.908   4.971  0.00  0.00     0.000 C 
ATOM     17  H2  <0> d           0.961   1.241   5.008  0.00  0.00     0.051 H 
BRANCH  16  18
ATOM     18  C7  <0> d           0.801   3.321   4.910  0.00  0.00    -0.066 C 
ATOM     19  H11 <0> d           1.422   3.420   4.020  0.00  0.00     0.028 H 
ATOM     20  H12 <0> d          -0.010   4.048   4.870  0.00  0.00     0.028 H 
ATOM     21  H13 <0> d           1.407   3.502   5.798  0.00  0.00     0.028 H 
ENDBRANCH  16  18
BRANCH  16  22
ATOM     22  C8  <0> d          -0.655   1.769   6.220  0.00  0.00    -0.059 C 
ATOM     23  H14 <0> d          -1.413   2.553   6.223  0.00  0.00     0.033 H 
ATOM     24  H15 <0> d          -1.142   0.794   6.217  0.00  0.00     0.033 H 
BRANCH  22  25
ATOM     25  C9  <0> d           0.219   1.900   7.469  0.00  0.00    -0.076 C 
ATOM     26  H16 <0> d           0.976   1.116   7.466  0.00  0.00     0.027 H 
ATOM     27  H17 <0> d           0.705   2.875   7.472  0.00  0.00     0.027 H 
ATOM     28  H18 <0> d          -0.403   1.801   8.359  0.00  0.00     0.027 H 
ENDBRANCH  22  25
ENDBRANCH  16  22
ENDBRANCH   1  16
TORSDOF 8
