REMARK  1 active torsions:
REMARK  status: ('A' for Active; 'I' for Inactive)
REMARK    1  A    between atoms: C2_2  and  C6_9 
ROOT
ATOM      1  C1  <0> d          -2.519   1.236   0.021  0.00  0.00    -0.010 A 
ATOM      2  C2  <0> d          -1.307   1.933   0.019  0.00  0.00     0.049 A 
ATOM      3  C3  <0> d          -1.347   3.330   0.032  0.00  0.00    -0.010 A 
ATOM      4  C4  <0> d          -2.577   3.966   0.037  0.00  0.00     0.213 A 
ATOM      5  N1  <0> d          -3.699   3.271   0.039  0.00  0.00    -0.191 NA
ATOM      6  C5  <0> d          -3.704   1.951   0.031  0.00  0.00     0.213 A 
ATOM      7  F1  <0> d          -4.882   1.289   0.033  0.00  0.00    -0.184 F 
ATOM      8  F2  <0> d          -2.629   5.316   0.046  0.00  0.00    -0.184 F 
ATOM      9  H1  <0> d          -2.530   0.157   0.014  0.00  0.00     0.092 H 
ATOM     10  H2  <0> d          -0.433   3.905   0.036  0.00  0.00     0.092 H 
ENDROOT
BRANCH   2  11
ATOM     11  C6  <0> d          -0.014   1.210   0.009  0.00  0.00     0.209 C 
ATOM     12  O1  <0> d           0.002  -0.004   0.002  0.00  0.00    -0.644 OA
ATOM     13  O2  <0> d           1.143   1.899   0.001  0.00  0.00    -0.644 OA
ENDBRANCH   2  11
TORSDOF 1
