REMARK  4 active torsions:
REMARK  status: ('A' for Active; 'I' for Inactive)
REMARK    1  A    between atoms: C1_1  and  C2_2 
REMARK    2  A    between atoms: C2_2  and  O1_3 
REMARK    3  A    between atoms: O1_3  and  C3_4 
REMARK    4  A    between atoms: C3_4  and  C4_6 
ROOT
ATOM      1  C4  <0> d          -4.285   0.937   2.401  0.00  0.00     0.109 C 
ATOM      2  H1  <0> d          -4.852   1.279   1.536  0.00  0.00     0.070 H 
ATOM      3  C5  <0> d          -4.949   1.423   3.710  0.00  0.00    -0.030 C 
ATOM      4  C6  <0> d          -4.705   0.217   4.650  0.00  0.00    -0.004 C 
ATOM      5  N1  <0> d          -4.569  -0.947   3.767  0.00  0.00    -0.360 N 
ATOM      6  C7  <0> d          -4.326  -0.572   2.499  0.00  0.00     0.231 C 
ATOM      7  O3  <0> d          -4.165  -1.333   1.568  0.00  0.00    -0.273 OA
ATOM      8  H7  <0> d          -4.458   2.320   4.088  0.00  0.00     0.037 H 
ATOM      9  H8  <0> d          -6.016   1.596   3.566  0.00  0.00     0.037 H 
ATOM     10  H9  <0> d          -5.554   0.084   5.321  0.00  0.00     0.064 H 
ATOM     11  H10 <0> d          -3.791   0.363   5.225  0.00  0.00     0.064 H 
ATOM     12  H11 <0> d          -4.643  -1.869   4.060  0.00  0.00     0.162 HD
ENDROOT
BRANCH   1  13
ATOM     13  C3  <0> d          -2.860   1.421   2.322  0.00  0.00     0.272 C 
ATOM     14  O2  <0> d          -2.409   2.120   3.199  0.00  0.00    -0.264 OA
BRANCH  13  15
ATOM     15  O1  <0> d          -2.091   1.077   1.277  0.00  0.00    -0.321 OA
BRANCH  15  16
ATOM     16  C2  <0> d          -0.729   1.579   1.267  0.00  0.00     0.025 C 
ATOM     17  H5  <0> d          -0.202   1.218   2.150  0.00  0.00     0.074 H 
ATOM     18  H6  <0> d          -0.744   2.669   1.273  0.00  0.00     0.074 H 
BRANCH  16  19
ATOM     19  C1  <0> d          -0.013   1.086   0.008  0.00  0.00    -0.056 C 
ATOM     20  H2  <0> d           0.002  -0.004   0.002  0.00  0.00     0.030 H 
ATOM     21  H3  <0> d           1.010   1.463   0.000  0.00  0.00     0.030 H 
ATOM     22  H4  <0> d          -0.540   1.447  -0.875  0.00  0.00     0.030 H 
ENDBRANCH  16  19
ENDBRANCH  15  16
ENDBRANCH  13  15
ENDBRANCH   1  13
TORSDOF 4
