REMARK  1 active torsions:
REMARK  status: ('A' for Active; 'I' for Inactive)
REMARK    1  A    between atoms: C6_6  and  N1_7 
ROOT
ATOM      1  C1  <0> d          -3.192   3.651   0.035  0.00  0.00    -0.057 A 
ATOM      2  C2  <0> d          -1.864   4.036   0.039  0.00  0.00    -0.072 A 
ATOM      3  C3  <0> d          -0.870   3.083   0.025  0.00  0.00    -0.022 A 
ATOM      4  C4  <0> d          -1.180   1.728   0.017  0.00  0.00     0.043 A 
ATOM      5  C5  <0> d          -2.517   1.341   0.021  0.00  0.00    -0.031 A 
ATOM      6  C6  <0> d          -3.518   2.300   0.030  0.00  0.00     0.027 A 
ATOM      7  N2  <0> d          -0.011   0.966   0.007  0.00  0.00    -0.326 N 
ATOM      8  C7  <0> d           1.094   1.730   0.001  0.00  0.00     0.226 A 
ATOM      9  O1  <0> d           2.241   1.337  -0.011  0.00  0.00    -0.273 OA
ATOM     10  C8  <0> d           0.639   3.173   0.012  0.00  0.00     0.035 A 
ATOM     11  H1  <0> d          -3.973   4.397   0.041  0.00  0.00     0.086 H 
ATOM     12  H2  <0> d          -1.606   5.085   0.042  0.00  0.00     0.084 H 
ATOM     13  H3  <0> d          -2.775   0.292   0.017  0.00  0.00     0.090 H 
ATOM     14  H6  <0> d          -0.070  -0.133   0.006  0.00  0.00     0.169 HD
ATOM     15  H7  <0> d           0.965   3.717  -0.886  0.00  0.00     0.054 H 
ATOM     16  H8  <0> d           0.982   3.709   0.910  0.00  0.00     0.054 H 
ENDROOT
BRANCH   6  17
ATOM     17  N1  <0> d          -4.859   1.908   0.034  0.00  0.00    -0.399 N 
ATOM     18  H4  <0> d          -5.119   0.839   0.030  0.00  0.00     0.156 HD
ATOM     19  H5  <0> d          -5.654   2.667   0.041  0.00  0.00     0.156 HD
ENDBRANCH   6  17
TORSDOF 1
