REMARK  3 active torsions:
REMARK  status: ('A' for Active; 'I' for Inactive)
REMARK    1  A    between atoms: C1_1  and  N1_2 
REMARK    2  A    between atoms: C4_6  and  C5_7 
REMARK    3  A    between atoms: C5_7  and  O1_8 
ROOT
ATOM      1  N1  <0> d           0.599   3.169   0.013  0.00  0.00    -0.346 N 
ATOM      2  C2  <0> d          -0.750   3.104   0.025  0.00  0.00     0.065 A 
ATOM      3  N2  <0> d          -1.108   1.849   0.017  0.00  0.00    -0.254 NA
ATOM      4  C3  <0> d          -0.013   1.076   0.008  0.00  0.00     0.027 A 
ATOM      5  C4  <0> d           1.066   1.882   0.002  0.00  0.00     0.053 A 
ATOM      6  H4  <0> d          -1.420   3.950   0.035  0.00  0.00     0.143 H 
ATOM      7  H5  <0> d           0.002  -0.004   0.002  0.00  0.00     0.117 H 
ENDROOT
BRANCH   5   8
ATOM      8  C5  <0> d           2.510   1.450  -0.014  0.00  0.00     0.056 C 
ATOM      9  H6  <0> d           2.997   1.843  -0.907  0.00  0.00     0.083 H 
ATOM     10  H7  <0> d           3.014   1.835   0.873  0.00  0.00     0.083 H 
BRANCH   8  11
ATOM     11  O1  <0> d           2.580   0.023  -0.021  0.00  0.00    -0.395 OA
ATOM     12  H8  <0> d           3.482  -0.326  -0.032  0.00  0.00     0.209 HD
ENDBRANCH   8  11
ENDBRANCH   5   8
BRANCH   1  13
ATOM     13  C1  <0> d           1.411   4.388   0.011  0.00  0.00    -0.013 C 
ATOM     14  H1  <0> d           1.603   4.696  -1.017  0.00  0.00     0.057 H 
ATOM     15  H2  <0> d           0.876   5.181   0.534  0.00  0.00     0.057 H 
ATOM     16  H3  <0> d           2.358   4.195   0.515  0.00  0.00     0.057 H 
ENDBRANCH   1  13
TORSDOF 3
