REMARK  2 active torsions:
REMARK  status: ('A' for Active; 'I' for Inactive)
REMARK    1  A    between atoms: C2_2  and  C3_3 
REMARK    2  A    between atoms: C4_4  and  C5_5 
ROOT
ATOM      1  C5  <0> d          -3.467  -2.071   0.024  0.00  0.00    -0.008 C 
ATOM      2  C6  <0> d          -4.676  -1.518   0.033  0.00  0.00    -0.089 C 
ATOM      3  C7  <0> d          -5.750  -2.581   0.038  0.00  0.00    -0.048 C 
ATOM      4  C8  <0> d          -5.027  -3.876  -0.396  0.00  0.00    -0.058 C 
ATOM      5  C9  <0> d          -3.569  -3.578   0.017  0.00  0.00    -0.033 C 
ATOM      6  H4  <0> d          -4.865  -0.454   0.036  0.00  0.00     0.078 H 
ATOM      7  H5  <0> d          -6.165  -2.696   1.040  0.00  0.00     0.038 H 
ATOM      8  H6  <0> d          -6.536  -2.329  -0.673  0.00  0.00     0.038 H 
ATOM      9  H7  <0> d          -5.418  -4.740   0.142  0.00  0.00     0.033 H 
ATOM     10  H8  <0> d          -5.101  -4.023  -1.473  0.00  0.00     0.033 H 
ATOM     11  H9  <0> d          -2.874  -4.002  -0.708  0.00  0.00     0.041 H 
ATOM     12  H10 <0> d          -3.370  -3.976   1.012  0.00  0.00     0.041 H 
ENDROOT
BRANCH   1  13
ATOM     13  C4  <0> d          -2.237  -1.338   0.016  0.00  0.00    -0.067 C 
ATOM     14  C3  <0> d          -1.228  -0.737   0.010  0.00  0.00    -0.074 C 
BRANCH  14  15
ATOM     15  C2  <0> d           0.002  -0.004   0.002  0.00  0.00    -0.042 C 
ATOM     16  C1  <0> d          -0.016   1.329   0.009  0.00  0.00    -0.114 C 
ATOM     17  H1  <0> d           0.912   1.881   0.004  0.00  0.00     0.067 H 
ATOM     18  H2  <0> d          -0.959   1.856   0.017  0.00  0.00     0.067 H 
ATOM     19  H3  <0> d           0.945  -0.531  -0.010  0.00  0.00     0.096 H 
ENDBRANCH  14  15
ENDBRANCH   1  13
TORSDOF 2
