REMARK  3 active torsions:
REMARK  status: ('A' for Active; 'I' for Inactive)
REMARK    1  A    between atoms: C1_1  and  C2_2 
REMARK    2  A    between atoms: C2_2  and  C3_4 
REMARK    3  A    between atoms: C3_4  and  C9_11 
ROOT
ATOM      1  C3  <0> d          -1.293  -0.775   0.010  0.00  0.00     0.077 C 
ATOM      2  C4  <0> d          -0.997  -2.278  -0.025  0.00  0.00    -0.045 C 
ATOM      3  C5  <0> d          -0.326  -2.633  -1.353  0.00  0.00    -0.063 C 
ATOM      4  C6  <0> d          -1.287  -2.356  -2.510  0.00  0.00    -0.059 C 
ATOM      5  C7  <0> d          -1.594  -0.856  -2.568  0.00  0.00    -0.009 C 
ATOM      6  C8  <0> d          -2.105  -0.417  -1.214  0.00  0.00     0.142 C 
ATOM      7  O2  <0> d          -3.136   0.204  -1.113  0.00  0.00    -0.297 OA
ATOM      8  H4  <0> d          -0.332  -2.537   0.799  0.00  0.00     0.035 H 
ATOM      9  H5  <0> d          -1.929  -2.835   0.072  0.00  0.00     0.035 H 
ATOM     10  H6  <0> d           0.574  -2.031  -1.477  0.00  0.00     0.033 H 
ATOM     11  H7  <0> d          -0.056  -3.689  -1.351  0.00  0.00     0.033 H 
ATOM     12  H8  <0> d          -0.828  -2.670  -3.447  0.00  0.00     0.033 H 
ATOM     13  H9  <0> d          -2.213  -2.911  -2.354  0.00  0.00     0.033 H 
ATOM     14  H10 <0> d          -0.686  -0.306  -2.813  0.00  0.00     0.044 H 
ATOM     15  H11 <0> d          -2.355  -0.667  -3.326  0.00  0.00     0.044 H 
ENDROOT
BRANCH   1  16
ATOM     16  C2  <0> d           0.002  -0.004   0.002  0.00  0.00     0.138 C 
ATOM     17  O1  <0> d           1.056  -0.594  -0.011  0.00  0.00    -0.297 OA
BRANCH  16  18
ATOM     18  C1  <0> d          -0.018   1.503   0.010  0.00  0.00    -0.020 C 
ATOM     19  H1  <0> d           1.004   1.880   0.003  0.00  0.00     0.037 H 
ATOM     20  H2  <0> d          -0.545   1.864  -0.873  0.00  0.00     0.037 H 
ATOM     21  H3  <0> d          -0.529   1.854   0.907  0.00  0.00     0.037 H 
ENDBRANCH  16  18
ENDBRANCH   1  16
BRANCH   1  22
ATOM     22  C9  <0> d          -2.087  -0.433   1.272  0.00  0.00    -0.056 C 
ATOM     23  H12 <0> d          -2.302   0.635   1.288  0.00  0.00     0.029 H 
ATOM     24  H13 <0> d          -3.022  -0.992   1.276  0.00  0.00     0.029 H 
ATOM     25  H14 <0> d          -1.502  -0.699   2.153  0.00  0.00     0.029 H 
ENDBRANCH   1  22
TORSDOF 3
