REMARK  3 active torsions:
REMARK  status: ('A' for Active; 'I' for Inactive)
REMARK    1  A    between atoms: C3_4  and  N3_7 
REMARK    2  A    between atoms: N3_7  and  C5_8 
REMARK    3  A    between atoms: C5_8  and  C6_9 
ROOT
ATOM      1  N3  <0> d          -0.017   1.380   0.010  0.00  0.00    -0.222 N 
ATOM      2  H4  <0> d           0.928   1.943   0.008  0.00  0.00     0.177 HD
ENDROOT
BRANCH   1   3
ATOM      3  C3  <0> d           0.002  -0.004   0.002  0.00  0.00     0.721 A 
ATOM      4  N1  <0> d           1.167  -0.635  -0.013  0.00  0.00    -0.075 NA
ATOM      5  C2  <0> d           1.220  -1.957  -0.020  0.00  0.00     0.022 A 
ATOM      6  C1  <0> d           0.038  -2.681  -0.013  0.00  0.00    -0.048 A 
ATOM      7  H2  <0> d           2.173  -2.465  -0.032  0.00  0.00     0.115 H 
ATOM      8  C4  <0> d          -1.163  -1.989   0.003  0.00  0.00     0.022 A 
ATOM      9  H1  <0> d           0.053  -3.761  -0.019  0.00  0.00     0.087 H 
ATOM     10  N2  <0> d          -1.145  -0.666   0.015  0.00  0.00    -0.075 NA
ATOM     11  H3  <0> d          -2.101  -2.523   0.009  0.00  0.00     0.115 H 
ENDBRANCH   1   3
BRANCH   1  12
ATOM     12  C5  <0> d          -1.295   2.095   0.020  0.00  0.00     0.013 C 
ATOM     13  H5  <0> d          -1.873   1.826  -0.877  0.00  0.00     0.065 H 
ATOM     14  H6  <0> d          -1.864   1.817   0.919  0.00  0.00     0.065 H 
BRANCH  12  15
ATOM     15  C6  <0> d          -1.036   3.603   0.026  0.00  0.00    -0.038 A 
ATOM     16  C8  <0> d          -2.249   4.529  -0.081  0.00  0.00    -0.060 A 
ATOM     17  C7  <0> d          -1.505   4.395   1.249  0.00  0.00    -0.060 A 
ATOM     18  H10 <0> d          -2.055   5.301  -0.840  0.00  0.00     0.033 H 
ATOM     19  H11 <0> d          -3.133   3.942  -0.373  0.00  0.00     0.033 H 
ATOM     20  H8  <0> d          -1.773   3.697   2.056  0.00  0.00     0.033 H 
ATOM     21  H9  <0> d          -0.695   5.056   1.590  0.00  0.00     0.033 H 
ATOM     22  H7  <0> d          -0.085   3.500  -0.516  0.00  0.00     0.042 H 
ENDBRANCH  12  15
ENDBRANCH   1  12
TORSDOF 3
