REMARK  4 active torsions:
REMARK  status: ('A' for Active; 'I' for Inactive)
REMARK    1  A    between atoms: C1_1  and  C2_2 
REMARK    2  A    between atoms: C2_2  and  C3_3 
REMARK    3  A    between atoms: C3_3  and  C4_4 
REMARK    4  A    between atoms: C4_4  and  S1_5 
ROOT
ATOM      1  C3  <0> d           0.742  -0.511   1.242  0.00  0.00    -0.052 C 
ATOM      2  H6  <0> d           1.765  -0.134   1.234  0.00  0.00     0.034 H 
ATOM      3  H7  <0> d           0.232  -0.159   2.138  0.00  0.00     0.034 H 
ENDROOT
BRANCH   1   4
ATOM      4  C2  <0> d           0.002  -0.004   0.002  0.00  0.00    -0.068 C 
ATOM      5  H4  <0> d          -1.020  -0.381   0.010  0.00  0.00     0.032 H 
ATOM      6  H5  <0> d           0.512  -0.356  -0.895  0.00  0.00     0.032 H 
BRANCH   4   7
ATOM      7  C1  <0> d          -0.019   1.526   0.010  0.00  0.00    -0.076 C 
ATOM      8  H1  <0> d           1.004   1.903   0.003  0.00  0.00     0.027 H 
ATOM      9  H2  <0> d          -0.546   1.887  -0.873  0.00  0.00     0.027 H 
ATOM     10  H3  <0> d          -0.529   1.877   0.907  0.00  0.00     0.027 H 
ENDBRANCH   4   7
ENDBRANCH   1   4
BRANCH   1  11
ATOM     11  C4  <0> d           0.763  -2.041   1.233  0.00  0.00     0.042 C 
ATOM     12  H8  <0> d          -0.260  -2.418   1.241  0.00  0.00     0.057 H 
ATOM     13  H9  <0> d           1.273  -2.392   0.336  0.00  0.00     0.057 H 
BRANCH  11  14
ATOM     14  S1  <0> d           1.640  -2.642   2.703  0.00  0.00     0.250 S 
ATOM     15  O1  <0> d           0.904  -2.135   3.872  0.00  0.00    -0.212 OA
ATOM     16  O2  <0> d           1.432  -4.097   2.755  0.00  0.00    -0.212 OA
ENDBRANCH  11  14
ENDBRANCH   1  11
TORSDOF 4
