REMARK  3 active torsions:
REMARK  status: ('A' for Active; 'I' for Inactive)
REMARK    1  A    between atoms: C1_1  and  O1_2 
REMARK    2  A    between atoms: O1_2  and  C2_3 
REMARK    3  A    between atoms: C6_7  and  N1_10 
ROOT
ATOM      1  C2  <0> d           0.002  -0.004   0.002  0.00  0.00     0.148 A 
ATOM      2  C3  <0> d           1.215  -0.681  -0.013  0.00  0.00     0.152 A 
ATOM      3  C4  <0> d           2.404   0.027  -0.021  0.00  0.00    -0.041 A 
ATOM      4  C5  <0> d           2.388   1.409  -0.014  0.00  0.00    -0.052 A 
ATOM      5  C6  <0> d           1.179   2.091   0.002  0.00  0.00     0.068 A 
ATOM      6  C7  <0> d          -0.017   1.382   0.010  0.00  0.00     0.178 A 
ATOM      7  F1  <0> d          -1.195   2.043   0.019  0.00  0.00    -0.201 F 
ATOM      8  F2  <0> d           1.234  -2.032  -0.021  0.00  0.00    -0.203 F 
ATOM      9  H4  <0> d           3.345  -0.501  -0.033  0.00  0.00     0.088 H 
ATOM     10  H5  <0> d           3.317   1.959  -0.021  0.00  0.00     0.087 H 
ENDROOT
BRANCH   1  11
ATOM     11  O1  <0> d          -1.166  -0.701   0.009  0.00  0.00    -0.350 OA
BRANCH  11  12
ATOM     12  C1  <0> d          -1.735  -1.026  -1.261  0.00  0.00     0.011 C 
ATOM     13  H1  <0> d          -2.662  -1.580  -1.113  0.00  0.00     0.067 H 
ATOM     14  H2  <0> d          -1.944  -0.109  -1.811  0.00  0.00     0.067 H 
ATOM     15  H3  <0> d          -1.033  -1.637  -1.828  0.00  0.00     0.067 H 
ENDBRANCH  11  12
ENDBRANCH   1  11
BRANCH   5  16
ATOM     16  N1  <0> d           1.164   3.491   0.009  0.00  0.00    -0.397 N 
ATOM     17  H6  <0> d           0.319   3.966   0.019  0.00  0.00     0.156 HD
ATOM     18  H7  <0> d           1.998   3.985   0.004  0.00  0.00     0.156 HD
ENDBRANCH   5  16
TORSDOF 3
