REMARK  2 active torsions:
REMARK  status: ('A' for Active; 'I' for Inactive)
REMARK    1  A    between atoms: C3_3  and  N3_13 
REMARK    2  A    between atoms: C6_6  and  C7_7 
ROOT
ATOM      1  C1  <0> d          -0.017   1.390   0.010  0.00  0.00    -0.069 A 
ATOM      2  C2  <0> d           1.168   2.094   0.002  0.00  0.00    -0.057 A 
ATOM      3  C3  <0> d           2.381   1.416  -0.013  0.00  0.00     0.025 A 
ATOM      4  C4  <0> d           2.402   0.026  -0.021  0.00  0.00    -0.057 A 
ATOM      5  C5  <0> d           1.220  -0.683  -0.013  0.00  0.00    -0.069 A 
ATOM      6  C6  <0> d           0.002  -0.004   0.002  0.00  0.00    -0.005 A 
ATOM      7  H2  <0> d          -0.959   1.917   0.026  0.00  0.00     0.085 H 
ATOM      8  H3  <0> d           1.154   3.174   0.008  0.00  0.00     0.086 H 
ATOM      9  H4  <0> d           3.346  -0.500  -0.034  0.00  0.00     0.086 H 
ATOM     10  H5  <0> d           1.236  -1.762  -0.019  0.00  0.00     0.085 H 
ENDROOT
BRANCH   6  11
ATOM     11  C7  <0> d          -1.272  -0.764   0.011  0.00  0.00     0.088 A 
ATOM     12  N2  <0> d          -2.483  -0.247   0.026  0.00  0.00    -0.175 NA
ATOM     13  N1  <0> d          -3.406  -1.300   0.027  0.00  0.00    -0.289 N 
ATOM     14  C9  <0> d          -2.718  -2.463   0.020  0.00  0.00    -0.002 A 
ATOM     15  H1  <0> d          -4.372  -1.211   0.035  0.00  0.00     0.188 HD
ATOM     16  C8  <0> d          -1.400  -2.167   0.010  0.00  0.00    -0.036 A 
ATOM     17  H7  <0> d          -3.147  -3.454   0.022  0.00  0.00     0.113 H 
ATOM     18  H6  <0> d          -0.589  -2.880   0.002  0.00  0.00     0.089 H 
ENDBRANCH   6  11
BRANCH   3  19
ATOM     19  N3  <0> d           3.580   2.131  -0.022  0.00  0.00    -0.399 N 
ATOM     20  H8  <0> d           3.566   3.101  -0.017  0.00  0.00     0.156 HD
ATOM     21  H9  <0> d           4.427   1.658  -0.033  0.00  0.00     0.156 HD
ENDBRANCH   3  19
TORSDOF 2
