REMARK  1 active torsions:
REMARK  status: ('A' for Active; 'I' for Inactive)
REMARK    1  A    between atoms: C4_4  and  N1_7 
ROOT
ATOM      1  C1  <0> d           1.208  -0.680  -0.013  0.00  0.00    -0.083 A 
ATOM      2  C2  <0> d           0.002  -0.004   0.002  0.00  0.00    -0.081 A 
ATOM      3  C3  <0> d          -0.017   1.377   0.010  0.00  0.00    -0.055 A 
ATOM      4  C4  <0> d           1.177   2.086   0.002  0.00  0.00     0.059 A 
ATOM      5  C5  <0> d           2.386   1.404  -0.013  0.00  0.00    -0.055 A 
ATOM      6  C6  <0> d           2.398   0.023  -0.021  0.00  0.00    -0.081 A 
ATOM      7  H1  <0> d           1.220  -1.760  -0.019  0.00  0.00     0.083 H 
ATOM      8  H2  <0> d          -0.926  -0.556   0.008  0.00  0.00     0.083 H 
ATOM      9  H3  <0> d          -0.959   1.905   0.017  0.00  0.00     0.087 H 
ATOM     10  H4  <0> d           3.316   1.953  -0.018  0.00  0.00     0.087 H 
ATOM     11  H5  <0> d           3.339  -0.508  -0.033  0.00  0.00     0.083 H 
ENDROOT
BRANCH   4  12
ATOM     12  N1  <0> d           1.161   3.488   0.009  0.00  0.00    -0.227 N 
ATOM     13  N3  <0> d           0.028   4.317   0.025  0.00  0.00    -0.160 NA
ATOM     14  C8  <0> d           0.462   5.551   0.026  0.00  0.00     0.107 A 
ATOM     15  N2  <0> d           1.794   5.542   0.013  0.00  0.00    -0.233 NA
ATOM     16  H7  <0> d          -0.159   6.434   0.037  0.00  0.00     0.149 H 
ATOM     17  C7  <0> d           2.230   4.308   0.009  0.00  0.00     0.090 A 
ATOM     18  H6  <0> d           3.266   4.001   0.003  0.00  0.00     0.146 H 
ENDBRANCH   4  12
TORSDOF 1
