REMARK  2 active torsions:
REMARK  status: ('A' for Active; 'I' for Inactive)
REMARK    1  A    between atoms: C4_5  and  C5_7 
REMARK    2  A    between atoms: C5_7  and  N2_11 
ROOT
ATOM      1  C5  <0> d          -0.544   0.704   2.462  0.00  0.00     0.217 C 
ATOM      2  H2  <0> d          -1.172   1.000   3.316  0.00  0.00     0.112 H 
ATOM      3  C6  <0> d          -0.866  -0.688   2.108  0.00  0.00     0.095 C 
ATOM      4  N1  <0> d          -1.114  -1.762   1.834  0.00  0.00    -0.195 NA
ENDROOT
BRANCH   1   5
ATOM      5  C4  <0> d          -0.780   1.606   1.249  0.00  0.00     0.011 C 
ATOM      6  C1  <0> d          -2.249   1.504   0.749  0.00  0.00    -0.037 C 
ATOM      7  C2  <0> d          -2.107   1.829  -0.754  0.00  0.00     0.020 C 
ATOM      8  H3  <0> d          -2.630   0.489   0.934  0.00  0.00     0.036 H 
ATOM      9  H4  <0> d          -2.872   2.233   1.288  0.00  0.00     0.036 H 
ATOM     10  O1  <0> d          -0.746   1.581  -1.124  0.00  0.00    -0.391 OA
ATOM     11  H5  <0> d          -2.786   1.186  -1.334  0.00  0.00     0.074 H 
ATOM     12  H6  <0> d          -2.366   2.884  -0.927  0.00  0.00     0.074 H 
ATOM     13  C3  <0> d          -0.013   1.086   0.008  0.00  0.00     0.026 C 
ATOM     14  H7  <0> d           0.009  -0.014  -0.022  0.00  0.00     0.075 H 
ATOM     15  H8  <0> d           1.016   1.474  -0.023  0.00  0.00     0.075 H 
ATOM     16  H1  <0> d          -0.475   2.605   1.596  0.00  0.00     0.048 H 
ENDBRANCH   1   5
BRANCH   1  17
ATOM     17  N2  <0> d           0.864   0.792   2.872  0.00  0.00     0.096 N 
ATOM     18  H9  <0> d           1.033   0.143   3.744  0.00  0.00     0.314 HD
ATOM     19  H10 <0> d           1.508   0.467   2.042  0.00  0.00     0.314 HD
ENDBRANCH   1  17
TORSDOF 2
