REMARK  2 active torsions:
REMARK  status: ('A' for Active; 'I' for Inactive)
REMARK    1  A    between atoms: C1_1  and  C2_2 
REMARK    2  A    between atoms: C4_6  and  C5_7 
ROOT
ATOM      1  C2  <0> d           0.002  -0.004   0.002  0.00  0.00     0.000 A 
ATOM      2  C3  <0> d           0.008  -0.788  -1.091  0.00  0.00     0.052 A 
ATOM      3  O1  <0> d           0.028  -2.068  -0.690  0.00  0.00    -0.225 OA
ATOM      4  N1  <0> d           0.035  -2.086   0.726  0.00  0.00    -0.121 NA
ATOM      5  C4  <0> d           0.024  -0.842   1.143  0.00  0.00     0.168 A 
ATOM      6  H4  <0> d          -0.002  -0.447  -2.115  0.00  0.00     0.127 H 
ENDROOT
BRANCH   1   7
ATOM      7  C1  <0> d          -0.018   1.503   0.010  0.00  0.00    -0.047 C 
ATOM      8  H1  <0> d           1.004   1.880   0.003  0.00  0.00     0.033 H 
ATOM      9  H2  <0> d          -0.545   1.864  -0.873  0.00  0.00     0.033 H 
ATOM     10  H3  <0> d          -0.529   1.854   0.907  0.00  0.00     0.033 H 
ENDBRANCH   1   7
BRANCH   5  11
ATOM     11  C5  <0> d           0.032  -0.394   2.555  0.00  0.00     0.231 C 
ATOM     12  O2  <0> d           0.018   0.799   2.818  0.00  0.00    -0.643 OA
ATOM     13  O3  <0> d           0.051  -1.219   3.458  0.00  0.00    -0.643 OA
ENDBRANCH   5  11
TORSDOF 2
