REMARK  3 active torsions:
REMARK  status: ('A' for Active; 'I' for Inactive)
REMARK    1  A    between atoms: C1_1  and  N1_2 
REMARK       I    between atoms: N1_2  and  C2_3 
REMARK    2  A    between atoms: C2_3  and  C3_5 
REMARK    3  A    between atoms: C3_5  and  C4_6 
ROOT
ATOM      1  C3  <0> d          -1.135  -2.201   0.001  0.00  0.00     0.033 C 
ATOM      2  H5  <0> d          -0.625  -2.552  -0.896  0.00  0.00     0.054 H 
ATOM      3  H6  <0> d          -0.608  -2.562   0.884  0.00  0.00     0.054 H 
ENDROOT
BRANCH   1   4
ATOM      4  C2  <0> d          -1.156  -0.694   0.009  0.00  0.00     0.221 C 
ATOM      5  N1  <0> d           0.002  -0.004   0.002  0.00  0.00    -0.365 N 
ATOM      6  H4  <0> d           0.849  -0.478  -0.009  0.00  0.00     0.161 HD
ATOM      7  O1  <0> d          -2.214  -0.102   0.023  0.00  0.00    -0.273 OA
BRANCH   5   8
ATOM      8  C1  <0> d          -0.018   1.461   0.010  0.00  0.00    -0.018 C 
ATOM      9  H1  <0> d           1.005   1.838   0.002  0.00  0.00     0.056 H 
ATOM     10  H2  <0> d          -0.545   1.822  -0.873  0.00  0.00     0.056 H 
ATOM     11  H3  <0> d          -0.528   1.812   0.907  0.00  0.00     0.056 H 
ENDBRANCH   5   8
ENDBRANCH   1   4
BRANCH   1  12
ATOM     12  C4  <0> d          -2.549  -2.722   0.012  0.00  0.00    -0.047 A 
ATOM     13  C8  <0> d          -3.226  -2.962  -1.174  0.00  0.00    -0.059 A 
ATOM     14  C7  <0> d          -4.520  -3.446  -1.125  0.00  0.00     0.002 A 
ATOM     15  H10 <0> d          -2.748  -2.776  -2.124  0.00  0.00     0.086 H 
ATOM     16  N2  <0> d          -5.113  -3.669   0.031  0.00  0.00    -0.273 NA
ATOM     17  H9  <0> d          -5.053  -3.639  -2.045  0.00  0.00     0.114 H 
ATOM     18  C6  <0> d          -4.502  -3.447   1.178  0.00  0.00     0.002 A 
ATOM     19  C5  <0> d          -3.206  -2.969   1.208  0.00  0.00    -0.059 A 
ATOM     20  H8  <0> d          -5.020  -3.642   2.106  0.00  0.00     0.114 H 
ATOM     21  H7  <0> d          -2.710  -2.790   2.151  0.00  0.00     0.086 H 
ENDBRANCH   1  12
TORSDOF 3
