REMARK  5 active torsions:
REMARK  status: ('A' for Active; 'I' for Inactive)
REMARK    1  A    between atoms: C1_1  and  C2_2 
REMARK    2  A    between atoms: C7_8  and  C8_9 
REMARK    3  A    between atoms: C7_8  and  C9_11 
REMARK    4  A    between atoms: C8_9  and  O1_10 
REMARK    5  A    between atoms: C9_11  and  O2_12 
ROOT
ATOM      1  C2  <0> d           1.109   3.252   0.432  0.00  0.00    -0.043 C 
ATOM      2  H1  <0> d           2.022   3.817   0.240  0.00  0.00     0.041 H 
ATOM      3  C3  <0> d           1.303   1.797  -0.001  0.00  0.00    -0.046 C 
ATOM      4  C4  <0> d          -0.013   1.076   0.008  0.00  0.00    -0.106 C 
ATOM      5  C5  <0> d          -1.164   1.667   0.017  0.00  0.00    -0.106 C 
ATOM      6  C6  <0> d          -1.344   3.157   0.041  0.00  0.00    -0.039 C 
ATOM      7  C7  <0> d          -0.047   3.850  -0.381  0.00  0.00     0.009 C 
ATOM      8  H5  <0> d           1.990   1.305   0.687  0.00  0.00     0.039 H 
ATOM      9  H6  <0> d           1.721   1.774  -1.007  0.00  0.00     0.039 H 
ATOM     10  H7  <0> d           0.002  -0.004   0.002  0.00  0.00     0.076 H 
ATOM     11  H8  <0> d          -2.050   1.050   0.010  0.00  0.00     0.076 H 
ATOM     12  H9  <0> d          -1.613   3.475   1.048  0.00  0.00     0.040 H 
ATOM     13  H10 <0> d          -2.142   3.433  -0.648  0.00  0.00     0.040 H 
ENDROOT
BRANCH   7  14
ATOM     14  C8  <0> d          -0.150   5.351  -0.101  0.00  0.00     0.026 C 
ATOM     15  H11 <0> d          -0.335   5.510   0.962  0.00  0.00     0.075 H 
ATOM     16  H12 <0> d           0.782   5.839  -0.385  0.00  0.00     0.075 H 
BRANCH  14  17
ATOM     17  O1  <0> d          -1.228   5.903  -0.859  0.00  0.00    -0.400 OA
ATOM     18  H13 <0> d          -1.353   6.854  -0.730  0.00  0.00     0.209 HD
ENDBRANCH  14  17
ENDBRANCH   7  14
BRANCH   7  19
ATOM     19  C9  <0> d           0.199   3.617  -1.873  0.00  0.00     0.026 C 
ATOM     20  H14 <0> d           1.133   4.096  -2.166  0.00  0.00     0.075 H 
ATOM     21  H15 <0> d           0.263   2.546  -2.068  0.00  0.00     0.075 H 
BRANCH  19  22
ATOM     22  O2  <0> d          -0.879   4.175  -2.626  0.00  0.00    -0.400 OA
ATOM     23  H16 <0> d          -0.790   4.064  -3.583  0.00  0.00     0.209 HD
ENDBRANCH  19  22
ENDBRANCH   7  19
BRANCH   1  24
ATOM     24  C1  <0> d           0.776   3.305   1.924  0.00  0.00    -0.072 C 
ATOM     25  H2  <0> d           1.593   2.864   2.495  0.00  0.00     0.028 H 
ATOM     26  H3  <0> d           0.638   4.343   2.229  0.00  0.00     0.028 H 
ATOM     27  H4  <0> d          -0.141   2.747   2.111  0.00  0.00     0.028 H 
ENDBRANCH   1  24
TORSDOF 5
