REMARK  2 active torsions:
REMARK  status: ('A' for Active; 'I' for Inactive)
REMARK    1  A    between atoms: C1_1  and  O1_2 
REMARK    2  A    between atoms: O1_2  and  C2_3 
ROOT
ATOM      1  C2  <0> d          -1.346   4.463   0.038  0.00  0.00     0.083 A 
ATOM      2  C3  <0> d          -0.574   5.617   0.037  0.00  0.00    -0.033 A 
ATOM      3  C4  <0> d           0.806   5.510   0.024  0.00  0.00     0.007 A 
ATOM      4  N1  <0> d           1.407   4.338   0.012  0.00  0.00    -0.242 NA
ATOM      5  C5  <0> d           0.723   3.200   0.012  0.00  0.00     0.140 A 
ATOM      6  C6  <0> d          -0.683   3.228   0.025  0.00  0.00     0.044 A 
ATOM      7  C7  <0> d          -1.121   1.832   0.017  0.00  0.00    -0.052 A 
ATOM      8  C8  <0> d          -0.013   1.076   0.008  0.00  0.00    -0.020 A 
ATOM      9  N2  <0> d           1.098   1.878   0.002  0.00  0.00    -0.350 N 
ATOM     10  H1  <0> d           2.014   1.560  -0.009  0.00  0.00     0.166 HD
ATOM     11  H5  <0> d          -1.045   6.589   0.047  0.00  0.00     0.090 H 
ATOM     12  H6  <0> d           1.405   6.409   0.024  0.00  0.00     0.115 H 
ATOM     13  H7  <0> d          -2.142   1.478   0.019  0.00  0.00     0.087 H 
ATOM     14  H8  <0> d           0.002  -0.004   0.002  0.00  0.00     0.111 H 
ENDROOT
BRANCH   1  15
ATOM     15  O1  <0> d          -2.702   4.529   0.052  0.00  0.00    -0.355 OA
BRANCH  15  16
ATOM     16  C1  <0> d          -3.288   5.832   0.064  0.00  0.00     0.010 C 
ATOM     17  H2  <0> d          -2.960   6.369   0.954  0.00  0.00     0.066 H 
ATOM     18  H3  <0> d          -2.977   6.379  -0.826  0.00  0.00     0.066 H 
ATOM     19  H4  <0> d          -4.374   5.741   0.074  0.00  0.00     0.066 H 
ENDBRANCH  15  16
ENDBRANCH   1  15
TORSDOF 2
