REMARK  1 active torsions:
REMARK  status: ('A' for Active; 'I' for Inactive)
REMARK    1  A    between atoms: C1_1  and  C2_2 
ROOT
ATOM      1  C2  <0> d          -1.533   5.165   0.043  0.00  0.00     0.145 A 
ATOM      2  N1  <0> d          -2.120   4.006   0.043  0.00  0.00    -0.219 NA
ATOM      3  C3  <0> d          -1.170   3.039   0.029  0.00  0.00     0.180 A 
ATOM      4  C4  <0> d          -1.193   1.623   0.017  0.00  0.00     0.279 A 
ATOM      5  O1  <0> d          -2.248   1.013   0.018  0.00  0.00    -0.265 OA
ATOM      6  N2  <0> d          -0.011   0.966   0.007  0.00  0.00    -0.316 N 
ATOM      7  H1  <0> d           0.002  -0.004   0.002  0.00  0.00     0.170 HD
ATOM      8  C5  <0> d           1.156   1.657  -0.000  0.00  0.00     0.069 A 
ATOM      9  N3  <0> d           1.191   2.960   0.007  0.00  0.00    -0.217 NA
ATOM     10  C6  <0> d           0.067   3.687   0.021  0.00  0.00     0.207 A 
ATOM     11  O2  <0> d          -0.199   5.006   0.030  0.00  0.00    -0.275 OA
ATOM     12  H5  <0> d           2.087   1.109  -0.011  0.00  0.00     0.143 H 
ENDROOT
BRANCH   1  13
ATOM     13  C1  <0> d          -2.244   6.494   0.056  0.00  0.00    -0.015 C 
ATOM     14  H2  <0> d          -2.406   6.810   1.087  0.00  0.00     0.038 H 
ATOM     15  H3  <0> d          -1.636   7.237  -0.460  0.00  0.00     0.038 H 
ATOM     16  H4  <0> d          -3.205   6.397  -0.450  0.00  0.00     0.038 H 
ENDBRANCH   1  13
TORSDOF 1
