REMARK  1 active torsions:
REMARK  status: ('A' for Active; 'I' for Inactive)
REMARK    1  A    between atoms: C1_1  and  C2_2 
ROOT
ATOM      1  C2  <0> d           0.002  -0.004   0.002  0.00  0.00    -0.041 C 
ATOM      2  H1  <0> d           0.513  -0.353  -0.895  0.00  0.00     0.045 H 
ATOM      3  C3  <0> d          -1.435  -0.531   0.006  0.00  0.00    -0.059 C 
ATOM      4  C4  <0> d          -1.396  -2.043   0.259  0.00  0.00    -0.061 C 
ATOM      5  C5  <0> d          -0.905  -2.282   1.688  0.00  0.00    -0.050 C 
ATOM      6  C6  <0> d           0.345  -1.492   1.944  0.00  0.00    -0.106 C 
ATOM      7  C7  <0> d           0.734  -0.498   1.215  0.00  0.00    -0.102 C 
ATOM      8  H5  <0> d          -2.002  -0.041   0.797  0.00  0.00     0.033 H 
ATOM      9  H6  <0> d          -1.900  -0.333  -0.960  0.00  0.00     0.033 H 
ATOM     10  H7  <0> d          -2.396  -2.460   0.141  0.00  0.00     0.033 H 
ATOM     11  H8  <0> d          -0.713  -2.516  -0.447  0.00  0.00     0.033 H 
ATOM     12  H9  <0> d          -1.678  -1.974   2.393  0.00  0.00     0.038 H 
ATOM     13  H10 <0> d          -0.696  -3.343   1.826  0.00  0.00     0.038 H 
ATOM     14  H11 <0> d           0.955  -1.770   2.791  0.00  0.00     0.076 H 
ATOM     15  H12 <0> d           1.647   0.006   1.496  0.00  0.00     0.076 H 
ENDROOT
BRANCH   1  16
ATOM     16  C1  <0> d          -0.019   1.526   0.010  0.00  0.00    -0.070 C 
ATOM     17  H2  <0> d           1.004   1.903   0.003  0.00  0.00     0.028 H 
ATOM     18  H3  <0> d          -0.546   1.887  -0.873  0.00  0.00     0.028 H 
ATOM     19  H4  <0> d          -0.529   1.877   0.907  0.00  0.00     0.028 H 
ENDBRANCH   1  16
TORSDOF 1
