REMARK  3 active torsions:
REMARK  status: ('A' for Active; 'I' for Inactive)
REMARK    1  A    between atoms: C1_1  and  C2_2 
REMARK    2  A    between atoms: C2_2  and  O2_4 
REMARK    3  A    between atoms: O2_4  and  C3_5 
ROOT
ATOM      1  C3  <0> d           2.367   1.117  -0.015  0.00  0.00     0.212 C 
ATOM      2  C4  <0> d           2.769   0.863  -1.408  0.00  0.00     0.107 C 
ATOM      3  N1  <0> d           3.079   0.666  -2.483  0.00  0.00    -0.193 NA
ATOM      4  C5  <0> d           3.430   1.868   0.673  0.00  0.00     0.107 C 
ATOM      5  N2  <0> d           4.250   2.448   1.204  0.00  0.00    -0.193 NA
ATOM      6  H4  <0> d           2.205   0.167   0.496  0.00  0.00     0.132 H 
ENDROOT
BRANCH   1   7
ATOM      7  O2  <0> d           1.139   1.891   0.001  0.00  0.00    -0.287 OA
BRANCH   7   8
ATOM      8  C2  <0> d          -0.014   1.204   0.009  0.00  0.00     0.257 C 
ATOM      9  O1  <0> d           0.002  -0.004   0.002  0.00  0.00    -0.266 OA
BRANCH   8  10
ATOM     10  C1  <0> d          -1.329   1.940   0.019  0.00  0.00     0.004 C 
ATOM     11  H1  <0> d          -1.642   2.111   1.049  0.00  0.00     0.041 H 
ATOM     12  H2  <0> d          -1.214   2.897  -0.490  0.00  0.00     0.041 H 
ATOM     13  H3  <0> d          -2.083   1.343  -0.495  0.00  0.00     0.041 H 
ENDBRANCH   8  10
ENDBRANCH   7   8
ENDBRANCH   1   7
TORSDOF 3
