REMARK  7 active torsions:
REMARK  status: ('A' for Active; 'I' for Inactive)
REMARK    1  A    between atoms: C1_1  and  C2_2 
REMARK    2  A    between atoms: C2_2  and  C3_4 
REMARK    3  A    between atoms: C2_2  and  C6_7 
REMARK    4  A    between atoms: C3_4  and  C4_5 
REMARK    5  A    between atoms: C7_8  and  C8_9 
REMARK    6  A    between atoms: C7_8  and  C9_10 
REMARK    7  A    between atoms: C9_10  and  O1_11 
ROOT
ATOM      1  C2  <0> d          -0.185   0.342   0.265  0.00  0.00    -0.038 C 
ATOM      2  H1  <0> d           0.234   0.118   1.246  0.00  0.00     0.046 H 
ENDROOT
BRANCH   1   3
ATOM      3  C1  <0> d          -0.507   1.835   0.175  0.00  0.00    -0.069 C 
ATOM      4  H2  <0> d           0.406   2.413   0.320  0.00  0.00     0.028 H 
ATOM      5  H3  <0> d          -0.927   2.058  -0.806  0.00  0.00     0.028 H 
ATOM      6  H4  <0> d          -1.230   2.097   0.948  0.00  0.00     0.028 H 
ENDBRANCH   1   3
BRANCH   1   7
ATOM      7  C3  <0> d           0.829  -0.027  -0.820  0.00  0.00    -0.044 C 
ATOM      8  H5  <0> d           0.991  -1.105  -0.814  0.00  0.00     0.039 H 
ATOM      9  H6  <0> d           0.446   0.277  -1.794  0.00  0.00     0.039 H 
BRANCH   7  10
ATOM     10  C4  <0> d           2.132   0.679  -0.549  0.00  0.00    -0.111 C 
ATOM     11  C5  <0> d           3.242  -0.011  -0.451  0.00  0.00    -0.125 C 
ATOM     12  H8  <0> d           4.176   0.495  -0.257  0.00  0.00     0.066 H 
ATOM     13  H9  <0> d           3.223  -1.085  -0.563  0.00  0.00     0.066 H 
ATOM     14  H7  <0> d           2.152   1.752  -0.437  0.00  0.00     0.075 H 
ENDBRANCH   7  10
ENDBRANCH   1   7
BRANCH   1  15
ATOM     15  C6  <0> d          -1.448  -0.457   0.065  0.00  0.00    -0.095 C 
ATOM     16  C7  <0> d          -1.792  -1.368   0.941  0.00  0.00    -0.064 C 
ATOM     17  H10 <0> d          -2.068  -0.279  -0.801  0.00  0.00     0.077 H 
BRANCH  16  18
ATOM     18  C8  <0> d          -3.128  -2.055   0.828  0.00  0.00    -0.053 C 
ATOM     19  H11 <0> d          -3.027  -2.948   0.212  0.00  0.00     0.033 H 
ATOM     20  H12 <0> d          -3.477  -2.337   1.821  0.00  0.00     0.033 H 
ATOM     21  H13 <0> d          -3.848  -1.377   0.369  0.00  0.00     0.033 H 
ENDBRANCH  16  18
BRANCH  16  22
ATOM     22  C9  <0> d          -0.852  -1.728   2.063  0.00  0.00     0.036 C 
ATOM     23  H14 <0> d           0.054  -1.128   1.984  0.00  0.00     0.081 H 
ATOM     24  H15 <0> d          -1.336  -1.532   3.019  0.00  0.00     0.081 H 
BRANCH  22  25
ATOM     25  O1  <0> d          -0.515  -3.114   1.975  0.00  0.00    -0.397 OA
ATOM     26  H16 <0> d           0.088  -3.417   2.667  0.00  0.00     0.209 HD
ENDBRANCH  22  25
ENDBRANCH  16  22
ENDBRANCH   1  15
TORSDOF 7
