REMARK  3 active torsions:
REMARK  status: ('A' for Active; 'I' for Inactive)
REMARK    1  A    between atoms: C1_1  and  C2_2 
REMARK    2  A    between atoms: C6_7  and  N2_8 
REMARK    3  A    between atoms: N2_8  and  C7_9 
ROOT
ATOM      1  C2  <0> d          -2.689   1.640   2.591  0.00  0.00    -0.033 A 
ATOM      2  C3  <0> d          -4.010   1.264   2.774  0.00  0.00    -0.058 A 
ATOM      3  C4  <0> d          -4.621   0.463   1.827  0.00  0.00     0.002 A 
ATOM      4  N1  <0> d          -3.967   0.060   0.755  0.00  0.00    -0.271 NA
ATOM      5  C5  <0> d          -2.712   0.399   0.540  0.00  0.00     0.028 A 
ATOM      6  C6  <0> d          -2.029   1.201   1.445  0.00  0.00     0.051 A 
ATOM      7  H4  <0> d          -4.554   1.588   3.648  0.00  0.00     0.086 H 
ATOM      8  H5  <0> d          -5.649   0.164   1.967  0.00  0.00     0.114 H 
ATOM      9  H6  <0> d          -2.209   0.050  -0.350  0.00  0.00     0.118 H 
ENDROOT
BRANCH   6  10
ATOM     10  N2  <0> d          -0.698   1.558   1.213  0.00  0.00    -0.393 N 
ATOM     11  H7  <0> d          -0.229   2.119   1.850  0.00  0.00     0.159 HD
BRANCH  10  12
ATOM     12  C7  <0> d          -0.013   1.086   0.008  0.00  0.00    -0.021 C 
ATOM     13  H8  <0> d           0.002  -0.004   0.002  0.00  0.00     0.056 H 
ATOM     14  H9  <0> d           1.010   1.463   0.000  0.00  0.00     0.056 H 
ATOM     15  H10 <0> d          -0.540   1.447  -0.875  0.00  0.00     0.056 H 
ENDBRANCH  10  12
ENDBRANCH   6  10
BRANCH   1  16
ATOM     16  C1  <0> d          -1.986   2.507   3.603  0.00  0.00    -0.049 C 
ATOM     17  H1  <0> d          -2.129   3.556   3.345  0.00  0.00     0.033 H 
ATOM     18  H2  <0> d          -2.399   2.317   4.593  0.00  0.00     0.033 H 
ATOM     19  H3  <0> d          -0.921   2.275   3.602  0.00  0.00     0.033 H 
ENDBRANCH   1  16
TORSDOF 3
