REMARK  4 active torsions:
REMARK  status: ('A' for Active; 'I' for Inactive)
REMARK    1  A    between atoms: C1_1  and  C2_2 
REMARK    2  A    between atoms: C2_2  and  C3_3 
REMARK    3  A    between atoms: C2_2  and  C4_4 
REMARK    4  A    between atoms: C2_2  and  N1_6 
ROOT
ATOM      1  C2  <0> d           1.704   3.175   0.003  0.00  0.00     0.135 C 
ENDROOT
BRANCH   1   2
ATOM      2  C1  <0> d           3.190   3.240   0.362  0.00  0.00    -0.042 C 
ATOM      3  H1  <0> d           3.767   2.679  -0.373  0.00  0.00     0.031 H 
ATOM      4  H2  <0> d           3.518   4.279   0.365  0.00  0.00     0.031 H 
ATOM      5  H3  <0> d           3.344   2.808   1.351  0.00  0.00     0.031 H 
ENDBRANCH   1   2
BRANCH   1   6
ATOM      6  C3  <0> d           1.488   3.781  -1.385  0.00  0.00    -0.042 C 
ATOM      7  H4  <0> d           0.430   3.735  -1.641  0.00  0.00     0.031 H 
ATOM      8  H5  <0> d           1.816   4.821  -1.383  0.00  0.00     0.031 H 
ATOM      9  H6  <0> d           2.065   3.220  -2.120  0.00  0.00     0.031 H 
ENDBRANCH   1   6
BRANCH   1  10
ATOM     10  C4  <0> d           0.907   3.951   1.019  0.00  0.00     0.203 C 
ATOM     11  O1  <0> d           0.058   3.394   1.674  0.00  0.00    -0.646 OA
ATOM     12  O2  <0> d           1.140   5.261   1.198  0.00  0.00    -0.646 OA
ENDBRANCH   1  10
BRANCH   1  13
ATOM     13  N1  <0> d           1.263   1.778  -0.001  0.00  0.00    -0.261 N 
ATOM     14  N2  <0> d           2.095   0.651  -0.015  0.00  0.00    -0.184 NA
ATOM     15  C7  <0> d           1.339  -0.416  -0.013  0.00  0.00     0.023 A 
ATOM     16  C6  <0> d           0.002  -0.004   0.002  0.00  0.00    -0.048 A 
ATOM     17  H9  <0> d           1.686  -1.439  -0.022  0.00  0.00     0.117 H 
ATOM     18  C5  <0> d          -0.016   1.349   0.009  0.00  0.00     0.001 A 
ATOM     19  H8  <0> d          -0.863  -0.651   0.007  0.00  0.00     0.087 H 
ATOM     20  H7  <0> d          -0.897   1.974   0.017  0.00  0.00     0.114 H 
ENDBRANCH   1  13
TORSDOF 4
