REMARK  4 active torsions:
REMARK  status: ('A' for Active; 'I' for Inactive)
REMARK    1  A    between atoms: C1_1  and  O1_2 
REMARK    2  A    between atoms: O1_2  and  C2_3 
REMARK    3  A    between atoms: C2_3  and  N1_4 
REMARK    4  A    between atoms: N1_4  and  C3_5 
ROOT
ATOM      1  C3  <0> d          -0.017   1.393   0.010  0.00  0.00     0.029 A 
ATOM      2  C4  <0> d          -1.228   2.072   0.019  0.00  0.00    -0.058 A 
ATOM      3  C5  <0> d          -1.243   3.453   0.031  0.00  0.00    -0.081 A 
ATOM      4  C6  <0> d          -0.054   4.159   0.024  0.00  0.00    -0.083 A 
ATOM      5  C7  <0> d           1.153   3.486   0.009  0.00  0.00    -0.081 A 
ATOM      6  C8  <0> d           1.176   2.105   0.002  0.00  0.00    -0.058 A 
ATOM      7  H7  <0> d          -2.157   1.521   0.021  0.00  0.00     0.086 H 
ATOM      8  H8  <0> d          -2.185   3.982   0.042  0.00  0.00     0.083 H 
ATOM      9  H9  <0> d          -0.069   5.239   0.029  0.00  0.00     0.083 H 
ATOM     10  H10 <0> d           2.080   4.040   0.004  0.00  0.00     0.083 H 
ATOM     11  H11 <0> d           2.119   1.580  -0.010  0.00  0.00     0.086 H 
ENDROOT
BRANCH   1  12
ATOM     12  N1  <0> d           0.002  -0.004   0.002  0.00  0.00    -0.369 N 
ATOM     13  H6  <0> d           0.849  -0.478  -0.009  0.00  0.00     0.161 HD
BRANCH  12  14
ATOM     14  C2  <0> d          -1.256  -0.754   0.010  0.00  0.00     0.076 C 
ATOM     15  H4  <0> d          -1.132  -1.666   0.593  0.00  0.00     0.106 H 
ATOM     16  H5  <0> d          -2.041  -0.142   0.455  0.00  0.00     0.106 H 
BRANCH  14  17
ATOM     17  O1  <0> d          -1.619  -1.091  -1.331  0.00  0.00    -0.377 OA
BRANCH  17  18
ATOM     18  C1  <0> d          -0.923  -2.225  -1.853  0.00  0.00     0.006 C 
ATOM     19  H1  <0> d           0.149  -2.027  -1.849  0.00  0.00     0.066 H 
ATOM     20  H2  <0> d          -1.134  -3.097  -1.233  0.00  0.00     0.066 H 
ATOM     21  H3  <0> d          -1.254  -2.416  -2.873  0.00  0.00     0.066 H 
ENDBRANCH  17  18
ENDBRANCH  14  17
ENDBRANCH  12  14
ENDBRANCH   1  12
TORSDOF 4
