REMARK  1 active torsions:
REMARK  status: ('A' for Active; 'I' for Inactive)
REMARK    1  A    between atoms: C3_4  and  N3_8 
ROOT
ATOM      1  C1  <0> d          -0.013   1.076   0.008  0.00  0.00    -0.026 A 
ATOM      2  C2  <0> d          -1.213   1.767   0.017  0.00  0.00     0.024 A 
ATOM      3  N1  <0> d          -1.196   3.090   0.029  0.00  0.00    -0.075 NA
ATOM      4  C3  <0> d          -0.049   3.754   0.022  0.00  0.00     0.721 A 
ATOM      5  N2  <0> d           1.117   3.124   0.008  0.00  0.00    -0.051 NA
ATOM      6  C4  <0> d           1.171   1.801   0.001  0.00  0.00     0.146 A 
ATOM      7 Cl1  <0> d           2.702   0.984  -0.017  0.00  0.00    -0.062 Cl
ATOM      8  H1  <0> d           0.002  -0.004   0.002  0.00  0.00     0.090 H 
ATOM      9  H2  <0> d          -2.151   1.233   0.019  0.00  0.00     0.115 H 
ENDROOT
BRANCH   4  10
ATOM     10  N3  <0> d          -0.069   5.138   0.028  0.00  0.00    -0.231 N 
ATOM     11  H3  <0> d           0.764   5.635   0.023  0.00  0.00     0.174 HD
ATOM     12  H4  <0> d          -0.916   5.610   0.039  0.00  0.00     0.174 HD
ENDBRANCH   4  10
TORSDOF 1
