REMARK  2 active torsions:
REMARK  status: ('A' for Active; 'I' for Inactive)
REMARK    1  A    between atoms: C1_1  and  C2_2 
REMARK    2  A    between atoms: C2_2  and  N1_4 
ROOT
ATOM      1  N1  <0> d          -2.234   4.064   0.014  0.00  0.00    -0.219 N 
ATOM      2  C4  <0> d          -1.239   3.143   0.258  0.00  0.00     0.090 A 
ATOM      3  C5  <0> d          -1.232   1.795   0.597  0.00  0.00    -0.053 A 
ATOM      4  C6  <0> d          -0.033   1.144   0.781  0.00  0.00    -0.081 A 
ATOM      5  C7  <0> d           1.168   1.823   0.620  0.00  0.00    -0.081 A 
ATOM      6  C8  <0> d           1.183   3.144   0.282  0.00  0.00    -0.051 A 
ATOM      7  C9  <0> d          -0.024   3.831   0.095  0.00  0.00     0.109 A 
ATOM      8  N2  <0> d          -0.318   5.111  -0.235  0.00  0.00    -0.130 NA
ATOM      9  N3  <0> d          -1.593   5.274  -0.289  0.00  0.00    -0.060 NA
ATOM     10  H6  <0> d          -2.163   1.262   0.718  0.00  0.00     0.087 H 
ATOM     11  H7  <0> d          -0.026   0.098   1.048  0.00  0.00     0.083 H 
ATOM     12  H8  <0> d           2.102   1.298   0.763  0.00  0.00     0.083 H 
ATOM     13  H9  <0> d           2.124   3.660   0.159  0.00  0.00     0.087 H 
ENDROOT
BRANCH   1  14
ATOM     14  C2  <0> d          -3.609   3.837   0.059  0.00  0.00     0.025 C 
ATOM     15  C3  <0> d          -4.074   2.700   0.540  0.00  0.00    -0.099 C 
ATOM     16  H4  <0> d          -5.129   2.479   0.477  0.00  0.00     0.069 H 
ATOM     17  H5  <0> d          -3.400   1.991   0.997  0.00  0.00     0.069 H 
BRANCH  14  18
ATOM     18  C1  <0> d          -4.564   4.890  -0.441  0.00  0.00    -0.036 C 
ATOM     19  H1  <0> d          -3.999   5.752  -0.798  0.00  0.00     0.035 H 
ATOM     20  H2  <0> d          -5.159   4.482  -1.258  0.00  0.00     0.035 H 
ATOM     21  H3  <0> d          -5.223   5.198   0.370  0.00  0.00     0.035 H 
ENDBRANCH  14  18
ENDBRANCH   1  14
TORSDOF 2
