REMARK  0 active torsions:
REMARK  status: ('A' for Active; 'I' for Inactive)
ROOT
ATOM      1  C1  <0> d          -0.013   1.086   0.008  0.00  0.00     0.042 C 
ATOM      2  C2  <0> d          -0.777   1.604   1.244  0.00  0.00     0.066 C 
ATOM      3  H1  <0> d          -0.769   0.898   2.075  0.00  0.00     0.060 H 
ATOM      4  C3  <0> d          -2.202   1.861   0.673  0.00  0.00     0.066 C 
ATOM      5  H2  <0> d          -2.966   1.207   1.091  0.00  0.00     0.060 H 
ATOM      6  C4  <0> d          -2.434   3.349   1.011  0.00  0.00     0.042 C 
ATOM      7  O1  <0> d          -1.101   3.915   1.171  0.00  0.00    -0.320 OA
ATOM      8  C5  <0> d          -0.258   2.973   1.615  0.00  0.00     0.266 C 
ATOM      9  O2  <0> d           0.766   3.186   2.221  0.00  0.00    -0.265 OA
ATOM     10  C6  <0> d          -2.053   1.708  -0.823  0.00  0.00     0.266 C 
ATOM     11  O3  <0> d          -2.966   1.696  -1.615  0.00  0.00    -0.265 OA
ATOM     12  O4  <0> d          -0.756   1.588  -1.140  0.00  0.00    -0.320 OA
ATOM     13  H3  <0> d           0.002  -0.004   0.002  0.00  0.00     0.076 H 
ATOM     14  H4  <0> d           1.004   1.477   0.000  0.00  0.00     0.076 H 
ATOM     15  H5  <0> d          -2.961   3.845   0.196  0.00  0.00     0.076 H 
ATOM     16  H6  <0> d          -3.000   3.442   1.938  0.00  0.00     0.076 H 
ENDROOT
TORSDOF 0
