REMARK  6 active torsions:
REMARK  status: ('A' for Active; 'I' for Inactive)
REMARK    1  A    between atoms: C1_1  and  O1_2 
REMARK    2  A    between atoms: O1_2  and  C2_3 
REMARK    3  A    between atoms: C2_3  and  O2_4 
REMARK    4  A    between atoms: C2_3  and  O3_6 
REMARK    5  A    between atoms: O2_4  and  C3_5 
REMARK    6  A    between atoms: O3_6  and  C4_7 
ROOT
ATOM      1  C2  <0> d          -0.015   1.086   0.020  0.00  0.00     0.232 C 
ATOM      2  H4  <0> d          -0.112   0.008   0.145  0.00  0.00     0.179 H 
ENDROOT
BRANCH   1   3
ATOM      3  O1  <0> d           1.368   1.432  -0.084  0.00  0.00    -0.344 OA
BRANCH   3   4
ATOM      4  C1  <0> d           2.211   0.738   0.838  0.00  0.00     0.009 C 
ATOM      5  H1  <0> d           1.954   1.031   1.856  0.00  0.00     0.066 H 
ATOM      6  H2  <0> d           2.070  -0.336   0.722  0.00  0.00     0.066 H 
ATOM      7  H3  <0> d           3.252   0.992   0.639  0.00  0.00     0.066 H 
ENDBRANCH   3   4
ENDBRANCH   1   3
BRANCH   1   8
ATOM      8  O2  <0> d          -0.698   1.491  -1.168  0.00  0.00    -0.344 OA
BRANCH   8   9
ATOM      9  C3  <0> d          -0.486   0.624  -2.284  0.00  0.00     0.009 C 
ATOM     10  H5  <0> d          -0.970   1.044  -3.167  0.00  0.00     0.066 H 
ATOM     11  H6  <0> d           0.583   0.525  -2.469  0.00  0.00     0.066 H 
ATOM     12  H7  <0> d          -0.911  -0.356  -2.069  0.00  0.00     0.066 H 
ENDBRANCH   8   9
ENDBRANCH   1   8
BRANCH   1  13
ATOM     13  O3  <0> d          -0.588   1.750   1.149  0.00  0.00    -0.344 OA
BRANCH  13  14
ATOM     14  C4  <0> d          -0.594   3.175   1.043  0.00  0.00     0.009 C 
ATOM     15  H8  <0> d           0.418   3.529   0.851  0.00  0.00     0.066 H 
ATOM     16  H9  <0> d          -1.247   3.476   0.224  0.00  0.00     0.066 H 
ATOM     17  H10 <0> d          -0.960   3.606   1.975  0.00  0.00     0.066 H 
ENDBRANCH  13  14
ENDBRANCH   1  13
TORSDOF 6
