REMARK  2 active torsions:
REMARK  status: ('A' for Active; 'I' for Inactive)
REMARK    1  A    between atoms: C1_1  and  N1_2 
REMARK    2  A    between atoms: C3_4  and  C5_7 
ROOT
ATOM      1  C5  <0> d           0.039  -3.298  -1.561  0.00  0.00     0.041 C 
ATOM      2  C6  <0> d           1.431  -3.677  -1.857  0.00  0.00     0.063 C 
ATOM      3  N3  <0> d           2.504  -3.969  -2.085  0.00  0.00    -0.197 NA
ATOM      4  H6  <0> d          -0.461  -4.122  -1.052  0.00  0.00     0.062 H 
ATOM      5  H7  <0> d          -0.483  -3.076  -2.492  0.00  0.00     0.062 H 
ENDROOT
BRANCH   1   6
ATOM      6  C3  <0> d           0.027  -2.079  -0.676  0.00  0.00    -0.009 A 
ATOM      7  C2  <0> d           0.008  -0.792  -1.094  0.00  0.00     0.006 A 
ATOM      8  N1  <0> d           0.002  -0.004   0.002  0.00  0.00    -0.285 N 
ATOM      9  H4  <0> d          -0.002  -0.456  -2.120  0.00  0.00     0.115 H 
ATOM     10  N2  <0> d           0.025  -0.834   1.130  0.00  0.00    -0.185 NA
ATOM     11  C4  <0> d           0.034  -2.078   0.723  0.00  0.00     0.030 A 
ATOM     12  H5  <0> d           0.048  -2.952   1.357  0.00  0.00     0.118 H 
BRANCH   8  13
ATOM     13  C1  <0> d          -0.018   1.461   0.010  0.00  0.00     0.002 C 
ATOM     14  H1  <0> d           1.005   1.838   0.002  0.00  0.00     0.059 H 
ATOM     15  H2  <0> d          -0.545   1.822  -0.873  0.00  0.00     0.059 H 
ATOM     16  H3  <0> d          -0.528   1.812   0.907  0.00  0.00     0.059 H 
ENDBRANCH   8  13
ENDBRANCH   1   6
TORSDOF 2
