REMARK  2 active torsions:
REMARK  status: ('A' for Active; 'I' for Inactive)
REMARK    1  A    between atoms: C1_1  and  C2_2 
REMARK    2  A    between atoms: C2_2  and  C3_4 
ROOT
ATOM      1  C3  <0> d          -0.048   3.856   0.019  0.00  0.00     0.011 A 
ATOM      2  C4  <0> d           1.167   3.161  -0.006  0.00  0.00    -0.069 A 
ATOM      3  C5  <0> d           1.176   1.781  -0.014  0.00  0.00    -0.081 A 
ATOM      4  C6  <0> d          -0.012   1.076   0.002  0.00  0.00    -0.063 A 
ATOM      5  C7  <0> d          -1.233   1.756   0.023  0.00  0.00     0.045 A 
ATOM      6  C8  <0> d          -1.251   3.149   0.037  0.00  0.00    -0.050 A 
ATOM      7  C9  <0> d          -2.463   1.022   0.034  0.00  0.00     0.099 C 
ATOM      8  N1  <0> d          -3.438   0.440   0.043  0.00  0.00    -0.191 NA
ATOM      9  H4  <0> d           2.100   3.705  -0.019  0.00  0.00     0.085 H 
ATOM     10  H5  <0> d           2.116   1.250  -0.034  0.00  0.00     0.083 H 
ATOM     11  H6  <0> d           0.003  -0.004  -0.005  0.00  0.00     0.085 H 
ATOM     12  H7  <0> d          -2.192   3.679   0.056  0.00  0.00     0.087 H 
ENDROOT
BRANCH   1  13
ATOM     13  C2  <0> d          -0.056   5.328   0.028  0.00  0.00     0.155 C 
ATOM     14  O1  <0> d           0.988   5.939   0.115  0.00  0.00    -0.293 OA
BRANCH  13  15
ATOM     15  C1  <0> d          -1.361   6.074  -0.070  0.00  0.00    -0.017 C 
ATOM     16  H1  <0> d          -2.120   5.423  -0.050  0.00  0.00     0.038 H 
ATOM     17  H2  <0> d          -1.450   6.762   0.771  0.00  0.00     0.038 H 
ATOM     18  H3  <0> d          -1.389   6.636  -1.003  0.00  0.00     0.038 H 
ENDBRANCH  13  15
ENDBRANCH   1  13
TORSDOF 2
