REMARK  2 active torsions:
REMARK  status: ('A' for Active; 'I' for Inactive)
REMARK    1  A    between atoms: C1_1  and  C2_2 
REMARK       I    between atoms: C2_2  and  N1_4 
REMARK    2  A    between atoms: N1_4  and  C3_5 
ROOT
ATOM      1  C3  <0> d           0.002  -0.004   0.002  0.00  0.00     0.706 A 
ATOM      2  N2  <0> d          -0.016   1.356   0.009  0.00  0.00    -0.199 N 
ATOM      3  H1  <0> d          -0.828   1.939   0.020  0.00  0.00     0.183 HD
ATOM      4  C4  <0> d           1.292   1.776  -0.001  0.00  0.00     0.012 A 
ATOM      5  C5  <0> d           2.059   0.671  -0.014  0.00  0.00     0.036 A 
ATOM      6  N3  <0> d           1.252  -0.402  -0.012  0.00  0.00    -0.075 NA
ATOM      7  H6  <0> d           1.639   2.799   0.001  0.00  0.00     0.114 H 
ATOM      8  H7  <0> d           3.139   0.650  -0.024  0.00  0.00     0.117 H 
ENDROOT
BRANCH   1   9
ATOM      9  N1  <0> d          -1.114  -0.832   0.008  0.00  0.00    -0.158 N 
ATOM     10  C2  <0> d          -2.350  -0.295   0.023  0.00  0.00     0.232 C 
ATOM     11  O1  <0> d          -2.489   0.909   0.031  0.00  0.00    -0.273 OA
ATOM     12  H5  <0> d          -1.003  -1.795   0.002  0.00  0.00     0.187 HD
BRANCH  10  13
ATOM     13  C1  <0> d          -3.561  -1.193   0.030  0.00  0.00    -0.002 C 
ATOM     14  H2  <0> d          -3.240  -2.235   0.021  0.00  0.00     0.040 H 
ATOM     15  H3  <0> d          -4.150  -1.002   0.926  0.00  0.00     0.040 H 
ATOM     16  H4  <0> d          -4.167  -0.992  -0.854  0.00  0.00     0.040 H 
ENDBRANCH  10  13
ENDBRANCH   1   9
TORSDOF 2
