REMARK  4 active torsions:
REMARK  status: ('A' for Active; 'I' for Inactive)
REMARK    1  A    between atoms: C1_1  and  C2_2 
REMARK    2  A    between atoms: C2_2  and  C3_4 
REMARK    3  A    between atoms: C2_2  and  O1_11 
REMARK    4  A    between atoms: C8_9  and  N1_10 
ROOT
ATOM      1  C3  <0> d           1.216  -0.679  -0.013  0.00  0.00    -0.004 A 
ATOM      2  C4  <0> d           2.400   0.033  -0.021  0.00  0.00    -0.072 A 
ATOM      3  C5  <0> d           2.377   1.415  -0.013  0.00  0.00    -0.082 A 
ATOM      4  C6  <0> d           1.170   2.090   0.002  0.00  0.00    -0.081 A 
ATOM      5  C7  <0> d          -0.017   1.385   0.010  0.00  0.00    -0.057 A 
ATOM      6  C8  <0> d           0.002  -0.004   0.002  0.00  0.00     0.034 A 
ATOM      7  H5  <0> d           3.344  -0.492  -0.032  0.00  0.00     0.084 H 
ATOM      8  H6  <0> d           3.305   1.969  -0.019  0.00  0.00     0.083 H 
ATOM      9  H7  <0> d           1.157   3.170   0.008  0.00  0.00     0.083 H 
ATOM     10  H8  <0> d          -0.959   1.913   0.017  0.00  0.00     0.086 H 
ENDROOT
BRANCH   1  11
ATOM     11  C2  <0> d           1.241  -2.186  -0.021  0.00  0.00     0.059 C 
ATOM     12  H1  <0> d           0.411  -2.566   0.575  0.00  0.00     0.090 H 
BRANCH  11  13
ATOM     13  C1  <0> d           1.110  -2.691  -1.459  0.00  0.00    -0.049 C 
ATOM     14  H2  <0> d           1.940  -2.310  -2.055  0.00  0.00     0.031 H 
ATOM     15  H3  <0> d           1.129  -3.780  -1.465  0.00  0.00     0.031 H 
ATOM     16  H4  <0> d           0.169  -2.341  -1.883  0.00  0.00     0.031 H 
ENDBRANCH  11  13
BRANCH  11  17
ATOM     17  O1  <0> d           2.476  -2.644   0.534  0.00  0.00    -0.391 OA
ATOM     18  H11 <0> d           2.561  -3.607   0.561  0.00  0.00     0.210 HD
ENDBRANCH  11  17
ENDBRANCH   1  11
BRANCH   6  19
ATOM     19  N1  <0> d          -1.197  -0.720   0.010  0.00  0.00    -0.399 N 
ATOM     20  H9  <0> d          -2.044  -0.248   0.021  0.00  0.00     0.156 HD
ATOM     21  H10 <0> d          -1.183  -1.690   0.005  0.00  0.00     0.156 HD
ENDBRANCH   6  19
TORSDOF 4
