REMARK  3 active torsions:
REMARK  status: ('A' for Active; 'I' for Inactive)
REMARK    1  A    between atoms: C1_1  and  C2_2 
REMARK    2  A    between atoms: C2_2  and  C3_3 
REMARK    3  A    between atoms: C6_8  and  C7_9 
ROOT
ATOM      1  C3  <0> d           0.707  -0.490  -1.238  0.00  0.00    -0.036 A 
ATOM      2  C4  <0> d           0.124  -0.842  -2.402  0.00  0.00    -0.017 A 
ATOM      3  N1  <0> d           1.103  -1.223  -3.271  0.00  0.00    -0.374 N 
ATOM      4  H1  <0> d           0.964  -1.524  -4.182  0.00  0.00     0.164 HD
ATOM      5  C5  <0> d           2.311  -1.110  -2.647  0.00  0.00    -0.017 A 
ATOM      6  C6  <0> d           2.098  -0.655  -1.396  0.00  0.00    -0.039 A 
ATOM      7  H7  <0> d          -0.935  -0.824  -2.610  0.00  0.00     0.112 H 
ATOM      8  H8  <0> d           3.272  -1.341  -3.082  0.00  0.00     0.112 H 
ENDROOT
BRANCH   1   9
ATOM      9  C2  <0> d           0.002  -0.004   0.002  0.00  0.00    -0.043 C 
ATOM     10  H5  <0> d           0.529  -0.365   0.885  0.00  0.00     0.039 H 
ATOM     11  H6  <0> d          -1.020  -0.381   0.010  0.00  0.00     0.039 H 
BRANCH   9  12
ATOM     12  C1  <0> d          -0.019   1.526   0.010  0.00  0.00    -0.073 C 
ATOM     13  H2  <0> d           1.004   1.903   0.003  0.00  0.00     0.028 H 
ATOM     14  H3  <0> d          -0.546   1.887  -0.873  0.00  0.00     0.028 H 
ATOM     15  H4  <0> d          -0.529   1.877   0.907  0.00  0.00     0.028 H 
ENDBRANCH   9  12
ENDBRANCH   1   9
BRANCH   6  16
ATOM     16  C7  <0> d           3.153  -0.377  -0.356  0.00  0.00    -0.049 C 
ATOM     17  H9  <0> d           3.330  -1.278   0.231  0.00  0.00     0.033 H 
ATOM     18  H10 <0> d           4.077  -0.076  -0.849  0.00  0.00     0.033 H 
ATOM     19  H11 <0> d           2.813   0.424   0.301  0.00  0.00     0.033 H 
ENDBRANCH   6  16
TORSDOF 3
