REMARK  4 active torsions:
REMARK  status: ('A' for Active; 'I' for Inactive)
REMARK    1  A    between atoms: C1_1  and  C2_2 
REMARK    2  A    between atoms: C3_3  and  C8_11 
REMARK    3  A    between atoms: C5_7  and  C6_8 
REMARK    4  A    between atoms: C6_8  and  C7_10 
ROOT
ATOM      1  C2  <0> d           0.002  -0.004   0.002  0.00  0.00    -0.025 A 
ATOM      2  C3  <0> d           0.009  -0.803  -1.078  0.00  0.00     0.012 A 
ATOM      3  N1  <0> d           0.028  -2.106  -0.671  0.00  0.00    -0.368 N 
ATOM      4  H1  <0> d           0.036  -2.872  -1.267  0.00  0.00     0.165 HD
ATOM      5  C4  <0> d           0.034  -2.179   0.672  0.00  0.00    -0.009 A 
ATOM      6  C5  <0> d           0.025  -0.891   1.173  0.00  0.00     0.032 A 
ATOM      7  H5  <0> d           0.049  -3.086   1.257  0.00  0.00     0.112 H 
ENDROOT
BRANCH   6   8
ATOM      8  C6  <0> d           0.034  -0.492   2.582  0.00  0.00     0.157 C 
ATOM      9  O1  <0> d           0.021   0.684   2.880  0.00  0.00    -0.293 OA
BRANCH   8  10
ATOM     10  C7  <0> d           0.058  -1.542   3.663  0.00  0.00    -0.017 C 
ATOM     11  H6  <0> d           0.067  -2.532   3.207  0.00  0.00     0.038 H 
ATOM     12  H7  <0> d           0.952  -1.415   4.273  0.00  0.00     0.038 H 
ATOM     13  H8  <0> d          -0.827  -1.439   4.290  0.00  0.00     0.038 H 
ENDBRANCH   8  10
ENDBRANCH   6   8
BRANCH   1  14
ATOM     14  C1  <0> d          -0.018   1.503   0.010  0.00  0.00    -0.048 C 
ATOM     15  H2  <0> d           1.004   1.880   0.003  0.00  0.00     0.033 H 
ATOM     16  H3  <0> d          -0.545   1.864  -0.873  0.00  0.00     0.033 H 
ATOM     17  H4  <0> d          -0.529   1.854   0.907  0.00  0.00     0.033 H 
ENDBRANCH   1  14
BRANCH   2  18
ATOM     18  C8  <0> d          -0.004  -0.336  -2.510  0.00  0.00    -0.037 C 
ATOM     19  H9  <0> d           1.020  -0.209  -2.860  0.00  0.00     0.035 H 
ATOM     20  H10 <0> d          -0.510  -1.076  -3.130  0.00  0.00     0.035 H 
ATOM     21  H11 <0> d          -0.532   0.616  -2.578  0.00  0.00     0.035 H 
ENDBRANCH   2  18
TORSDOF 4
