REMARK  5 active torsions:
REMARK  status: ('A' for Active; 'I' for Inactive)
REMARK    1  A    between atoms: C1_1  and  C2_2 
REMARK    2  A    between atoms: C2_2  and  C3_4 
REMARK    3  A    between atoms: C2_2  and  C10_11 
REMARK    4  A    between atoms: C3_4  and  C4_5 
REMARK    5  A    between atoms: C10_11  and  O1_12 
ROOT
ATOM      1  C3  <0> d          -1.433  -0.534   0.013  0.00  0.00    -0.036 C 
ATOM      2  H5  <0> d          -1.986  -0.102  -0.821  0.00  0.00     0.040 H 
ATOM      3  H6  <0> d          -1.421  -1.619  -0.083  0.00  0.00     0.040 H 
ENDROOT
BRANCH   1   4
ATOM      4  C2  <0> d           0.002  -0.004   0.002  0.00  0.00    -0.033 C 
ATOM      5  H1  <0> d           0.529  -0.365   0.885  0.00  0.00     0.043 H 
BRANCH   4   6
ATOM      6  C1  <0> d          -0.019   1.526   0.010  0.00  0.00    -0.071 C 
ATOM      7  H2  <0> d           1.004   1.903   0.003  0.00  0.00     0.028 H 
ATOM      8  H3  <0> d          -0.546   1.887  -0.873  0.00  0.00     0.028 H 
ATOM      9  H4  <0> d          -0.529   1.877   0.907  0.00  0.00     0.028 H 
ENDBRANCH   4   6
BRANCH   4  10
ATOM     10  C10 <0> d           0.718  -0.497  -1.257  0.00  0.00     0.020 C 
ATOM     11  H12 <0> d           0.656  -1.585  -1.308  0.00  0.00     0.074 H 
ATOM     12  H13 <0> d           0.244  -0.064  -2.138  0.00  0.00     0.074 H 
BRANCH  10  13
ATOM     13  O1  <0> d           2.090  -0.101  -1.210  0.00  0.00    -0.400 OA
ATOM     14  H14 <0> d           2.607  -0.381  -1.979  0.00  0.00     0.209 HD
ENDBRANCH  10  13
ENDBRANCH   4  10
ENDBRANCH   1   4
BRANCH   1  15
ATOM     15  C4  <0> d          -2.100  -0.151   1.309  0.00  0.00    -0.058 A 
ATOM     16  C9  <0> d          -2.786   1.045   1.407  0.00  0.00    -0.077 A 
ATOM     17  C8  <0> d          -3.398   1.396   2.596  0.00  0.00    -0.082 A 
ATOM     18  H11 <0> d          -2.845   1.705   0.554  0.00  0.00     0.084 H 
ATOM     19  C7  <0> d          -3.324   0.550   3.687  0.00  0.00    -0.083 A 
ATOM     20  H10 <0> d          -3.934   2.330   2.672  0.00  0.00     0.083 H 
ATOM     21  C6  <0> d          -2.638  -0.646   3.589  0.00  0.00    -0.082 A 
ATOM     22  H9  <0> d          -3.802   0.824   4.615  0.00  0.00     0.083 H 
ATOM     23  C5  <0> d          -2.030  -0.999   2.399  0.00  0.00    -0.077 A 
ATOM     24  H8  <0> d          -2.580  -1.306   4.442  0.00  0.00     0.083 H 
ATOM     25  H7  <0> d          -1.498  -1.935   2.321  0.00  0.00     0.084 H 
ENDBRANCH   1  15
TORSDOF 5
