REMARK  2 active torsions:
REMARK  status: ('A' for Active; 'I' for Inactive)
REMARK    1  A    between atoms: C3_3  and  C5_6 
REMARK    2  A    between atoms: C5_6  and  N1_7 
REMARK       I    between atoms: N1_7  and  C6_8 
REMARK       I    between atoms: C6_8  and  N2_10 
ROOT
ATOM      1  C5  <0> d           3.761   1.845  -0.024  0.00  0.00     0.026 C 
ATOM      2  H4  <0> d           4.399   1.133  -0.548  0.00  0.00     0.072 H 
ATOM      3  H5  <0> d           3.797   2.808  -0.534  0.00  0.00     0.072 H 
ENDROOT
BRANCH   1   4
ATOM      4  C3  <0> d           2.343   1.336  -0.013  0.00  0.00     0.000 A 
ATOM      5  C2  <0> d           1.183   2.038   0.002  0.00  0.00    -0.068 A 
ATOM      6  C1  <0> d          -0.016   1.351   0.009  0.00  0.00    -0.076 A 
ATOM      7  H2  <0> d           1.197   3.118   0.007  0.00  0.00     0.085 H 
ATOM      8  C4  <0> d           0.002  -0.004   0.002  0.00  0.00    -0.044 A 
ATOM      9  H1  <0> d          -0.954   1.887   0.026  0.00  0.00     0.084 H 
ATOM     10  S1  <0> d           1.754  -0.349  -0.017  0.00  0.00    -0.105 SA
ATOM     11  H3  <0> d          -0.828  -0.696   0.006  0.00  0.00     0.095 H 
ENDBRANCH   1   4
BRANCH   1  12
ATOM     12  N1  <0> d           4.234   2.004   1.353  0.00  0.00    -0.339 N 
ATOM     13  C6  <0> d           5.483   2.450   1.589  0.00  0.00     0.314 C 
ATOM     14  O1  <0> d           6.218   2.722   0.659  0.00  0.00    -0.248 OA
ATOM     15  N2  <0> d           5.918   2.596   2.857  0.00  0.00    -0.352 N 
ATOM     16  H7  <0> d           5.332   2.379   3.599  0.00  0.00     0.160 HD
ATOM     17  H8  <0> d           6.817   2.917   3.027  0.00  0.00     0.160 HD
ATOM     18  H6  <0> d           3.648   1.787   2.095  0.00  0.00     0.164 HD
ENDBRANCH   1  12
TORSDOF 2
