REMARK  1 active torsions:
REMARK  status: ('A' for Active; 'I' for Inactive)
REMARK    1  A    between atoms: C4_8  and  N3_9 
ROOT
ATOM      1  C1  <0> d          -0.017   1.406   0.010  0.00  0.00    -0.024 A 
ATOM      2  C2  <0> d           1.159   2.078   0.002  0.00  0.00    -0.015 A 
ATOM      3  N1  <0> d           2.327   1.377  -0.013  0.00  0.00    -0.317 N 
ATOM      4  H1  <0> d           3.174   1.850  -0.018  0.00  0.00     0.170 HD
ATOM      5  C3  <0> d           2.312   0.031  -0.020  0.00  0.00     0.347 A 
ATOM      6  O1  <0> d           3.368  -0.580  -0.033  0.00  0.00    -0.245 OA
ATOM      7  N2  <0> d           1.164  -0.644  -0.013  0.00  0.00    -0.177 NA
ATOM      8  C4  <0> d           0.002  -0.004   0.002  0.00  0.00     0.128 A 
ATOM      9  H2  <0> d          -0.955   1.941   0.026  0.00  0.00     0.091 H 
ATOM     10  H3  <0> d           1.170   3.158   0.007  0.00  0.00     0.111 H 
ENDROOT
BRANCH   8  11
ATOM     11  N3  <0> d          -1.177  -0.712   0.009  0.00  0.00    -0.384 N 
ATOM     12  H4  <0> d          -2.026  -0.241   0.020  0.00  0.00     0.157 HD
ATOM     13  H5  <0> d          -1.161  -1.682   0.004  0.00  0.00     0.157 HD
ENDBRANCH   8  11
TORSDOF 1
