REMARK  1 active torsions:
REMARK  status: ('A' for Active; 'I' for Inactive)
REMARK    1  A    between atoms: C1_1  and  C2_2 
ROOT
ATOM      1  C2  <0> d          -0.810   1.621   1.224  0.00  0.00     0.145 C 
ATOM      2  C3  <0> d          -0.013   1.086   0.008  0.00  0.00    -0.022 C 
ATOM      3  C4  <0> d          -0.833   1.634  -1.185  0.00  0.00    -0.042 C 
ATOM      4  C5  <0> d          -2.223   1.924  -0.587  0.00  0.00     0.022 C 
ATOM      5  O1  <0> d          -2.186   1.524   0.793  0.00  0.00    -0.366 OA
ATOM      6  C6  <0> d          -0.452   3.022   1.503  0.00  0.00     0.097 C 
ATOM      7  N1  <0> d          -0.176   4.103   1.718  0.00  0.00    -0.194 NA
ATOM      8  H4  <0> d           0.002  -0.004   0.002  0.00  0.00     0.039 H 
ATOM      9  H5  <0> d           1.001   1.487   0.001  0.00  0.00     0.039 H 
ATOM     10  H6  <0> d          -0.383   2.550  -1.568  0.00  0.00     0.036 H 
ATOM     11  H7  <0> d          -0.905   0.885  -1.974  0.00  0.00     0.036 H 
ATOM     12  H8  <0> d          -2.442   2.990  -0.659  0.00  0.00     0.074 H 
ATOM     13  H9  <0> d          -2.982   1.351  -1.119  0.00  0.00     0.074 H 
ENDROOT
BRANCH   1  14
ATOM     14  C1  <0> d          -0.568   0.746   2.455  0.00  0.00    -0.035 C 
ATOM     15  H1  <0> d           0.494   0.751   2.700  0.00  0.00     0.033 H 
ATOM     16  H2  <0> d          -1.136   1.139   3.298  0.00  0.00     0.033 H 
ATOM     17  H3  <0> d          -0.888  -0.274   2.245  0.00  0.00     0.033 H 
ENDBRANCH   1  14
TORSDOF 1
