REMARK  1 active torsions:
REMARK  status: ('A' for Active; 'I' for Inactive)
REMARK    1  A    between atoms: C3_4  and  N3_7 
ROOT
ATOM      1  C1  <0> d          -0.016   1.317   0.009  0.00  0.00     0.040 A 
ATOM      2  C2  <0> d           1.181   2.031   0.002  0.00  0.00     0.156 A 
ATOM      3  N1  <0> d           2.343   1.380  -0.013  0.00  0.00    -0.218 NA
ATOM      4  C3  <0> d           2.355   0.056  -0.020  0.00  0.00     0.140 A 
ATOM      5  C4  <0> d           1.152  -0.652  -0.013  0.00  0.00     0.045 A 
ATOM      6  N2  <0> d           0.002  -0.004   0.002  0.00  0.00    -0.266 NA
ATOM      7  C5  <0> d           1.162   3.463   0.009  0.00  0.00     0.121 C 
ATOM      8  N4  <0> d           1.147   4.599   0.015  0.00  0.00    -0.190 NA
ATOM      9  H1  <0> d          -0.959   1.844   0.026  0.00  0.00     0.119 H 
ATOM     10  H2  <0> d           1.162  -1.732  -0.019  0.00  0.00     0.120 H 
ENDROOT
BRANCH   4  11
ATOM     11  N3  <0> d           3.564  -0.629  -0.036  0.00  0.00    -0.383 N 
ATOM     12  H3  <0> d           4.400  -0.137  -0.042  0.00  0.00     0.157 HD
ATOM     13  H4  <0> d           3.572  -1.599  -0.041  0.00  0.00     0.157 HD
ENDBRANCH   4  11
TORSDOF 1
