REMARK  2 active torsions:
REMARK  status: ('A' for Active; 'I' for Inactive)
REMARK    1  A    between atoms: C1_1  and  C2_2 
REMARK    2  A    between atoms: C5_5  and  C6_8 
ROOT
ATOM      1  C2  <0> d           0.002  -0.004   0.002  0.00  0.00     0.039 A 
ATOM      2  C3  <0> d           0.008  -0.789  -1.095  0.00  0.00    -0.057 A 
ATOM      3  C4  <0> d           0.029  -2.127  -0.656  0.00  0.00    -0.057 A 
ATOM      4  C5  <0> d           0.035  -2.110   0.693  0.00  0.00     0.039 A 
ATOM      5  N1  <0> d           0.024  -0.809   1.102  0.00  0.00    -0.198 N 
ATOM      6  O1  <0> d           0.029  -0.368   2.447  0.00  0.00    -0.081 OA
ATOM      7  H4  <0> d          -0.001  -0.453  -2.121  0.00  0.00     0.086 H 
ATOM      8  H5  <0> d           0.039  -3.006  -1.284  0.00  0.00     0.086 H 
ENDROOT
BRANCH   1   9
ATOM      9  C1  <0> d          -0.018   1.503   0.010  0.00  0.00    -0.035 C 
ATOM     10  H1  <0> d           1.004   1.880   0.003  0.00  0.00     0.035 H 
ATOM     11  H2  <0> d          -0.545   1.864  -0.873  0.00  0.00     0.035 H 
ATOM     12  H3  <0> d          -0.529   1.854   0.907  0.00  0.00     0.035 H 
ENDBRANCH   1   9
BRANCH   4  13
ATOM     13  C6  <0> d           0.055  -3.319   1.592  0.00  0.00    -0.035 C 
ATOM     14  H6  <0> d           1.087  -3.596   1.804  0.00  0.00     0.035 H 
ATOM     15  H7  <0> d          -0.458  -3.086   2.525  0.00  0.00     0.035 H 
ATOM     16  H8  <0> d          -0.450  -4.148   1.097  0.00  0.00     0.035 H 
ENDBRANCH   4  13
TORSDOF 2
