REMARK  0 active torsions:
REMARK  status: ('A' for Active; 'I' for Inactive)
ROOT
ATOM      1  C1  <0> d          -0.016   1.351   0.009  0.00  0.00     0.069 A 
ATOM      2  N1  <0> d           1.081   2.057   0.003  0.00  0.00    -0.224 NA
ATOM      3  C2  <0> d           2.285   1.468  -0.012  0.00  0.00     0.165 A 
ATOM      4  C3  <0> d           2.368   0.083  -0.020  0.00  0.00     0.151 A 
ATOM      5  C4  <0> d           1.179  -0.668  -0.012  0.00  0.00     0.277 A 
ATOM      6  N2  <0> d           0.002  -0.004   0.002  0.00  0.00    -0.316 N 
ATOM      7  O1  <0> d           1.210  -1.888  -0.019  0.00  0.00    -0.266 OA
ATOM      8  N3  <0> d           3.723  -0.245  -0.035  0.00  0.00    -0.301 N 
ATOM      9  C5  <0> d           4.427   0.904  -0.036  0.00  0.00     0.326 A 
ATOM     10  N4  <0> d           3.578   1.949  -0.022  0.00  0.00    -0.291 N 
ATOM     11  H1  <0> d           3.833   2.885  -0.020  0.00  0.00     0.172 HD
ATOM     12  O2  <0> d           5.641   0.984  -0.047  0.00  0.00    -0.247 OA
ATOM     13  H2  <0> d          -0.968   1.862   0.026  0.00  0.00     0.143 H 
ATOM     14  H3  <0> d           4.093  -1.142  -0.043  0.00  0.00     0.171 HD
ATOM     15  H4  <0> d          -0.832  -0.499   0.007  0.00  0.00     0.170 HD
ENDROOT
TORSDOF 0
