REMARK  0 active torsions:
REMARK  status: ('A' for Active; 'I' for Inactive)
ROOT
ATOM      1  C1  <0> d          -0.017   1.381   0.010  0.00  0.00    -0.043 A 
ATOM      2  C2  <0> d           1.181   2.079   0.002  0.00  0.00     0.006 A 
ATOM      3  N1  <0> d           2.338   1.454  -0.013  0.00  0.00    -0.239 NA
ATOM      4  C3  <0> d           2.413   0.125  -0.020  0.00  0.00     0.179 A 
ATOM      5  C4  <0> d           1.236  -0.644  -0.013  0.00  0.00     0.103 A 
ATOM      6  C5  <0> d           0.002  -0.004   0.002  0.00  0.00     0.066 A 
ATOM      7 Cl1  <0> d          -1.475  -0.916   0.011  0.00  0.00    -0.082 Cl
ATOM      8  N2  <0> d           1.639  -1.964  -0.025  0.00  0.00    -0.346 N 
ATOM      9  H1  <0> d           1.060  -2.742  -0.023  0.00  0.00     0.167 HD
ATOM     10  C6  <0> d           2.998  -1.970  -0.038  0.00  0.00     0.067 A 
ATOM     11  N3  <0> d           3.450  -0.749  -0.035  0.00  0.00    -0.222 NA
ATOM     12  H2  <0> d          -0.957   1.913   0.026  0.00  0.00     0.088 H 
ATOM     13  H3  <0> d           1.163   3.159   0.008  0.00  0.00     0.114 H 
ATOM     14  H4  <0> d           3.613  -2.857  -0.049  0.00  0.00     0.143 H 
ENDROOT
TORSDOF 0
