REMARK  4 active torsions:
REMARK  status: ('A' for Active; 'I' for Inactive)
REMARK    1  A    between atoms: C1_1  and  C2_2 
REMARK    2  A    between atoms: C2_2  and  C3_3 
REMARK    3  A    between atoms: C2_2  and  S1_4 
REMARK    4  A    between atoms: S1_4  and  C4_5 
ROOT
ATOM      1  C4  <0> d          -0.055   3.838   0.013  0.00  0.00     0.000 A 
ATOM      2  C5  <0> d           1.133   3.152   0.233  0.00  0.00    -0.067 A 
ATOM      3  C6  <0> d           1.145   1.772   0.218  0.00  0.00    -0.082 A 
ATOM      4  C7  <0> d          -0.025   1.071  -0.014  0.00  0.00    -0.083 A 
ATOM      5  C8  <0> d          -1.208   1.750  -0.239  0.00  0.00    -0.082 A 
ATOM      6  C9  <0> d          -1.229   3.130  -0.220  0.00  0.00    -0.067 A 
ATOM      7  H8  <0> d           2.047   3.699   0.414  0.00  0.00     0.085 H 
ATOM      8  H9  <0> d           2.068   1.238   0.389  0.00  0.00     0.083 H 
ATOM      9  H10 <0> d          -0.013  -0.009  -0.025  0.00  0.00     0.083 H 
ATOM     10  H11 <0> d          -2.119   1.199  -0.425  0.00  0.00     0.083 H 
ATOM     11  H12 <0> d          -2.154   3.660  -0.392  0.00  0.00     0.085 H 
ENDROOT
BRANCH   1  12
ATOM     12  S1  <0> d          -0.075   5.600   0.030  0.00  0.00    -0.126 SA
BRANCH  12  13
ATOM     13  C2  <0> d          -1.835   6.020  -0.102  0.00  0.00    -0.011 C 
ATOM     14  H4  <0> d          -2.276   5.479  -0.939  0.00  0.00     0.056 H 
BRANCH  13  15
ATOM     15  C1  <0> d          -2.551   5.630   1.192  0.00  0.00    -0.064 C 
ATOM     16  H1  <0> d          -2.178   6.242   2.013  0.00  0.00     0.028 H 
ATOM     17  H2  <0> d          -3.623   5.790   1.077  0.00  0.00     0.028 H 
ATOM     18  H3  <0> d          -2.362   4.578   1.409  0.00  0.00     0.028 H 
ENDBRANCH  13  15
BRANCH  13  19
ATOM     19  C3  <0> d          -1.983   7.525  -0.333  0.00  0.00    -0.064 C 
ATOM     20  H5  <0> d          -1.617   8.065   0.541  0.00  0.00     0.028 H 
ATOM     21  H6  <0> d          -1.405   7.817  -1.209  0.00  0.00     0.028 H 
ATOM     22  H7  <0> d          -3.034   7.766  -0.494  0.00  0.00     0.028 H 
ENDBRANCH  13  19
ENDBRANCH  12  13
ENDBRANCH   1  12
TORSDOF 4
