REMARK  2 active torsions:
REMARK  status: ('A' for Active; 'I' for Inactive)
REMARK    1  A    between atoms: C1_1  and  C2_2 
REMARK    2  A    between atoms: C4_4  and  C5_7 
ROOT
ATOM      1  C2  <0> d          -1.657   2.746   2.888  0.00  0.00     0.081 A 
ATOM      2  C3  <0> d          -0.932   2.878   1.615  0.00  0.00     0.102 A 
ATOM      3  C4  <0> d          -0.718   1.572   1.248  0.00  0.00     0.097 A 
ATOM      4  O1  <0> d          -1.254   0.818   2.212  0.00  0.00    -0.216 OA
ATOM      5  N1  <0> d          -1.760   1.466   3.095  0.00  0.00    -0.132 NA
ATOM      6  C6  <0> d          -0.548   4.073   0.926  0.00  0.00     0.104 C 
ATOM      7  N2  <0> d          -0.243   5.021   0.379  0.00  0.00    -0.191 NA
ENDROOT
BRANCH   1   8
ATOM      8  C1  <0> d          -2.166   3.858   3.769  0.00  0.00    -0.032 C 
ATOM      9  H1  <0> d          -1.394   4.136   4.486  0.00  0.00     0.035 H 
ATOM     10  H2  <0> d          -2.419   4.722   3.154  0.00  0.00     0.035 H 
ATOM     11  H3  <0> d          -3.054   3.520   4.303  0.00  0.00     0.035 H 
ENDBRANCH   1   8
BRANCH   3  12
ATOM     12  C5  <0> d          -0.013   1.086   0.008  0.00  0.00    -0.028 C 
ATOM     13  H4  <0> d           0.002  -0.004   0.002  0.00  0.00     0.036 H 
ATOM     14  H5  <0> d           1.010   1.463   0.000  0.00  0.00     0.036 H 
ATOM     15  H6  <0> d          -0.540   1.447  -0.875  0.00  0.00     0.036 H 
ENDBRANCH   3  12
TORSDOF 2
