REMARK  6 active torsions:
REMARK  status: ('A' for Active; 'I' for Inactive)
REMARK    1  A    between atoms: C1_1  and  C2_2 
REMARK    2  A    between atoms: C2_2  and  C3_3 
REMARK    3  A    between atoms: C3_3  and  C4_4 
REMARK    4  A    between atoms: C3_3  and  N1_6 
REMARK    5  A    between atoms: C4_4  and  C5_5 
REMARK    6  A    between atoms: C8_9  and  N3_11 
ROOT
ATOM      1  C3  <0> d          -1.397  -0.611  -0.022  0.00  0.00     0.033 C 
ATOM      2  H6  <0> d          -1.963  -0.103   0.758  0.00  0.00     0.075 H 
ENDROOT
BRANCH   1   3
ATOM      3  C2  <0> d           0.039  -0.082  -0.036  0.00  0.00    -0.048 C 
ATOM      4  H4  <0> d           0.036   0.968  -0.330  0.00  0.00     0.035 H 
ATOM      5  H5  <0> d           0.631  -0.657  -0.748  0.00  0.00     0.035 H 
BRANCH   3   6
ATOM      6  C1  <0> d           0.647  -0.219   1.361  0.00  0.00    -0.075 C 
ATOM      7  H1  <0> d           1.659   0.187   1.358  0.00  0.00     0.027 H 
ATOM      8  H2  <0> d           0.037   0.331   2.078  0.00  0.00     0.027 H 
ATOM      9  H3  <0> d           0.678  -1.271   1.642  0.00  0.00     0.027 H 
ENDBRANCH   3   6
ENDBRANCH   1   3
BRANCH   1  10
ATOM     10  C4  <0> d          -2.050  -0.348  -1.381  0.00  0.00    -0.048 C 
ATOM     11  H7  <0> d          -1.982   0.713  -1.618  0.00  0.00     0.035 H 
ATOM     12  H8  <0> d          -1.537  -0.926  -2.149  0.00  0.00     0.035 H 
BRANCH  10  13
ATOM     13  C5  <0> d          -3.522  -0.765  -1.327  0.00  0.00    -0.075 C 
ATOM     14  H9  <0> d          -4.009  -0.271  -0.487  0.00  0.00     0.027 H 
ATOM     15  H10 <0> d          -4.015  -0.475  -2.255  0.00  0.00     0.027 H 
ATOM     16  H11 <0> d          -3.589  -1.846  -1.202  0.00  0.00     0.027 H 
ENDBRANCH  10  13
ENDBRANCH   1  10
BRANCH   1  17
ATOM     17  N1  <0> d          -1.383  -2.051   0.243  0.00  0.00    -0.274 N 
ATOM     18  N2  <0> d          -1.538  -2.659   1.496  0.00  0.00    -0.155 NA
ATOM     19  C8  <0> d          -1.472  -3.959   1.331  0.00  0.00     0.142 A 
ATOM     20  C7  <0> d          -1.264  -4.215  -0.034  0.00  0.00    -0.021 A 
ATOM     21  C6  <0> d          -1.214  -3.025  -0.676  0.00  0.00     0.003 A 
ATOM     22  H13 <0> d          -1.163  -5.188  -0.490  0.00  0.00     0.091 H 
ATOM     23  H12 <0> d          -1.066  -2.881  -1.736  0.00  0.00     0.114 H 
BRANCH  19  24
ATOM     24  N3  <0> d          -1.584  -4.922   2.341  0.00  0.00    -0.383 N 
ATOM     25  H14 <0> d          -1.518  -5.865   2.121  0.00  0.00     0.157 HD
ATOM     26  H15 <0> d          -1.728  -4.647   3.260  0.00  0.00     0.157 HD
ENDBRANCH  19  24
ENDBRANCH   1  17
TORSDOF 6
