REMARK  1 active torsions:
REMARK  status: ('A' for Active; 'I' for Inactive)
REMARK    1  A    between atoms: C3_3  and  C5_7 
ROOT
ATOM      1  C5  <0> d           1.733   3.231   0.002  0.00  0.00     0.008 A 
ATOM      2  C6  <0> d           3.099   3.536  -0.003  0.00  0.00    -0.068 A 
ATOM      3  C7  <0> d           3.473   4.868  -0.006  0.00  0.00    -0.065 A 
ATOM      4  C8  <0> d           2.495   5.846   0.008  0.00  0.00     0.002 A 
ATOM      5  N2  <0> d           1.215   5.529   0.019  0.00  0.00    -0.272 NA
ATOM      6  C9  <0> d           0.809   4.276   0.016  0.00  0.00     0.014 A 
ATOM      7  H5  <0> d           3.842   2.752  -0.009  0.00  0.00     0.085 H 
ATOM      8  H6  <0> d           4.518   5.142  -0.014  0.00  0.00     0.085 H 
ATOM      9  H7  <0> d           2.784   6.887   0.010  0.00  0.00     0.114 H 
ATOM     10  H8  <0> d          -0.248   4.055   0.025  0.00  0.00     0.116 H 
ENDROOT
BRANCH   1  11
ATOM     11  C3  <0> d           1.278   1.824  -0.000  0.00  0.00     0.043 A 
ATOM     12  C2  <0> d          -0.017   1.400   0.010  0.00  0.00    -0.055 A 
ATOM     13  C1  <0> d           0.002  -0.004   0.002  0.00  0.00    -0.066 A 
ATOM     14  H3  <0> d          -0.896   2.028   0.018  0.00  0.00     0.087 H 
ATOM     15  C4  <0> d           1.294  -0.397  -0.012  0.00  0.00    -0.022 A 
ATOM     16  H2  <0> d          -0.861  -0.653   0.006  0.00  0.00     0.085 H 
ATOM     17  N1  <0> d           2.084   0.714  -0.014  0.00  0.00    -0.365 N 
ATOM     18  H4  <0> d           1.643  -1.419  -0.021  0.00  0.00     0.111 H 
ATOM     19  H1  <0> d           3.054   0.720  -0.024  0.00  0.00     0.165 HD
ENDBRANCH   1  11
TORSDOF 1
