REMARK  0 active torsions:
REMARK  status: ('A' for Active; 'I' for Inactive)
ROOT
ATOM      1  C1  <0> d          -0.019   1.547   0.011  0.00  0.00    -0.064 C 
ATOM      2  C2  <0> d           1.490   1.908  -0.002  0.00  0.00    -0.061 C 
ATOM      3  C3  <0> d           2.143   0.847   0.895  0.00  0.00    -0.046 C 
ATOM      4  H1  <0> d           2.331   1.234   1.906  0.00  0.00     0.041 H 
ATOM      5  C4  <0> d           1.172  -0.365   0.931  0.00  0.00    -0.040 C 
ATOM      6  H2  <0> d           0.833  -0.581   1.950  0.00  0.00     0.041 H 
ATOM      7  C5  <0> d           0.002  -0.004   0.002  0.00  0.00    -0.061 C 
ATOM      8  C6  <0> d           1.994  -1.539   0.331  0.00  0.00     0.008 C 
ATOM      9  H3  <0> d           1.646  -2.543   0.573  0.00  0.00     0.052 H 
ATOM     10  C7  <0> d           3.434  -1.171   0.846  0.00  0.00    -0.051 C 
ATOM     11  C8  <0> d           3.437   0.288   0.246  0.00  0.00    -0.043 C 
ATOM     12  H4  <0> d           4.350   0.864   0.415  0.00  0.00     0.041 H 
ATOM     13  C9  <0> d           3.111  -0.057  -1.234  0.00  0.00    -0.006 C 
ATOM     14  C10 <0> d           2.133  -1.220  -1.163  0.00  0.00     0.131 C 
ATOM     15  O1  <0> d           1.588  -1.775  -2.087  0.00  0.00    -0.298 OA
ATOM     16  H5  <0> d          -0.498   1.922   0.913  0.00  0.00     0.033 H 
ATOM     17  H6  <0> d          -0.512   1.929  -0.882  0.00  0.00     0.033 H 
ATOM     18  H7  <0> d           1.877   1.919  -1.009  0.00  0.00     0.033 H 
ATOM     19  H8  <0> d           1.624   2.903   0.445  0.00  0.00     0.033 H 
ATOM     20  H9  <0> d          -0.937  -0.390   0.407  0.00  0.00     0.033 H 
ATOM     21  H10 <0> d           0.153  -0.376  -1.006  0.00  0.00     0.033 H 
ATOM     22  H11 <0> d           3.491  -1.162   1.932  0.00  0.00     0.034 H 
ATOM     23  H12 <0> d           4.202  -1.795   0.395  0.00  0.00     0.034 H 
ATOM     24  H13 <0> d           2.697   0.774  -1.785  0.00  0.00     0.044 H 
ATOM     25  H14 <0> d           4.028  -0.392  -1.741  0.00  0.00     0.044 H 
ENDROOT
TORSDOF 0
