REMARK  3 active torsions:
REMARK  status: ('A' for Active; 'I' for Inactive)
REMARK    1  A    between atoms: C1_1  and  O1_2 
REMARK    2  A    between atoms: O1_2  and  C2_3 
REMARK    3  A    between atoms: C9_10  and  O2_12 
ROOT
ATOM      1  C2  <0> d           1.185   2.058   0.002  0.00  0.00     0.068 A 
ATOM      2  C3  <0> d           2.361   1.322  -0.008  0.00  0.00    -0.050 A 
ATOM      3  C4  <0> d           3.580   1.966  -0.020  0.00  0.00    -0.071 A 
ATOM      4  C5  <0> d           3.642   3.355  -0.014  0.00  0.00    -0.023 A 
ATOM      5  C6  <0> d           2.467   4.085   0.001  0.00  0.00    -0.044 A 
ATOM      6  C7  <0> d           1.243   3.444   0.009  0.00  0.00    -0.044 A 
ATOM      7  C8  <0> d           3.257   5.369  -0.001  0.00  0.00    -0.013 A 
ATOM      8  C9  <0> d           4.556   4.563  -0.017  0.00  0.00     0.065 A 
ATOM      9  H1  <0> d           5.155   4.670   0.887  0.00  0.00     0.091 H 
ATOM     10  H5  <0> d           2.321   0.243  -0.009  0.00  0.00     0.087 H 
ATOM     11  H6  <0> d           4.492   1.388  -0.032  0.00  0.00     0.084 H 
ATOM     12  H7  <0> d           0.331   4.022   0.020  0.00  0.00     0.088 H 
ATOM     13  H8  <0> d           3.109   5.963  -0.903  0.00  0.00     0.044 H 
ATOM     14  H9  <0> d           3.126   5.954   0.910  0.00  0.00     0.044 H 
ENDROOT
BRANCH   1  15
ATOM     15  O1  <0> d          -0.017   1.425   0.010  0.00  0.00    -0.356 OA
BRANCH  15  16
ATOM     16  C1  <0> d           0.002  -0.004   0.002  0.00  0.00     0.010 C 
ATOM     17  H2  <0> d          -1.020  -0.381   0.010  0.00  0.00     0.066 H 
ATOM     18  H3  <0> d           0.512  -0.356  -0.895  0.00  0.00     0.066 H 
ATOM     19  H4  <0> d           0.529  -0.365   0.885  0.00  0.00     0.066 H 
ENDBRANCH  15  16
ENDBRANCH   1  15
BRANCH   8  20
ATOM     20  O2  <0> d           5.317   4.713  -1.216  0.00  0.00    -0.391 OA
ATOM     21  H10 <0> d           6.139   4.202  -1.227  0.00  0.00     0.210 HD
ENDBRANCH   8  20
TORSDOF 3
