REMARK  2 active torsions:
REMARK  status: ('A' for Active; 'I' for Inactive)
REMARK    1  A    between atoms: C1_1  and  N1_2 
REMARK    2  A    between atoms: C3_4  and  C5_7 
ROOT
ATOM      1  N1  <0> d           0.002  -0.004   0.002  0.00  0.00    -0.285 N 
ATOM      2  C2  <0> d           0.008  -0.786  -1.094  0.00  0.00     0.012 A 
ATOM      3  C3  <0> d           0.028  -2.095  -0.667  0.00  0.00     0.036 A 
ATOM      4  C4  <0> d           0.035  -2.076   0.744  0.00  0.00     0.036 A 
ATOM      5  N2  <0> d           0.025  -0.829   1.132  0.00  0.00    -0.185 NA
ATOM      6  H4  <0> d          -0.002  -0.449  -2.120  0.00  0.00     0.115 H 
ATOM      7  H5  <0> d           0.050  -2.941   1.390  0.00  0.00     0.118 H 
ENDROOT
BRANCH   3   8
ATOM      8  C5  <0> d           0.041  -3.298  -1.526  0.00  0.00     0.115 A 
ATOM      9  O1  <0> d           0.034  -3.312  -2.872  0.00  0.00    -0.213 OA
ATOM     10  N3  <0> d           0.054  -4.664  -3.292  0.00  0.00    -0.140 NA
ATOM     11  C7  <0> d           0.063  -5.420  -2.229  0.00  0.00     0.032 A 
ATOM     12  C6  <0> d           0.056  -4.590  -1.099  0.00  0.00    -0.028 A 
ATOM     13  H7  <0> d           0.076  -6.500  -2.220  0.00  0.00     0.118 H 
ATOM     14  H6  <0> d           0.061  -4.919  -0.070  0.00  0.00     0.090 H 
ENDBRANCH   3   8
BRANCH   1  15
ATOM     15  C1  <0> d          -0.018   1.461   0.010  0.00  0.00     0.002 C 
ATOM     16  H1  <0> d           1.005   1.838   0.002  0.00  0.00     0.059 H 
ATOM     17  H2  <0> d          -0.545   1.822  -0.873  0.00  0.00     0.059 H 
ATOM     18  H3  <0> d          -0.528   1.812   0.907  0.00  0.00     0.059 H 
ENDBRANCH   1  15
TORSDOF 2
