REMARK  3 active torsions:
REMARK  status: ('A' for Active; 'I' for Inactive)
REMARK    1  A    between atoms: C2_2  and  C3_3 
REMARK    2  A    between atoms: C3_3  and  O1_4 
REMARK    3  A    between atoms: O1_4  and  C4_5 
ROOT
ATOM      1  C4  <0> d           0.002  -0.004   0.002  0.00  0.00     0.107 A 
ATOM      2  C5  <0> d           1.211  -0.682  -0.019  0.00  0.00    -0.048 A 
ATOM      3  C6  <0> d           1.228  -2.064  -0.022  0.00  0.00    -0.080 A 
ATOM      4  C7  <0> d           0.040  -2.772  -0.015  0.00  0.00    -0.080 A 
ATOM      5  C8  <0> d          -1.168  -2.099   0.002  0.00  0.00    -0.043 A 
ATOM      6  C9  <0> d          -1.190  -0.716   0.010  0.00  0.00     0.149 A 
ATOM      7  F1  <0> d          -2.371  -0.059   0.024  0.00  0.00    -0.203 F 
ATOM      8  H6  <0> d           2.140  -0.131  -0.029  0.00  0.00     0.087 H 
ATOM      9  H7  <0> d           2.170  -2.592  -0.035  0.00  0.00     0.083 H 
ATOM     10  H8  <0> d           0.056  -3.851  -0.022  0.00  0.00     0.083 H 
ATOM     11  H9  <0> d          -2.095  -2.654   0.007  0.00  0.00     0.088 H 
ENDROOT
BRANCH   1  12
ATOM     12  O1  <0> d          -0.016   1.355   0.009  0.00  0.00    -0.344 OA
BRANCH  12  13
ATOM     13  C3  <0> d           1.248   2.021   0.001  0.00  0.00     0.041 C 
ATOM     14  H4  <0> d           1.817   1.731   0.884  0.00  0.00     0.081 H 
ATOM     15  H5  <0> d           1.800   1.741  -0.896  0.00  0.00     0.081 H 
BRANCH  13  16
ATOM     16  C2  <0> d           1.030   3.513   0.011  0.00  0.00    -0.089 C 
ATOM     17  C1  <0> d           1.737   4.272   0.811  0.00  0.00    -0.123 C 
ATOM     18  H1  <0> d           2.476   3.830   1.463  0.00  0.00     0.066 H 
ATOM     19  H2  <0> d           1.581   5.341   0.818  0.00  0.00     0.066 H 
ATOM     20  H3  <0> d           0.291   3.955  -0.641  0.00  0.00     0.078 H 
ENDBRANCH  13  16
ENDBRANCH  12  13
ENDBRANCH   1  12
TORSDOF 3
