REMARK  2 active torsions:
REMARK  status: ('A' for Active; 'I' for Inactive)
REMARK    1  A    between atoms: C1_1  and  C2_2 
REMARK    2  A    between atoms: C2_2  and  C3_3 
ROOT
ATOM      1  C3  <0> d          -0.718   1.572   1.248  0.00  0.00     0.079 A 
ATOM      2  C4  <0> d          -1.633   0.775   1.869  0.00  0.00     0.208 A 
ATOM      3  C5  <0> d          -2.276   1.262   3.029  0.00  0.00     0.287 A 
ATOM      4  O1  <0> d          -3.101   0.583   3.616  0.00  0.00    -0.265 OA
ATOM      5  N1  <0> d          -1.956   2.497   3.474  0.00  0.00    -0.315 N 
ATOM      6  H1  <0> d          -2.442   2.900   4.375  0.00  0.00     0.170 HD
ATOM      7  C6  <0> d          -1.041   3.234   2.812  0.00  0.00     0.067 A 
ATOM      8  N2  <0> d          -0.443   2.782   1.743  0.00  0.00    -0.245 NA
ATOM      9  F1  <0> d          -1.920  -0.453   1.386  0.00  0.00    -0.198 F 
ATOM     10  H7  <0> d          -0.794   4.220   3.178  0.00  0.00     0.143 H 
ENDROOT
BRANCH   1  11
ATOM     11  C2  <0> d          -0.013   1.086   0.008  0.00  0.00    -0.025 C 
ATOM     12  H5  <0> d           0.002  -0.014   0.002  0.00  0.00     0.042 H 
ATOM     13  H6  <0> d           1.019   1.466   0.000  0.00  0.00     0.042 H 
BRANCH  11  14
ATOM     14  C1  <0> d          -0.753   1.593  -1.232  0.00  0.00    -0.071 C 
ATOM     15  H2  <0> d          -0.238   1.238  -2.136  0.00  0.00     0.028 H 
ATOM     16  H3  <0> d          -0.768   2.693  -1.225  0.00  0.00     0.028 H 
ATOM     17  H4  <0> d          -1.785   1.212  -1.224  0.00  0.00     0.028 H 
ENDBRANCH  11  14
ENDBRANCH   1  11
TORSDOF 2
