REMARK  0 active torsions:
REMARK  status: ('A' for Active; 'I' for Inactive)
ROOT
ATOM      1  C1  <0> d          -0.013   1.076   0.008  0.00  0.00    -0.061 A 
ATOM      2  C2  <0> d          -1.202   1.739   0.017  0.00  0.00    -0.035 A 
ATOM      3  C3  <0> d          -1.202   3.146   0.029  0.00  0.00     0.150 A 
ATOM      4  N1  <0> d          -2.174   4.047   0.044  0.00  0.00    -0.240 NA
ATOM      5  C4  <0> d          -1.637   5.268   0.045  0.00  0.00     0.021 A 
ATOM      6  C5  <0> d          -0.289   5.147   0.032  0.00  0.00     0.023 A 
ATOM      7  N2  <0> d          -0.003   3.815   0.022  0.00  0.00    -0.226 N 
ATOM      8  N3  <0> d           1.197   3.097   0.007  0.00  0.00    -0.179 NA
ATOM      9  C6  <0> d           1.191   1.791   0.000  0.00  0.00     0.022 A 
ATOM     10  H1  <0> d           0.002  -0.004   0.002  0.00  0.00     0.086 H 
ATOM     11  H2  <0> d          -2.133   1.192   0.019  0.00  0.00     0.089 H 
ATOM     12  H3  <0> d          -2.186   6.198   0.055  0.00  0.00     0.117 H 
ATOM     13  H4  <0> d           0.427   5.956   0.029  0.00  0.00     0.117 H 
ATOM     14  H5  <0> d           2.129   1.254  -0.011  0.00  0.00     0.117 H 
ENDROOT
TORSDOF 0
