REMARK  4 active torsions:
REMARK  status: ('A' for Active; 'I' for Inactive)
REMARK    1  A    between atoms: C1_1  and  C2_2 
REMARK    2  A    between atoms: C5_5  and  O1_9 
REMARK    3  A    between atoms: C7_7  and  N1_8 
REMARK    4  A    between atoms: O1_9  and  C8_10 
ROOT
ATOM      1  C2  <0> d           1.175   1.782   0.000  0.00  0.00    -0.036 A 
ATOM      2  C3  <0> d          -0.013   1.076   0.008  0.00  0.00    -0.072 A 
ATOM      3  C4  <0> d          -1.219   1.749   0.017  0.00  0.00    -0.050 A 
ATOM      4  C5  <0> d          -1.242   3.137   0.030  0.00  0.00     0.070 A 
ATOM      5  C6  <0> d          -0.053   3.849   0.022  0.00  0.00    -0.025 A 
ATOM      6  C7  <0> d           1.159   3.171   0.007  0.00  0.00     0.034 A 
ATOM      7  H4  <0> d           0.002  -0.004   0.002  0.00  0.00     0.084 H 
ATOM      8  H5  <0> d          -2.146   1.194   0.019  0.00  0.00     0.087 H 
ATOM      9  H6  <0> d          -0.069   4.928   0.027  0.00  0.00     0.091 H 
ENDROOT
BRANCH   4  10
ATOM     10  O1  <0> d          -2.429   3.797   0.044  0.00  0.00    -0.356 OA
BRANCH  10  11
ATOM     11  C8  <0> d          -3.615   3.000   0.051  0.00  0.00     0.010 C 
ATOM     12  H9  <0> d          -3.622   2.367   0.939  0.00  0.00     0.066 H 
ATOM     13  H10 <0> d          -4.490   3.650   0.062  0.00  0.00     0.066 H 
ATOM     14  H11 <0> d          -3.638   2.375  -0.841  0.00  0.00     0.066 H 
ENDBRANCH  10  11
ENDBRANCH   4  10
BRANCH   6  15
ATOM     15  N1  <0> d           2.359   3.884  -0.001  0.00  0.00    -0.399 N 
ATOM     16  H7  <0> d           3.205   3.410  -0.011  0.00  0.00     0.156 HD
ATOM     17  H8  <0> d           2.347   4.854   0.004  0.00  0.00     0.156 HD
ENDBRANCH   6  15
BRANCH   1  18
ATOM     18  C1  <0> d           2.489   1.044  -0.016  0.00  0.00    -0.049 C 
ATOM     19  H1  <0> d           2.796   0.871  -1.047  0.00  0.00     0.033 H 
ATOM     20  H2  <0> d           3.247   1.640   0.494  0.00  0.00     0.033 H 
ATOM     21  H3  <0> d           2.375   0.087   0.494  0.00  0.00     0.033 H 
ENDBRANCH   1  18
TORSDOF 4
