REMARK  1 active torsions:
REMARK  status: ('A' for Active; 'I' for Inactive)
REMARK    1  A    between atoms: C5_7  and  C6_9 
ROOT
ATOM      1  C1  <0> d          -0.013   1.086   0.008  0.00  0.00    -0.043 C 
ATOM      2  C2  <0> d          -0.763   1.598  -1.224  0.00  0.00     0.010 C 
ATOM      3  C3  <0> d          -1.029   3.069  -1.085  0.00  0.00     0.217 C 
ATOM      4  O1  <0> d          -1.315   3.697  -2.083  0.00  0.00    -0.274 OA
ATOM      5  N1  <0> d          -0.968   3.722   0.076  0.00  0.00    -0.360 N 
ATOM      6  C4  <0> d          -0.592   3.105   1.342  0.00  0.00     0.008 C 
ATOM      7  C5  <0> d          -0.741   1.585   1.262  0.00  0.00     0.046 C 
ATOM      8  H1  <0> d          -1.797   1.325   1.200  0.00  0.00     0.059 H 
ATOM      9  H2  <0> d           0.002  -0.004   0.002  0.00  0.00     0.035 H 
ATOM     10  H3  <0> d           1.009   1.467   0.000  0.00  0.00     0.035 H 
ATOM     11  H4  <0> d          -0.160   1.421  -2.115  0.00  0.00     0.047 H 
ATOM     12  H5  <0> d          -1.710   1.067  -1.318  0.00  0.00     0.047 H 
ATOM     13  H6  <0> d          -1.187   4.667   0.078  0.00  0.00     0.162 HD
ATOM     14  H7  <0> d           0.444   3.353   1.570  0.00  0.00     0.065 H 
ATOM     15  H8  <0> d          -1.237   3.486   2.134  0.00  0.00     0.065 H 
ENDROOT
BRANCH   7  16
ATOM     16  C6  <0> d          -0.131   0.952   2.486  0.00  0.00     0.178 C 
ATOM     17  O2  <0> d           0.791   0.180   2.372  0.00  0.00    -0.648 OA
ATOM     18  O3  <0> d          -0.613   1.246   3.704  0.00  0.00    -0.648 OA
ENDBRANCH   7  16
TORSDOF 1
