REMARK  4 active torsions:
REMARK  status: ('A' for Active; 'I' for Inactive)
REMARK    1  A    between atoms: C1_1  and  C2_2 
REMARK    2  A    between atoms: C5_5  and  C8_9 
REMARK    3  A    between atoms: C6_6  and  C7_8 
REMARK    4  A    between atoms: C8_9  and  C9_11 
ROOT
ATOM      1  C2  <0> d           0.108   1.531   0.264  0.00  0.00     0.031 A 
ATOM      2  C3  <0> d           1.227   2.303   0.004  0.00  0.00    -0.059 A 
ATOM      3  C4  <0> d           1.075   3.654  -0.249  0.00  0.00    -0.066 A 
ATOM      4  C5  <0> d          -0.221   4.191  -0.232  0.00  0.00     0.034 A 
ATOM      5  C6  <0> d          -1.299   3.342   0.039  0.00  0.00     0.044 A 
ATOM      6  N1  <0> d          -1.100   2.061   0.268  0.00  0.00    -0.258 NA
ATOM      7  H4  <0> d           2.210   1.855  -0.001  0.00  0.00     0.086 H 
ATOM      8  H5  <0> d           1.931   4.279  -0.454  0.00  0.00     0.085 H 
ENDROOT
BRANCH   4   9
ATOM      9  C8  <0> d          -0.443   5.622  -0.494  0.00  0.00     0.157 C 
ATOM     10  O1  <0> d          -1.572   6.054  -0.586  0.00  0.00    -0.293 OA
BRANCH   9  11
ATOM     11  C9  <0> d           0.734   6.550  -0.650  0.00  0.00    -0.017 C 
ATOM     12  H9  <0> d           0.373   7.572  -0.840  0.00  0.00     0.038 H 
ATOM     13  H10 <0> d           1.355   6.218  -1.495  0.00  0.00     0.038 H 
ATOM     14  H11 <0> d           1.335   6.539   0.272  0.00  0.00     0.038 H 
ENDBRANCH   9  11
ENDBRANCH   4   9
BRANCH   5  15
ATOM     15  C7  <0> d          -2.700   3.897   0.062  0.00  0.00    -0.035 C 
ATOM     16  H6  <0> d          -3.411   3.089   0.290  0.00  0.00     0.035 H 
ATOM     17  H7  <0> d          -2.939   4.330  -0.920  0.00  0.00     0.035 H 
ATOM     18  H8  <0> d          -2.772   4.678   0.834  0.00  0.00     0.035 H 
ENDBRANCH   5  15
BRANCH   1  19
ATOM     19  C1  <0> d           0.272   0.059   0.539  0.00  0.00    -0.035 C 
ATOM     20  H1  <0> d           1.339  -0.206   0.495  0.00  0.00     0.035 H 
ATOM     21  H2  <0> d          -0.281  -0.520  -0.215  0.00  0.00     0.035 H 
ATOM     22  H3  <0> d          -0.122  -0.173   1.540  0.00  0.00     0.035 H 
ENDBRANCH   1  19
TORSDOF 4
