REMARK  4 active torsions:
REMARK  status: ('A' for Active; 'I' for Inactive)
REMARK    1  A    between atoms: C1_1  and  C2_2 
REMARK    2  A    between atoms: C2_2  and  C10_11 
REMARK    3  A    between atoms: C6_7  and  C8_9 
REMARK    4  A    between atoms: C6_7  and  C9_10 
ROOT
ATOM      1  C2  <0> d           1.301   3.403   1.460  0.00  0.00    -0.041 C 
ATOM      2  C3  <0> d           1.303   2.369   0.334  0.00  0.00    -0.003 C 
ATOM      3  C4  <0> d           0.032   1.557   0.412  0.00  0.00     0.128 C 
ATOM      4  O1  <0> d           0.058   0.355   0.505  0.00  0.00    -0.298 OA
ATOM      5  C5  <0> d          -1.273   2.316   0.362  0.00  0.00    -0.003 C 
ATOM      6  C6  <0> d          -1.286   3.352   1.489  0.00  0.00    -0.041 C 
ATOM      7  C7  <0> d          -0.007   4.164   1.548  0.00  0.00    -0.052 C 
ATOM      8  H4  <0> d           2.096   1.768   0.435  0.00  0.00     0.045 H 
ATOM      9  H5  <0> d           1.355   2.877  -0.631  0.00  0.00     0.045 H 
ATOM     10  H6  <0> d          -1.357   2.777  -0.522  0.00  0.00     0.045 H 
ATOM     11  H7  <0> d          -2.105   1.622   0.489  0.00  0.00     0.045 H 
ATOM     12  H8  <0> d          -0.008   4.749   2.484  0.00  0.00     0.035 H 
ATOM     13  H9  <0> d          -0.031   4.909   0.733  0.00  0.00     0.035 H 
ENDROOT
BRANCH   1  14
ATOM     14  C1  <0> d           1.639   2.718   2.788  0.00  0.00    -0.069 C 
ATOM     15  H1  <0> d           2.667   2.359   2.759  0.00  0.00     0.028 H 
ATOM     16  H2  <0> d           1.525   3.431   3.604  0.00  0.00     0.028 H 
ATOM     17  H3  <0> d           0.964   1.876   2.944  0.00  0.00     0.028 H 
ENDBRANCH   1  14
BRANCH   1  18
ATOM     18  C10 <0> d           2.427   4.418   1.166  0.00  0.00    -0.069 C 
ATOM     19  H16 <0> d           2.239   4.901   0.207  0.00  0.00     0.028 H 
ATOM     20  H17 <0> d           2.453   5.171   1.953  0.00  0.00     0.028 H 
ATOM     21  H18 <0> d           3.384   3.898   1.129  0.00  0.00     0.028 H 
ENDBRANCH   1  18
BRANCH   6  22
ATOM     22  C8  <0> d          -1.569   2.658   2.825  0.00  0.00    -0.069 C 
ATOM     23  H10 <0> d          -1.553   3.394   3.628  0.00  0.00     0.028 H 
ATOM     24  H11 <0> d          -2.549   2.182   2.786  0.00  0.00     0.028 H 
ATOM     25  H12 <0> d          -0.805   1.902   3.010  0.00  0.00     0.028 H 
ENDBRANCH   6  22
BRANCH   6  26
ATOM     26  C9  <0> d          -2.457   4.322   1.217  0.00  0.00    -0.069 C 
ATOM     27  H13 <0> d          -2.292   4.833   0.269  0.00  0.00     0.028 H 
ATOM     28  H14 <0> d          -3.390   3.760   1.171  0.00  0.00     0.028 H 
ATOM     29  H15 <0> d          -2.514   5.056   2.020  0.00  0.00     0.028 H 
ENDBRANCH   6  26
TORSDOF 4
