REMARK  8 active torsions:
REMARK  status: ('A' for Active; 'I' for Inactive)
REMARK    1  A    between atoms: C1_1  and  C2_2 
REMARK    2  A    between atoms: C2_2  and  C3_3 
REMARK    3  A    between atoms: C3_3  and  C4_4 
REMARK    4  A    between atoms: C3_3  and  C5_5 
REMARK    5  A    between atoms: C3_3  and  O1_6 
REMARK    6  A    between atoms: O1_6  and  C6_7 
REMARK    7  A    between atoms: C6_7  and  C7_8 
REMARK    8  A    between atoms: C7_8  and  O2_9 
ROOT
ATOM      1  C3  <0> d           0.367   4.914   1.348  0.00  0.00     0.053 C 
ENDROOT
BRANCH   1   2
ATOM      2  C2  <0> d          -0.278   5.242   2.696  0.00  0.00    -0.040 C 
ATOM      3  H4  <0> d          -0.496   6.309   2.745  0.00  0.00     0.036 H 
ATOM      4  H5  <0> d          -1.205   4.677   2.802  0.00  0.00     0.036 H 
BRANCH   2   5
ATOM      5  C1  <0> d           0.681   4.864   3.826  0.00  0.00    -0.074 C 
ATOM      6  H1  <0> d           0.221   5.098   4.787  0.00  0.00     0.027 H 
ATOM      7  H2  <0> d           0.898   3.797   3.778  0.00  0.00     0.027 H 
ATOM      8  H3  <0> d           1.607   5.429   3.721  0.00  0.00     0.027 H 
ENDBRANCH   2   5
ENDBRANCH   1   2
BRANCH   1   9
ATOM      9  C4  <0> d           1.727   5.608   1.252  0.00  0.00    -0.048 C 
ATOM     10  H6  <0> d           2.187   5.375   0.292  0.00  0.00     0.031 H 
ATOM     11  H7  <0> d           1.591   6.686   1.337  0.00  0.00     0.031 H 
ATOM     12  H8  <0> d           2.372   5.259   2.058  0.00  0.00     0.031 H 
ENDBRANCH   1   9
BRANCH   1  13
ATOM     13  C5  <0> d          -0.537   5.404   0.216  0.00  0.00    -0.048 C 
ATOM     14  H9  <0> d          -1.506   4.910   0.285  0.00  0.00     0.031 H 
ATOM     15  H10 <0> d          -0.673   6.483   0.301  0.00  0.00     0.031 H 
ATOM     16  H11 <0> d          -0.077   5.171  -0.744  0.00  0.00     0.031 H 
ENDBRANCH   1  13
BRANCH   1  17
ATOM     17  O1  <0> d           0.546   3.500   1.237  0.00  0.00    -0.379 OA
BRANCH  17  18
ATOM     18  C6  <0> d           1.145   3.085   0.008  0.00  0.00     0.040 C 
ATOM     19  H12 <0> d           2.130   3.542  -0.089  0.00  0.00     0.077 H 
ATOM     20  H13 <0> d           0.516   3.397  -0.827  0.00  0.00     0.077 H 
BRANCH  18  21
ATOM     21  C7  <0> d           1.286   1.562  -0.002  0.00  0.00     0.036 C 
ATOM     22  H14 <0> d           1.840   1.243   0.881  0.00  0.00     0.077 H 
ATOM     23  H15 <0> d           1.823   1.252  -0.899  0.00  0.00     0.077 H 
BRANCH  21  24
ATOM     24  O2  <0> d          -0.011   0.963   0.007  0.00  0.00    -0.399 OA
ATOM     25  H16 <0> d           0.002  -0.004   0.002  0.00  0.00     0.209 HD
ENDBRANCH  21  24
ENDBRANCH  18  21
ENDBRANCH  17  18
ENDBRANCH   1  17
TORSDOF 8
