REMARK  5 active torsions:
REMARK  status: ('A' for Active; 'I' for Inactive)
REMARK    1  A    between atoms: C1_1  and  C2_2 
REMARK    2  A    between atoms: C2_2  and  C3_3 
REMARK    3  A    between atoms: C2_2  and  C4_4 
REMARK    4  A    between atoms: C2_2  and  C5_5 
REMARK    5  A    between atoms: C5_5  and  C6_6 
ROOT
ATOM      1  C6  <0> d           2.154   0.032  -1.268  0.00  0.00     0.015 C 
ATOM      2  C7  <0> d           2.843  -0.443  -2.479  0.00  0.00     0.059 C 
ATOM      3  N1  <0> d           3.374  -0.809  -3.413  0.00  0.00    -0.197 NA
ATOM      4  H12 <0> d           2.139   1.122  -1.262  0.00  0.00     0.054 H 
ATOM      5  H13 <0> d           2.681  -0.329  -0.385  0.00  0.00     0.054 H 
ENDROOT
BRANCH   1   6
ATOM      6  C5  <0> d           0.718  -0.497  -1.257  0.00  0.00    -0.048 C 
ATOM      7  H10 <0> d           0.733  -1.587  -1.263  0.00  0.00     0.035 H 
ATOM      8  H11 <0> d           0.191  -0.136  -2.140  0.00  0.00     0.035 H 
BRANCH   6   9
ATOM      9  C2  <0> d           0.002  -0.004   0.002  0.00  0.00    -0.051 C 
BRANCH   9  10
ATOM     10  C1  <0> d          -0.019   1.526   0.010  0.00  0.00    -0.070 C 
ATOM     11  H1  <0> d           1.004   1.903   0.003  0.00  0.00     0.028 H 
ATOM     12  H2  <0> d          -0.546   1.887  -0.873  0.00  0.00     0.028 H 
ATOM     13  H3  <0> d          -0.529   1.877   0.907  0.00  0.00     0.028 H 
ENDBRANCH   9  10
BRANCH   9  14
ATOM     14  C3  <0> d           0.742  -0.511   1.242  0.00  0.00    -0.070 C 
ATOM     15  H4  <0> d           0.232  -0.159   2.138  0.00  0.00     0.028 H 
ATOM     16  H5  <0> d           0.757  -1.601   1.236  0.00  0.00     0.028 H 
ATOM     17  H6  <0> d           1.765  -0.134   1.234  0.00  0.00     0.028 H 
ENDBRANCH   9  14
BRANCH   9  18
ATOM     18  C4  <0> d          -1.433  -0.534   0.013  0.00  0.00    -0.070 C 
ATOM     19  H7  <0> d          -1.960  -0.173  -0.870  0.00  0.00     0.028 H 
ATOM     20  H8  <0> d          -1.419  -1.623   0.007  0.00  0.00     0.028 H 
ATOM     21  H9  <0> d          -1.944  -0.182   0.910  0.00  0.00     0.028 H 
ENDBRANCH   9  18
ENDBRANCH   6   9
ENDBRANCH   1   6
TORSDOF 5
