REMARK  5 active torsions:
REMARK  status: ('A' for Active; 'I' for Inactive)
REMARK    1  A    between atoms: C1_1  and  C2_2 
REMARK    2  A    between atoms: C2_2  and  O1_3 
REMARK    3  A    between atoms: O1_3  and  C3_4 
REMARK    4  A    between atoms: C3_4  and  C4_6 
REMARK    5  A    between atoms: C5_8  and  N4_11 
ROOT
ATOM      1  C3  <0> d          -1.229   2.183   0.020  0.00  0.00     0.331 C 
ATOM      2  O2  <0> d          -2.328   1.666   0.023  0.00  0.00    -0.256 OA
ENDROOT
BRANCH   1   3
ATOM      3  O1  <0> d          -1.116   3.525   0.027  0.00  0.00    -0.316 OA
BRANCH   3   4
ATOM      4  C2  <0> d          -2.350   4.291   0.037  0.00  0.00     0.026 C 
ATOM      5  H4  <0> d          -2.930   4.038   0.937  0.00  0.00     0.074 H 
ATOM      6  H5  <0> d          -2.939   4.048  -0.860  0.00  0.00     0.074 H 
BRANCH   4   7
ATOM      7  C1  <0> d          -2.023   5.785   0.043  0.00  0.00    -0.056 C 
ATOM      8  H1  <0> d          -2.958   6.365   0.051  0.00  0.00     0.030 H 
ATOM      9  H2  <0> d          -1.442   6.037  -0.856  0.00  0.00     0.030 H 
ATOM     10  H3  <0> d          -1.433   6.028   0.940  0.00  0.00     0.030 H 
ENDBRANCH   4   7
ENDBRANCH   3   4
ENDBRANCH   1   3
BRANCH   1  11
ATOM     11  C4  <0> d          -0.016   1.339   0.009  0.00  0.00     0.239 A 
ATOM     12  N3  <0> d           1.223   1.781  -0.000  0.00  0.00    -0.240 N 
ATOM     13  N2  <0> d           2.058   0.652  -0.014  0.00  0.00     0.020 NA
ATOM     14  H8  <0> d           1.422   2.863   0.004  0.00  0.00     0.191 HD
ATOM     15  C5  <0> d           1.244  -0.429  -0.012  0.00  0.00     0.739 A 
ATOM     16  N1  <0> d           0.002  -0.004   0.002  0.00  0.00    -0.036 NA
BRANCH  15  17
ATOM     17  N4  <0> d           1.649  -1.751  -0.023  0.00  0.00    -0.230 N 
ATOM     18  H6  <0> d           2.721  -1.997  -0.034  0.00  0.00     0.174 HD
ATOM     19  H7  <0> d           0.900  -2.556  -0.020  0.00  0.00     0.174 HD
ENDBRANCH  15  17
ENDBRANCH   1  11
TORSDOF 5
