REMARK  1 active torsions:
REMARK  status: ('A' for Active; 'I' for Inactive)
REMARK    1  A    between atoms: C1_1  and  C2_2 
ROOT
ATOM      1  C2  <0> d           0.002  -0.004   0.002  0.00  0.00    -0.044 A 
ATOM      2  C3  <0> d           0.006  -0.691  -1.167  0.00  0.00    -0.011 A 
ATOM      3  C4  <0> d           0.025  -2.102  -1.163  0.00  0.00     0.246 A 
ATOM      4  N1  <0> d           0.040  -2.804  -0.017  0.00  0.00    -0.323 N 
ATOM      5  C5  <0> d           0.036  -2.166   1.206  0.00  0.00     0.045 A 
ATOM      6  C6  <0> d           0.024  -0.759   1.256  0.00  0.00    -0.003 A 
ATOM      7  C7  <0> d           0.027  -0.107   2.493  0.00  0.00    -0.070 A 
ATOM      8  C8  <0> d           0.047  -0.840   3.646  0.00  0.00    -0.082 A 
ATOM      9  C9  <0> d           0.066  -2.227   3.600  0.00  0.00    -0.081 A 
ATOM     10  C10 <0> d           0.051  -2.892   2.392  0.00  0.00    -0.056 A 
ATOM     11  O1  <0> d           0.028  -2.699  -2.225  0.00  0.00    -0.268 OA
ATOM     12  H4  <0> d          -0.006  -0.155  -2.105  0.00  0.00     0.092 H 
ATOM     13  H5  <0> d           0.013   0.972   2.538  0.00  0.00     0.084 H 
ATOM     14  H6  <0> d           0.049  -0.336   4.601  0.00  0.00     0.083 H 
ATOM     15  H7  <0> d           0.083  -2.792   4.520  0.00  0.00     0.083 H 
ATOM     16  H8  <0> d           0.065  -3.971   2.367  0.00  0.00     0.086 H 
ATOM     17  H9  <0> d           0.053  -3.773  -0.050  0.00  0.00     0.169 HD
ENDROOT
BRANCH   1  18
ATOM     18  C1  <0> d          -0.018   1.503   0.010  0.00  0.00    -0.050 C 
ATOM     19  H1  <0> d           1.004   1.880   0.003  0.00  0.00     0.033 H 
ATOM     20  H2  <0> d          -0.545   1.864  -0.873  0.00  0.00     0.033 H 
ATOM     21  H3  <0> d          -0.529   1.854   0.907  0.00  0.00     0.033 H 
ENDBRANCH   1  18
TORSDOF 1
