REMARK  1 active torsions:
REMARK  status: ('A' for Active; 'I' for Inactive)
REMARK    1  A    between atoms: C1_1  and  C2_2 
ROOT
ATOM      1  C2  <0> d           2.266  -0.046  -0.020  0.00  0.00     0.123 A 
ATOM      2  C3  <0> d           2.321   1.371  -0.013  0.00  0.00     0.312 A 
ATOM      3  O1  <0> d           3.390   1.954  -0.019  0.00  0.00    -0.263 OA
ATOM      4  N1  <0> d           1.164   2.055   0.002  0.00  0.00     0.003 N 
ATOM      5  C4  <0> d          -0.017   1.368   0.010  0.00  0.00     0.792 A 
ATOM      6  N2  <0> d           0.002  -0.004   0.002  0.00  0.00     0.048 NA
ATOM      7  N3  <0> d           1.113  -0.653  -0.012  0.00  0.00    -0.133 NA
ATOM      8  N4  <0> d          -0.975   2.267   0.018  0.00  0.00     0.069 NA
ATOM      9  N5  <0> d          -0.480   3.453   0.025  0.00  0.00    -0.007 NA
ATOM     10  N6  <0> d           0.811   3.407   0.013  0.00  0.00    -0.022 NA
ENDROOT
BRANCH   1  11
ATOM     11  C1  <0> d           3.541  -0.850  -0.037  0.00  0.00    -0.028 C 
ATOM     12  H1  <0> d           4.404  -0.168  -0.041  0.00  0.00     0.036 H 
ATOM     13  H2  <0> d           3.566  -1.479  -0.939  0.00  0.00     0.036 H 
ATOM     14  H3  <0> d           3.583  -1.489   0.857  0.00  0.00     0.036 H 
ENDBRANCH   1  11
TORSDOF 1
