REMARK  4 active torsions:
REMARK  status: ('A' for Active; 'I' for Inactive)
REMARK    1  A    between atoms: C1_1  and  C2_2 
REMARK    2  A    between atoms: C4_5  and  O4_14 
REMARK    3  A    between atoms: C5_7  and  O3_13 
REMARK    4  A    between atoms: C6_9  and  O2_12 
ROOT
ATOM      1  C2  <0> d           0.002  -0.004   0.002  0.00  0.00     0.040 C 
ATOM      2  H1  <0> d          -1.020  -0.382   0.010  0.00  0.00     0.083 H 
ATOM      3  C3  <0> d           0.719  -0.498  -1.257  0.00  0.00    -0.015 C 
ATOM      4  C4  <0> d           0.789  -2.028  -1.229  0.00  0.00     0.067 C 
ATOM      5  H2  <0> d           1.347  -2.384  -2.095  0.00  0.00     0.087 H 
ATOM      6  C5  <0> d           1.496  -2.472   0.055  0.00  0.00     0.107 C 
ATOM      7  H3  <0> d           2.522  -2.102   0.053  0.00  0.00     0.094 H 
ATOM      8  C6  <0> d           0.749  -1.902   1.264  0.00  0.00     0.155 C 
ATOM      9  H4  <0> d          -0.263  -2.304   1.288  0.00  0.00     0.133 H 
ATOM     10  O1  <0> d           0.694  -0.478   1.159  0.00  0.00    -0.354 OA
ATOM     11  H8  <0> d           0.168  -0.175  -2.140  0.00  0.00     0.040 H 
ATOM     12  H9  <0> d           1.729  -0.088  -1.286  0.00  0.00     0.040 H 
ENDROOT
BRANCH   1  13
ATOM     13  C1  <0> d          -0.019   1.526   0.010  0.00  0.00    -0.052 C 
ATOM     14  H5  <0> d           1.004   1.903   0.003  0.00  0.00     0.030 H 
ATOM     15  H6  <0> d          -0.546   1.887  -0.873  0.00  0.00     0.030 H 
ATOM     16  H7  <0> d          -0.529   1.877   0.907  0.00  0.00     0.030 H 
ENDBRANCH   1  13
BRANCH   8  17
ATOM     17  O2  <0> d           1.436  -2.265   2.463  0.00  0.00    -0.369 OA
ATOM     18  H10 <0> d           1.017  -1.937   3.271  0.00  0.00     0.212 HD
ENDBRANCH   8  17
BRANCH   4  19
ATOM     19  O4  <0> d          -0.534  -2.567  -1.258  0.00  0.00    -0.393 OA
ATOM     20  H12 <0> d          -0.565  -3.534  -1.243  0.00  0.00     0.210 HD
ENDBRANCH   4  19
BRANCH   6  21
ATOM     21  O3  <0> d           1.504  -3.899   0.127  0.00  0.00    -0.388 OA
ATOM     22  H11 <0> d           1.938  -4.251   0.917  0.00  0.00     0.210 HD
ENDBRANCH   6  21
TORSDOF 4
