REMARK  1 active torsions:
REMARK  status: ('A' for Active; 'I' for Inactive)
REMARK    1  A    between atoms: C1_1  and  C2_2 
ROOT
ATOM      1  C2  <0> d          -0.718   1.572   1.248  0.00  0.00     0.063 A 
ATOM      2  C3  <0> d          -0.094   1.860   2.535  0.00  0.00     0.018 A 
ATOM      3  C4  <0> d           1.220   1.794   3.014  0.00  0.00    -0.066 A 
ATOM      4  C5  <0> d           1.489   2.140   4.305  0.00  0.00    -0.045 A 
ATOM      5  C6  <0> d           0.469   2.559   5.154  0.00  0.00     0.118 A 
ATOM      6  C7  <0> d          -0.832   2.632   4.706  0.00  0.00    -0.018 A 
ATOM      7  C8  <0> d          -1.129   2.284   3.391  0.00  0.00     0.065 A 
ATOM      8  N1  <0> d          -2.287   2.248   2.657  0.00  0.00    -0.277 N 
ATOM      9  H1  <0> d          -3.195   2.493   2.995  0.00  0.00     0.189 HD
ATOM     10  N2  <0> d          -1.992   1.815   1.360  0.00  0.00    -0.179 NA
ATOM     11  F1  <0> d           0.757   2.898   6.430  0.00  0.00    -0.206 F 
ATOM     12  H5  <0> d           2.018   1.470   2.362  0.00  0.00     0.085 H 
ATOM     13  H6  <0> d           2.504   2.089   4.672  0.00  0.00     0.088 H 
ATOM     14  H7  <0> d          -1.617   2.959   5.371  0.00  0.00     0.091 H 
ENDROOT
BRANCH   1  15
ATOM     15  C1  <0> d          -0.013   1.086   0.008  0.00  0.00    -0.033 C 
ATOM     16  H2  <0> d           0.002  -0.004   0.002  0.00  0.00     0.035 H 
ATOM     17  H3  <0> d           1.010   1.463   0.000  0.00  0.00     0.035 H 
ATOM     18  H4  <0> d          -0.540   1.447  -0.875  0.00  0.00     0.035 H 
ENDBRANCH   1  15
TORSDOF 1
