REMARK  6 active torsions:
REMARK  status: ('A' for Active; 'I' for Inactive)
REMARK    1  A    between atoms: C1_1  and  C2_2 
REMARK    2  A    between atoms: C2_2  and  C3_4 
REMARK    3  A    between atoms: C2_2  and  C7_10 
REMARK    4  A    between atoms: C3_4  and  C4_5 
REMARK    5  A    between atoms: C4_5  and  C5_7 
REMARK    6  A    between atoms: C4_5  and  C6_8 
ROOT
ATOM      1  C3  <0> d          -2.479   0.930   0.019  0.00  0.00    -0.041 C 
ATOM      2  H6  <0> d          -2.367   0.252  -0.827  0.00  0.00     0.035 H 
ATOM      3  H7  <0> d          -2.461   0.359   0.947  0.00  0.00     0.035 H 
ENDROOT
BRANCH   1   4
ATOM      4  C2  <0> d          -3.811   1.673  -0.097  0.00  0.00     0.028 C 
ATOM      5  H1  <0> d          -3.884   2.414   0.700  0.00  0.00     0.056 H 
BRANCH   4   6
ATOM      6  C1  <0> d          -3.888   2.374  -1.454  0.00  0.00    -0.064 C 
ATOM      7  H3  <0> d          -3.815   1.633  -2.250  0.00  0.00     0.028 H 
ATOM      8  H4  <0> d          -4.837   2.904  -1.536  0.00  0.00     0.028 H 
ATOM      9  H5  <0> d          -3.066   3.085  -1.544  0.00  0.00     0.028 H 
ENDBRANCH   4   6
BRANCH   4  10
ATOM     10  C7  <0> d          -4.947   0.691   0.027  0.00  0.00     0.176 C 
ATOM     11  O2  <0> d          -4.715  -0.484   0.190  0.00  0.00    -0.648 OA
ATOM     12  O4  <0> d          -6.217   1.120  -0.045  0.00  0.00    -0.648 OA
ENDBRANCH   4  10
ENDBRANCH   1   4
BRANCH   1  13
ATOM     13  C4  <0> d          -1.329   1.940   0.019  0.00  0.00     0.028 C 
ATOM     14  H2  <0> d          -1.400   2.570  -0.867  0.00  0.00     0.056 H 
BRANCH  13  15
ATOM     15  C5  <0> d          -1.417   2.811   1.273  0.00  0.00    -0.064 C 
ATOM     16  H8  <0> d          -0.598   3.531   1.273  0.00  0.00     0.028 H 
ATOM     17  H9  <0> d          -2.368   3.344   1.281  0.00  0.00     0.028 H 
ATOM     18  H10 <0> d          -1.346   2.181   2.160  0.00  0.00     0.028 H 
ENDBRANCH  13  15
BRANCH  13  19
ATOM     19  C6  <0> d          -0.014   1.204   0.009  0.00  0.00     0.176 C 
ATOM     20  O1  <0> d           0.002  -0.004   0.002  0.00  0.00    -0.648 OA
ATOM     21  O3  <0> d           1.139   1.891   0.001  0.00  0.00    -0.648 OA
ENDBRANCH  13  19
ENDBRANCH   1  13
TORSDOF 6
