REMARK  1 active torsions:
REMARK  status: ('A' for Active; 'I' for Inactive)
REMARK    1  A    between atoms: C3_4  and  C5_8 
ROOT
ATOM      1  C1  <0> d           2.049   1.532  -1.236  0.00  0.00     0.039 C 
ATOM      2  C2  <0> d           1.286   2.017   0.001  0.00  0.00     0.040 C 
ATOM      3  O1  <0> d          -0.017   1.427   0.010  0.00  0.00    -0.373 OA
ATOM      4  C3  <0> d           0.002  -0.004   0.002  0.00  0.00     0.152 C 
ATOM      5  H1  <0> d           0.498  -0.367   0.903  0.00  0.00     0.100 H 
ATOM      6  C4  <0> d           0.765  -0.489  -1.234  0.00  0.00     0.052 C 
ATOM      7  O2  <0> d           2.068   0.101  -1.243  0.00  0.00    -0.386 OA
ATOM      8  H2  <0> d           3.070   1.910  -1.205  0.00  0.00     0.077 H 
ATOM      9  H3  <0> d           1.553   1.894  -2.136  0.00  0.00     0.077 H 
ATOM     10  H4  <0> d           1.194   3.103  -0.031  0.00  0.00     0.077 H 
ATOM     11  H5  <0> d           1.826   1.722   0.901  0.00  0.00     0.077 H 
ATOM     12  H6  <0> d           0.857  -1.575  -1.202  0.00  0.00     0.078 H 
ATOM     13  H7  <0> d           0.224  -0.196  -2.134  0.00  0.00     0.078 H 
ENDROOT
BRANCH   4  14
ATOM     14  C5  <0> d          -1.432  -0.535  -0.041  0.00  0.00     0.415 C 
ATOM     15  F1  <0> d          -2.066  -0.071  -1.199  0.00  0.00    -0.168 F 
ATOM     16  F2  <0> d          -1.412  -1.933  -0.049  0.00  0.00    -0.168 F 
ATOM     17  F3  <0> d          -2.130  -0.085   1.085  0.00  0.00    -0.168 F 
ENDBRANCH   4  14
TORSDOF 1
