REMARK  1 active torsions:
REMARK  status: ('A' for Active; 'I' for Inactive)
REMARK    1  A    between atoms: C6_6  and  N1_7 
ROOT
ATOM      1  C1  <0> d           4.468   0.267  -0.039  0.00  0.00    -0.055 A 
ATOM      2  C2  <0> d           3.620   1.328  -0.026  0.00  0.00    -0.052 A 
ATOM      3  C3  <0> d           2.218   1.139  -0.013  0.00  0.00     0.074 A 
ATOM      4  C4  <0> d           1.768  -0.202  -0.016  0.00  0.00     0.037 A 
ATOM      5  C5  <0> d           2.627  -1.272  -0.030  0.00  0.00    -0.039 A 
ATOM      6  C6  <0> d           3.997  -1.045  -0.042  0.00  0.00     0.027 A 
ATOM      7  S1  <0> d           0.002  -0.004   0.002  0.00  0.00    -0.080 SA
ATOM      8  C7  <0> d          -0.022   1.783   0.012  0.00  0.00     0.041 A 
ATOM      9  N2  <0> d           1.249   2.079   0.001  0.00  0.00    -0.253 NA
ATOM     10  H1  <0> d           5.534   0.444  -0.048  0.00  0.00     0.087 H 
ATOM     11  H2  <0> d           4.021   2.331  -0.025  0.00  0.00     0.087 H 
ATOM     12  H3  <0> d           2.242  -2.281  -0.031  0.00  0.00     0.089 H 
ATOM     13  H6  <0> d          -0.873   2.449   0.020  0.00  0.00     0.126 H 
ENDROOT
BRANCH   6  14
ATOM     14  N1  <0> d           4.893  -2.119  -0.056  0.00  0.00    -0.399 N 
ATOM     15  H4  <0> d           4.558  -3.029  -0.057  0.00  0.00     0.156 HD
ATOM     16  H5  <0> d           5.848  -1.953  -0.064  0.00  0.00     0.156 HD
ENDBRANCH   6  14
TORSDOF 1
