REMARK  2 active torsions:
REMARK  status: ('A' for Active; 'I' for Inactive)
REMARK    1  A    between atoms: C3_3  and  O1_9 
REMARK    2  A    between atoms: C4_4  and  N1_8 
ROOT
ATOM      1  C1  <0> d          -1.220   1.751   0.017  0.00  0.00    -0.043 A 
ATOM      2  C2  <0> d          -0.013   1.076   0.008  0.00  0.00    -0.046 A 
ATOM      3  C3  <0> d           1.177   1.784   0.000  0.00  0.00     0.091 A 
ATOM      4  C4  <0> d           1.156   3.177   0.008  0.00  0.00     0.062 A 
ATOM      5  C5  <0> d          -0.057   3.849   0.023  0.00  0.00    -0.018 A 
ATOM      6  C6  <0> d          -1.243   3.135   0.031  0.00  0.00     0.118 A 
ATOM      7  F1  <0> d          -2.425   3.789   0.045  0.00  0.00    -0.206 F 
ATOM      8  H1  <0> d          -2.147   1.196   0.018  0.00  0.00     0.088 H 
ATOM      9  H2  <0> d           0.002  -0.004   0.002  0.00  0.00     0.087 H 
ATOM     10  H3  <0> d          -0.077   4.929   0.029  0.00  0.00     0.091 H 
ENDROOT
BRANCH   4  11
ATOM     11  N1  <0> d           2.356   3.897   0.001  0.00  0.00    -0.397 N 
ATOM     12  H4  <0> d           3.204   3.426  -0.009  0.00  0.00     0.156 HD
ATOM     13  H5  <0> d           2.340   4.867   0.006  0.00  0.00     0.156 HD
ENDBRANCH   4  11
BRANCH   3  14
ATOM     14  O1  <0> d           2.365   1.120  -0.015  0.00  0.00    -0.358 OA
ATOM     15  H6  <0> d           2.700   0.934  -0.903  0.00  0.00     0.217 HD
ENDBRANCH   3  14
TORSDOF 2
