REMARK  8 active torsions:
REMARK  status: ('A' for Active; 'I' for Inactive)
REMARK    1  A    between atoms: C1_1  and  C2_2 
REMARK    2  A    between atoms: C2_2  and  C3_3 
REMARK    3  A    between atoms: C3_3  and  C4_5 
REMARK    4  A    between atoms: C3_3  and  O3_9 
REMARK    5  A    between atoms: C4_5  and  O2_7 
REMARK    6  A    between atoms: O2_7  and  C5_8 
REMARK    7  A    between atoms: O3_9  and  C6_10 
REMARK    8  A    between atoms: C6_10  and  C7_11 
ROOT
ATOM      1  C3  <0> d          -1.442  -0.541   0.146  0.00  0.00     0.121 C 
ATOM      2  H1  <0> d          -1.760   0.154   0.923  0.00  0.00     0.099 H 
ENDROOT
BRANCH   1   3
ATOM      3  C2  <0> d           0.060  -0.382  -0.097  0.00  0.00    -0.035 C 
ATOM      4  H5  <0> d           0.359  -1.004  -0.941  0.00  0.00     0.036 H 
ATOM      5  H6  <0> d           0.607  -0.692   0.794  0.00  0.00     0.036 H 
BRANCH   3   6
ATOM      6  C1  <0> d           0.374   1.083  -0.405  0.00  0.00    -0.074 C 
ATOM      7  H2  <0> d           1.453   1.211  -0.501  0.00  0.00     0.027 H 
ATOM      8  H3  <0> d          -0.110   1.370  -1.339  0.00  0.00     0.027 H 
ATOM      9  H4  <0> d           0.004   1.712   0.404  0.00  0.00     0.027 H 
ENDBRANCH   3   6
ENDBRANCH   1   3
BRANCH   1  10
ATOM     10  C4  <0> d          -1.734  -1.953   0.586  0.00  0.00     0.287 C 
ATOM     11  O1  <0> d          -2.400  -2.678  -0.115  0.00  0.00    -0.262 OA
BRANCH  10  12
ATOM     12  O2  <0> d          -1.253  -2.405   1.754  0.00  0.00    -0.324 OA
BRANCH  12  13
ATOM     13  C5  <0> d          -1.568  -3.753   2.108  0.00  0.00     0.013 C 
ATOM     14  H7  <0> d          -2.650  -3.869   2.172  0.00  0.00     0.067 H 
ATOM     15  H8  <0> d          -1.175  -4.429   1.348  0.00  0.00     0.067 H 
ATOM     16  H9  <0> d          -1.119  -3.990   3.072  0.00  0.00     0.067 H 
ENDBRANCH  12  13
ENDBRANCH  10  12
ENDBRANCH   1  10
BRANCH   1  17
ATOM     17  O3  <0> d          -2.152  -0.262  -1.062  0.00  0.00    -0.376 OA
BRANCH  17  18
ATOM     18  C6  <0> d          -2.734   1.043  -1.106  0.00  0.00     0.017 C 
ATOM     19  H10 <0> d          -3.494   1.129  -0.330  0.00  0.00     0.073 H 
ATOM     20  H11 <0> d          -1.959   1.792  -0.940  0.00  0.00     0.073 H 
BRANCH  18  21
ATOM     21  C7  <0> d          -3.375   1.269  -2.477  0.00  0.00    -0.056 C 
ATOM     22  H12 <0> d          -2.614   1.184  -3.253  0.00  0.00     0.030 H 
ATOM     23  H13 <0> d          -4.150   0.521  -2.643  0.00  0.00     0.030 H 
ATOM     24  H14 <0> d          -3.818   2.264  -2.510  0.00  0.00     0.030 H 
ENDBRANCH  18  21
ENDBRANCH  17  18
ENDBRANCH   1  17
TORSDOF 8
