REMARK  2 active torsions:
REMARK  status: ('A' for Active; 'I' for Inactive)
REMARK    1  A    between atoms: C2_2  and  O1_12 
REMARK    2  A    between atoms: C6_6  and  N1_7 
ROOT
ATOM      1  C1  <0> d           1.859   1.821   1.204  0.00  0.00    -0.025 A 
ATOM      2  C2  <0> d           1.223   1.532  -0.001  0.00  0.00     0.070 A 
ATOM      3  C3  <0> d           1.833   1.826  -1.205  0.00  0.00    -0.023 A 
ATOM      4  C4  <0> d           3.097   2.410  -1.221  0.00  0.00     0.066 A 
ATOM      5  C5  <0> d           3.748   2.698  -0.008  0.00  0.00     0.037 A 
ATOM      6  C6  <0> d           3.114   2.394   1.212  0.00  0.00     0.042 A 
ATOM      7  C7  <0> d           4.996   3.277  -0.338  0.00  0.00     0.036 A 
ATOM      8  N2  <0> d           5.098   3.337  -1.634  0.00  0.00    -0.186 NA
ATOM      9  N3  <0> d           3.943   2.810  -2.224  0.00  0.00    -0.278 N 
ATOM     10  H1  <0> d           3.765   2.737  -3.205  0.00  0.00     0.189 HD
ATOM     11  H2  <0> d           1.368   1.590   2.138  0.00  0.00     0.091 H 
ATOM     12  H3  <0> d           1.330   1.602  -2.135  0.00  0.00     0.091 H 
ATOM     13  H6  <0> d           5.741   3.614   0.368  0.00  0.00     0.118 H 
ENDROOT
BRANCH   6  14
ATOM     14  N1  <0> d           3.749   2.675   2.420  0.00  0.00    -0.398 N 
ATOM     15  H4  <0> d           4.630   3.081   2.423  0.00  0.00     0.156 HD
ATOM     16  H5  <0> d           3.310   2.465   3.259  0.00  0.00     0.156 HD
ENDBRANCH   6  14
BRANCH   2  17
ATOM     17  O1  <0> d          -0.011   0.963   0.007  0.00  0.00    -0.361 OA
ATOM     18  H7  <0> d           0.002  -0.004   0.002  0.00  0.00     0.217 HD
ENDBRANCH   2  17
TORSDOF 2
