REMARK  2 active torsions:
REMARK  status: ('A' for Active; 'I' for Inactive)
REMARK    1  A    between atoms: C6_6  and  C7_7 
REMARK    2  A    between atoms: C7_7  and  O1_8 
ROOT
ATOM      1  C1  <0> d          -2.952   2.964  -0.277  0.00  0.00    -0.065 C 
ATOM      2  C2  <0> d          -2.631   1.582  -0.828  0.00  0.00    -0.065 C 
ATOM      3  C3  <0> d          -1.183   1.539  -1.252  0.00  0.00    -0.062 C 
ATOM      4  C4  <0> d          -0.324   0.996  -0.095  0.00  0.00    -0.045 C 
ATOM      5  C5  <0> d          -0.784   1.541   1.245  0.00  0.00    -0.082 C 
ATOM      6  C6  <0> d          -0.840   0.727   2.270  0.00  0.00    -0.079 C 
ATOM      7  C8  <0> d          -1.173   2.965   1.444  0.00  0.00    -0.045 C 
ATOM      8  C9  <0> d          -2.687   3.134   1.161  0.00  0.00    -0.062 C 
ATOM      9  H1  <0> d          -2.361   3.698  -0.825  0.00  0.00     0.033 H 
ATOM     10  H2  <0> d          -4.007   3.170  -0.458  0.00  0.00     0.033 H 
ATOM     11  H3  <0> d          -3.268   1.375  -1.687  0.00  0.00     0.033 H 
ATOM     12  H4  <0> d          -2.806   0.832  -0.056  0.00  0.00     0.033 H 
ATOM     13  H5  <0> d          -0.850   2.545  -1.510  0.00  0.00     0.033 H 
ATOM     14  H6  <0> d          -1.077   0.888  -2.120  0.00  0.00     0.033 H 
ATOM     15  H7  <0> d          -0.395  -0.092  -0.079  0.00  0.00     0.039 H 
ATOM     16  H8  <0> d           0.715   1.282  -0.258  0.00  0.00     0.039 H 
ATOM     17  H9  <0> d          -0.471  -0.284   2.177  0.00  0.00     0.080 H 
ATOM     18  H13 <0> d          -0.604   3.596   0.760  0.00  0.00     0.039 H 
ATOM     19  H14 <0> d          -0.961   3.260   2.471  0.00  0.00     0.039 H 
ATOM     20  H15 <0> d          -3.005   4.129   1.472  0.00  0.00     0.033 H 
ATOM     21  H16 <0> d          -3.246   2.385   1.722  0.00  0.00     0.033 H 
ENDROOT
BRANCH   6  22
ATOM     22  C7  <0> d          -1.417   1.201   3.579  0.00  0.00     0.032 C 
ATOM     23  H10 <0> d          -0.609   1.386   4.287  0.00  0.00     0.080 H 
ATOM     24  H11 <0> d          -1.976   2.122   3.416  0.00  0.00     0.080 H 
BRANCH  22  25
ATOM     25  O1  <0> d          -2.291   0.200   4.104  0.00  0.00    -0.397 OA
ATOM     26  H12 <0> d          -2.700   0.438   4.947  0.00  0.00     0.209 HD
ENDBRANCH  22  25
ENDBRANCH   6  22
TORSDOF 2
