REMARK  4 active torsions:
REMARK  status: ('A' for Active; 'I' for Inactive)
REMARK    1  A    between atoms: C1_1  and  C2_2 
REMARK    2  A    between atoms: C4_4  and  C8_10 
REMARK    3  A    between atoms: N1_5  and  C5_7 
REMARK    4  A    between atoms: C5_7  and  C6_8 
ROOT
ATOM      1  C6  <0> d          -0.725   1.573  -1.185  0.00  0.00    -0.096 C 
ATOM      2  C7  <0> d          -1.292   1.962  -2.136  0.00  0.00    -0.152 C 
ATOM      3  H7  <0> d          -1.800   2.310  -2.986  0.00  0.00     0.166 H 
ENDROOT
BRANCH   1   4
ATOM      4  C5  <0> d          -0.013   1.086   0.008  0.00  0.00     0.070 C 
ATOM      5  H5  <0> d           0.002  -0.004   0.002  0.00  0.00     0.086 H 
ATOM      6  H6  <0> d           1.010   1.463   0.000  0.00  0.00     0.086 H 
BRANCH   4   7
ATOM      7  N1  <0> d          -0.698   1.558   1.213  0.00  0.00    -0.263 N 
ATOM      8  C4  <0> d          -0.449   2.711   1.869  0.00  0.00     0.029 A 
ATOM      9  C3  <0> d          -1.294   2.778   2.923  0.00  0.00    -0.035 A 
ATOM     10  C2  <0> d          -2.082   1.622   2.917  0.00  0.00     0.053 A 
ATOM     11  H4  <0> d          -1.349   3.580   3.644  0.00  0.00     0.089 H 
ATOM     12  N2  <0> d          -1.725   0.890   1.893  0.00  0.00    -0.177 NA
BRANCH   8  13
ATOM     13  C8  <0> d           0.585   3.741   1.491  0.00  0.00    -0.036 C 
ATOM     14  H8  <0> d           0.139   4.472   0.816  0.00  0.00     0.035 H 
ATOM     15  H9  <0> d           0.940   4.246   2.390  0.00  0.00     0.035 H 
ATOM     16  H10 <0> d           1.422   3.251   0.995  0.00  0.00     0.035 H 
ENDBRANCH   8  13
BRANCH  10  17
ATOM     17  C1  <0> d          -3.154   1.279   3.918  0.00  0.00    -0.034 C 
ATOM     18  H1  <0> d          -2.715   0.718   4.743  0.00  0.00     0.035 H 
ATOM     19  H2  <0> d          -3.602   2.196   4.300  0.00  0.00     0.035 H 
ATOM     20  H3  <0> d          -3.922   0.674   3.435  0.00  0.00     0.035 H 
ENDBRANCH  10  17
ENDBRANCH   4   7
ENDBRANCH   1   4
TORSDOF 4
