REMARK  4 active torsions:
REMARK  status: ('A' for Active; 'I' for Inactive)
REMARK    1  A    between atoms: C2_2  and  N3_9 
REMARK    2  A    between atoms: N1_4  and  C4_6 
REMARK    3  A    between atoms: C4_6  and  C5_7 
REMARK    4  A    between atoms: C5_7  and  O1_8 
ROOT
ATOM      1  C1  <0> d          -0.695   3.200   0.026  0.00  0.00     0.048 A 
ATOM      2  C2  <0> d          -1.118   1.863   0.017  0.00  0.00     0.062 A 
ATOM      3  C3  <0> d          -0.013   1.076   0.008  0.00  0.00     0.025 A 
ATOM      4  N1  <0> d           1.073   1.894   0.002  0.00  0.00    -0.277 N 
ATOM      5  N2  <0> d           0.614   3.217   0.013  0.00  0.00    -0.183 NA
ATOM      6  H1  <0> d          -1.338   4.066   0.036  0.00  0.00     0.121 H 
ATOM      7  H2  <0> d           0.002  -0.004   0.002  0.00  0.00     0.117 H 
ENDROOT
BRANCH   4   8
ATOM      8  C4  <0> d           2.475   1.468  -0.013  0.00  0.00     0.036 C 
ATOM      9  H3  <0> d           2.962   1.776   0.924  0.00  0.00     0.070 H 
ATOM     10  H4  <0> d           2.524   0.373  -0.110  0.00  0.00     0.070 H 
BRANCH   8  11
ATOM     11  C5  <0> d           3.192   2.117  -1.198  0.00  0.00     0.033 C 
ATOM     12  H5  <0> d           2.705   1.809  -2.135  0.00  0.00     0.076 H 
ATOM     13  H6  <0> d           3.143   3.211  -1.102  0.00  0.00     0.076 H 
BRANCH  11  14
ATOM     14  O1  <0> d           4.559   1.701  -1.213  0.00  0.00    -0.399 OA
ATOM     15  H7  <0> d           5.237   2.067  -1.998  0.00  0.00     0.209 HD
ENDBRANCH  11  14
ENDBRANCH   8  11
ENDBRANCH   4   8
BRANCH   2  16
ATOM     16  N3  <0> d          -2.453   1.416   0.019  0.00  0.00    -0.397 N 
ATOM     17  H8  <0> d          -2.673   0.339   0.012  0.00  0.00     0.156 HD
ATOM     18  H9  <0> d          -3.277   2.146   0.029  0.00  0.00     0.156 HD
ENDBRANCH   2  16
TORSDOF 4
