REMARK  6 active torsions:
REMARK  status: ('A' for Active; 'I' for Inactive)
REMARK    1  A    between atoms: C1_1  and  C2_2 
REMARK    2  A    between atoms: C2_2  and  O1_3 
REMARK    3  A    between atoms: O1_3  and  C3_4 
REMARK    4  A    between atoms: C3_4  and  C4_6 
REMARK    5  A    between atoms: C4_6  and  C5_7 
REMARK    6  A    between atoms: C5_7  and  C6_8 
ROOT
ATOM      1  O1  <0> d           2.371   1.132  -0.015  0.00  0.00    -0.318 OA
ENDROOT
BRANCH   1   2
ATOM      2  C2  <0> d           3.558   1.927  -0.022  0.00  0.00     0.026 C 
ATOM      3  H4  <0> d           3.566   2.561  -0.908  0.00  0.00     0.074 H 
ATOM      4  H5  <0> d           3.583   2.551   0.872  0.00  0.00     0.074 H 
BRANCH   2   5
ATOM      5  C1  <0> d           4.784   1.011  -0.038  0.00  0.00    -0.056 C 
ATOM      6  H1  <0> d           4.776   0.377   0.849  0.00  0.00     0.030 H 
ATOM      7  H2  <0> d           4.759   0.387  -0.931  0.00  0.00     0.030 H 
ATOM      8  H3  <0> d           5.690   1.617  -0.044  0.00  0.00     0.030 H 
ENDBRANCH   2   5
ENDBRANCH   1   2
BRANCH   1   9
ATOM      9  C3  <0> d           1.190   1.792   0.000  0.00  0.00     0.290 C 
ATOM     10  O2  <0> d           1.174   3.010   0.007  0.00  0.00    -0.260 OA
BRANCH   9  11
ATOM     11  C4  <0> d          -0.013   1.076   0.008  0.00  0.00     0.027 C 
ATOM     12  H6  <0> d           0.002  -0.004   0.002  0.00  0.00     0.105 H 
BRANCH  11  13
ATOM     13  C5  <0> d          -1.153   1.714   0.017  0.00  0.00    -0.149 C 
BRANCH  13  14
ATOM     14  C6  <0> d          -2.294   2.352   0.026  0.00  0.00    -0.007 C 
ATOM     15  H7  <0> d          -2.770   2.621  -0.906  0.00  0.00     0.052 H 
ATOM     16  H8  <0> d          -2.761   2.610   0.965  0.00  0.00     0.052 H 
ENDBRANCH  13  14
ENDBRANCH  11  13
ENDBRANCH   9  11
ENDBRANCH   1   9
TORSDOF 6
