REMARK  3 active torsions:
REMARK  status: ('A' for Active; 'I' for Inactive)
REMARK    1  A    between atoms: C1_1  and  C2_2 
REMARK    2  A    between atoms: C2_2  and  O2_4 
REMARK    3  A    between atoms: O2_4  and  C3_5 
ROOT
ATOM      1  C3  <0> d           1.196   2.071   0.002  0.00  0.00     0.194 A 
ATOM      2  C4  <0> d          -0.016   1.356   0.009  0.00  0.00    -0.025 A 
ATOM      3  C5  <0> d           0.002  -0.004   0.002  0.00  0.00    -0.010 A 
ATOM      4  C6  <0> d           1.241  -0.677  -0.013  0.00  0.00     0.285 A 
ATOM      5  O3  <0> d           1.278  -1.897  -0.020  0.00  0.00    -0.265 OA
ATOM      6  N1  <0> d           2.384   0.037  -0.021  0.00  0.00    -0.105 NA
ATOM      7  N2  <0> d           2.341   1.436  -0.013  0.00  0.00    -0.121 NA
ATOM      8  H4  <0> d          -0.958   1.885   0.017  0.00  0.00     0.090 H 
ATOM      9  H5  <0> d          -0.922  -0.562   0.007  0.00  0.00     0.092 H 
ENDROOT
BRANCH   1  10
ATOM     10  O2  <0> d           1.177   3.429   0.009  0.00  0.00    -0.258 OA
BRANCH  10  11
ATOM     11  C2  <0> d           2.366   4.055   0.001  0.00  0.00     0.261 C 
ATOM     12  O1  <0> d           3.388   3.410  -0.012  0.00  0.00    -0.265 OA
BRANCH  11  13
ATOM     13  C1  <0> d           2.424   5.561   0.008  0.00  0.00     0.004 C 
ATOM     14  H1  <0> d           1.402   5.967   0.019  0.00  0.00     0.041 H 
ATOM     15  H2  <0> d           2.948   5.911  -0.893  0.00  0.00     0.041 H 
ATOM     16  H3  <0> d           2.965   5.902   0.903  0.00  0.00     0.041 H 
ENDBRANCH  11  13
ENDBRANCH  10  11
ENDBRANCH   1  10
TORSDOF 3
