REMARK  8 active torsions:
REMARK  status: ('A' for Active; 'I' for Inactive)
REMARK    1  A    between atoms: C1_1  and  C2_2 
REMARK    2  A    between atoms: C2_2  and  O1_3 
REMARK    3  A    between atoms: O1_3  and  C3_4 
REMARK    4  A    between atoms: C3_4  and  C4_6 
REMARK    5  A    between atoms: C4_6  and  C5_7 
REMARK    6  A    between atoms: C5_7  and  C6_8 
REMARK    7  A    between atoms: N1_9  and  C7_10 
REMARK    8  A    between atoms: N1_9  and  C8_11 
ROOT
ATOM      1  C5  <0> d          -0.269   1.380  -4.737  0.00  0.00     0.008 C 
ATOM      2  N1  <0> d           0.855   0.608  -4.818  0.00  0.00    -0.393 N 
ENDROOT
BRANCH   1   3
ATOM      3  C4  <0> d          -0.821   1.645  -3.533  0.00  0.00     0.011 C 
ATOM      4  H6  <0> d          -1.758   2.178  -3.475  0.00  0.00     0.096 H 
BRANCH   3   5
ATOM      5  C3  <0> d          -0.173   1.224  -2.352  0.00  0.00     0.284 C 
ATOM      6  O2  <0> d           0.832   0.541  -2.419  0.00  0.00    -0.260 OA
BRANCH   5   7
ATOM      7  O1  <0> d          -0.667   1.580  -1.147  0.00  0.00    -0.318 OA
BRANCH   7   8
ATOM      8  C2  <0> d           0.039   1.120   0.006  0.00  0.00     0.026 C 
ATOM      9  H4  <0> d           0.060   0.030   0.009  0.00  0.00     0.074 H 
ATOM     10  H5  <0> d           1.060   1.502  -0.016  0.00  0.00     0.074 H 
BRANCH   8  11
ATOM     11  C1  <0> d          -0.665   1.619   1.269  0.00  0.00    -0.056 C 
ATOM     12  H1  <0> d          -1.686   1.236   1.291  0.00  0.00     0.030 H 
ATOM     13  H2  <0> d          -0.126   1.268   2.149  0.00  0.00     0.030 H 
ATOM     14  H3  <0> d          -0.686   2.709   1.267  0.00  0.00     0.030 H 
ENDBRANCH   8  11
ENDBRANCH   7   8
ENDBRANCH   5   7
ENDBRANCH   3   5
ENDBRANCH   1   3
BRANCH   1  15
ATOM     15  C6  <0> d          -0.894   1.935  -5.991  0.00  0.00    -0.037 C 
ATOM     16  H7  <0> d          -0.400   2.868  -6.260  0.00  0.00     0.035 H 
ATOM     17  H8  <0> d          -0.780   1.216  -6.803  0.00  0.00     0.035 H 
ATOM     18  H9  <0> d          -1.954   2.122  -5.817  0.00  0.00     0.035 H 
ENDBRANCH   1  15
BRANCH   2  19
ATOM     19  C7  <0> d           0.740  -0.852  -4.858  0.00  0.00    -0.019 C 
ATOM     20  H10 <0> d           0.749  -1.188  -5.895  0.00  0.00     0.056 H 
ATOM     21  H11 <0> d           1.579  -1.297  -4.324  0.00  0.00     0.056 H 
ATOM     22  H12 <0> d          -0.194  -1.156  -4.386  0.00  0.00     0.056 H 
ENDBRANCH   2  19
BRANCH   2  23
ATOM     23  C8  <0> d           2.175   1.241  -4.864  0.00  0.00    -0.019 C 
ATOM     24  H13 <0> d           2.593   1.284  -3.858  0.00  0.00     0.056 H 
ATOM     25  H14 <0> d           2.835   0.658  -5.507  0.00  0.00     0.056 H 
ATOM     26  H15 <0> d           2.081   2.251  -5.262  0.00  0.00     0.056 H 
ENDBRANCH   2  23
TORSDOF 8
