REMARK  2 active torsions:
REMARK  status: ('A' for Active; 'I' for Inactive)
REMARK    1  A    between atoms: C1_1  and  N1_2 
REMARK    2  A    between atoms: C3_4  and  N4_7 
ROOT
ATOM      1  N1  <0> d           2.025   0.790  -0.013  0.00  0.00    -0.263 N 
ATOM      2  C2  <0> d           1.310  -0.370  -0.012  0.00  0.00     0.045 A 
ATOM      3  C3  <0> d           0.002  -0.004   0.002  0.00  0.00     0.162 A 
ATOM      4  N2  <0> d          -0.016   1.336   0.009  0.00  0.00    -0.113 NA
ATOM      5  N3  <0> d           1.193   1.773   0.000  0.00  0.00    -0.065 NA
ATOM      6  H4  <0> d           1.704  -1.376  -0.022  0.00  0.00     0.120 H 
ENDROOT
BRANCH   1   7
ATOM      7  C1  <0> d           3.485   0.900  -0.026  0.00  0.00     0.004 C 
ATOM      8  H1  <0> d           3.838   0.933  -1.056  0.00  0.00     0.059 H 
ATOM      9  H2  <0> d           3.785   1.813   0.490  0.00  0.00     0.059 H 
ATOM     10  H3  <0> d           3.919   0.038   0.480  0.00  0.00     0.059 H 
ENDBRANCH   1   7
BRANCH   3  11
ATOM     11  N4  <0> d          -1.111  -0.860   0.008  0.00  0.00    -0.381 N 
ATOM     12  H5  <0> d          -2.007  -0.490   0.018  0.00  0.00     0.157 HD
ATOM     13  H6  <0> d          -0.983  -1.822   0.001  0.00  0.00     0.157 HD
ENDBRANCH   3  11
TORSDOF 2
