REMARK  2 active torsions:
REMARK  status: ('A' for Active; 'I' for Inactive)
REMARK    1  A    between atoms: C4_5  and  C5_7 
REMARK    2  A    between atoms: C5_7  and  N2_11 
ROOT
ATOM      1  C5  <0> d          -0.013   1.086   0.008  0.00  0.00     0.217 C 
ATOM      2  H2  <0> d          -0.039  -0.014   0.004  0.00  0.00     0.112 H 
ATOM      3  C6  <0> d          -0.725   1.573  -1.185  0.00  0.00     0.095 C 
ATOM      4  N1  <0> d          -1.274   1.950  -2.105  0.00  0.00    -0.195 NA
ENDROOT
BRANCH   1   5
ATOM      5  C4  <0> d           1.423   1.615  -0.003  0.00  0.00     0.011 C 
ATOM      6  C1  <0> d           2.179   1.135  -1.265  0.00  0.00    -0.037 C 
ATOM      7  C2  <0> d           3.585   0.772  -0.748  0.00  0.00     0.020 C 
ATOM      8  H3  <0> d           1.660   0.266  -1.695  0.00  0.00     0.036 H 
ATOM      9  H4  <0> d           2.209   1.947  -2.006  0.00  0.00     0.036 H 
ATOM     10  O1  <0> d           3.614   1.075   0.657  0.00  0.00    -0.391 OA
ATOM     11  H5  <0> d           3.772  -0.299  -0.916  0.00  0.00     0.074 H 
ATOM     12  H6  <0> d           4.338   1.366  -1.286  0.00  0.00     0.074 H 
ATOM     13  C3  <0> d           2.256   0.978   1.138  0.00  0.00     0.026 C 
ATOM     14  H7  <0> d           2.000  -0.079   1.303  0.00  0.00     0.075 H 
ATOM     15  H8  <0> d           2.162   1.530   2.084  0.00  0.00     0.075 H 
ATOM     16  H1  <0> d           1.320   2.708   0.071  0.00  0.00     0.048 H 
ENDBRANCH   1   5
BRANCH   1  17
ATOM     17  N2  <0> d          -0.700   1.560   1.217  0.00  0.00     0.096 N 
ATOM     18  H9  <0> d          -1.732   1.179   1.224  0.00  0.00     0.314 HD
ATOM     19  H10 <0> d          -0.168   1.195   2.108  0.00  0.00     0.314 HD
ENDBRANCH   1  17
TORSDOF 2
