REMARK  4 active torsions:
REMARK  status: ('A' for Active; 'I' for Inactive)
REMARK    1  A    between atoms: C1_1  and  C2_2 
REMARK    2  A    between atoms: C2_2  and  C3_3 
REMARK    3  A    between atoms: C2_2  and  C4_4 
REMARK    4  A    between atoms: C4_4  and  C5_6 
ROOT
ATOM      1  C2  <0> d          -0.013   1.086   0.008  0.00  0.00     0.002 C 
ATOM      2  H4  <0> d           0.001   0.086   0.003  0.00  0.00     0.051 H 
ENDROOT
BRANCH   1   3
ATOM      3  C1  <0> d           1.423   1.615  -0.003  0.00  0.00    -0.066 C 
ATOM      4  H1  <0> d           1.408   2.705   0.003  0.00  0.00     0.028 H 
ATOM      5  H2  <0> d           1.950   1.254   0.880  0.00  0.00     0.028 H 
ATOM      6  H3  <0> d           1.933   1.264  -0.900  0.00  0.00     0.028 H 
ENDBRANCH   1   3
BRANCH   1   7
ATOM      7  C3  <0> d          -0.753   1.593  -1.232  0.00  0.00    -0.066 C 
ATOM      8  H5  <0> d          -1.775   1.215  -1.224  0.00  0.00     0.028 H 
ATOM      9  H6  <0> d          -0.767   2.683  -1.226  0.00  0.00     0.028 H 
ATOM     10  H7  <0> d          -0.242   1.241  -2.128  0.00  0.00     0.028 H 
ENDBRANCH   1   7
BRANCH   1  11
ATOM     11  C4  <0> d          -0.718   1.572   1.248  0.00  0.00     0.169 C 
ATOM     12  O1  <0> d          -0.407   2.635   1.746  0.00  0.00    -0.291 OA
BRANCH  11  13
ATOM     13  C5  <0> d          -1.741   0.791   1.830  0.00  0.00     0.051 A 
ATOM     14  S1  <0> d          -2.386  -0.788   1.308  0.00  0.00    -0.098 SA
ATOM     15  C8  <0> d          -3.576  -1.006   2.549  0.00  0.00    -0.044 A 
ATOM     16  C7  <0> d          -3.444   0.115   3.309  0.00  0.00    -0.075 A 
ATOM     17  H10 <0> d          -4.258  -1.833   2.687  0.00  0.00     0.095 H 
ATOM     18  C6  <0> d          -2.505   1.051   2.964  0.00  0.00    -0.062 A 
ATOM     19  H9  <0> d          -4.070   0.264   4.177  0.00  0.00     0.084 H 
ATOM     20  H8  <0> d          -2.365   1.951   3.544  0.00  0.00     0.085 H 
ENDBRANCH  11  13
ENDBRANCH   1  11
TORSDOF 4
