REMARK  2 active torsions:
REMARK  status: ('A' for Active; 'I' for Inactive)
REMARK    1  A    between atoms: C1_1  and  C2_2 
REMARK    2  A    between atoms: C5_5  and  C8_8 
ROOT
ATOM      1  C8  <0> d           1.151   3.592   0.010  0.00  0.00     0.076 A 
ATOM      2  C9  <0> d           1.624   4.312  -1.255  0.00  0.00    -0.040 A 
ATOM      3  C10 <0> d           2.498   4.317   0.001  0.00  0.00    -0.040 A 
ATOM      4  C11 <0> d           0.052   4.208   0.772  0.00  0.00     0.074 C 
ATOM      5  N1  <0> d          -0.795   4.684   1.361  0.00  0.00    -0.196 NA
ATOM      6  H8  <0> d           1.950   3.695  -2.092  0.00  0.00     0.036 H 
ATOM      7  H9  <0> d           1.122   5.242  -1.522  0.00  0.00     0.036 H 
ATOM      8  H10 <0> d           2.571   5.250   0.559  0.00  0.00     0.036 H 
ATOM      9  H11 <0> d           3.399   3.704  -0.011  0.00  0.00     0.036 H 
ENDROOT
BRANCH   1  10
ATOM     10  C5  <0> d           1.171   2.086   0.002  0.00  0.00    -0.035 A 
ATOM     11  C4  <0> d          -0.017   1.378   0.010  0.00  0.00    -0.075 A 
ATOM     12  C3  <0> d           0.002  -0.004   0.002  0.00  0.00    -0.077 A 
ATOM     13  H5  <0> d          -0.959   1.905   0.017  0.00  0.00     0.084 H 
ATOM     14  C2  <0> d           1.208  -0.679  -0.014  0.00  0.00    -0.062 A 
ATOM     15  H4  <0> d          -0.926  -0.557   0.008  0.00  0.00     0.084 H 
ATOM     16  C7  <0> d           2.396   0.029  -0.021  0.00  0.00    -0.077 A 
ATOM     17  C6  <0> d           2.377   1.411  -0.014  0.00  0.00    -0.075 A 
ATOM     18  H7  <0> d           3.339  -0.499  -0.033  0.00  0.00     0.084 H 
ATOM     19  H6  <0> d           3.305   1.963  -0.019  0.00  0.00     0.084 H 
BRANCH  14  20
ATOM     20  C1  <0> d           1.229  -2.186  -0.022  0.00  0.00    -0.051 C 
ATOM     21  H1  <0> d           1.224  -2.543  -1.052  0.00  0.00     0.033 H 
ATOM     22  H2  <0> d           2.129  -2.540   0.481  0.00  0.00     0.033 H 
ATOM     23  H3  <0> d           0.349  -2.564   0.499  0.00  0.00     0.033 H 
ENDBRANCH  14  20
ENDBRANCH   1  10
TORSDOF 2
