REMARK  2 active torsions:
REMARK  status: ('A' for Active; 'I' for Inactive)
REMARK    1  A    between atoms: C1_1  and  N1_2 
REMARK    2  A    between atoms: N1_2  and  C2_3 
ROOT
ATOM      1  C2  <0> d          -0.049   3.754   0.022  0.00  0.00     0.723 A 
ATOM      2  N2  <0> d          -1.196   3.090   0.030  0.00  0.00    -0.075 NA
ATOM      3  C3  <0> d          -1.213   1.767   0.017  0.00  0.00     0.024 A 
ATOM      4  C4  <0> d          -0.013   1.076   0.008  0.00  0.00    -0.026 A 
ATOM      5  C5  <0> d           1.171   1.801   0.001  0.00  0.00     0.146 A 
ATOM      6  N3  <0> d           1.117   3.124   0.008  0.00  0.00    -0.051 NA
ATOM      7 Cl1  <0> d           2.702   0.984  -0.017  0.00  0.00    -0.062 Cl
ATOM      8  H5  <0> d          -2.151   1.233   0.019  0.00  0.00     0.115 H 
ATOM      9  H6  <0> d           0.002  -0.004   0.002  0.00  0.00     0.090 H 
ENDROOT
BRANCH   1  10
ATOM     10  N1  <0> d          -0.069   5.138   0.029  0.00  0.00    -0.227 N 
ATOM     11  H4  <0> d           0.876   5.701   0.023  0.00  0.00     0.177 HD
BRANCH  10  12
ATOM     12  C1  <0> d          -1.348   5.851   0.044  0.00  0.00    -0.005 C 
ATOM     13  H1  <0> d          -1.163   6.936   0.048  0.00  0.00     0.057 H 
ATOM     14  H2  <0> d          -1.912   5.573   0.947  0.00  0.00     0.057 H 
ATOM     15  H3  <0> d          -1.929   5.582  -0.850  0.00  0.00     0.057 H 
ENDBRANCH  10  12
ENDBRANCH   1  10
TORSDOF 2
