REMARK  5 active torsions:
REMARK  status: ('A' for Active; 'I' for Inactive)
REMARK    1  A    between atoms: C1_1  and  C2_2 
REMARK    2  A    between atoms: C2_2  and  C3_3 
REMARK    3  A    between atoms: C2_2  and  C4_4 
REMARK    4  A    between atoms: C2_2  and  C5_5 
REMARK    5  A    between atoms: C8_9  and  N3_11 
ROOT
ATOM      1  C2  <0> d           0.002  -0.004   0.002  0.00  0.00     0.011 C 
ENDROOT
BRANCH   1   2
ATOM      2  C1  <0> d          -0.019   1.526   0.010  0.00  0.00    -0.063 C 
ATOM      3  H1  <0> d           1.004   1.903   0.003  0.00  0.00     0.029 H 
ATOM      4  H2  <0> d          -0.546   1.887  -0.873  0.00  0.00     0.029 H 
ATOM      5  H3  <0> d          -0.529   1.877   0.907  0.00  0.00     0.029 H 
ENDBRANCH   1   2
BRANCH   1   6
ATOM      6  C3  <0> d           0.742  -0.511   1.242  0.00  0.00    -0.063 C 
ATOM      7  H4  <0> d           0.232  -0.159   2.138  0.00  0.00     0.029 H 
ATOM      8  H5  <0> d           0.757  -1.601   1.236  0.00  0.00     0.029 H 
ATOM      9  H6  <0> d           1.765  -0.134   1.234  0.00  0.00     0.029 H 
ENDBRANCH   1   6
BRANCH   1  10
ATOM     10  C4  <0> d          -1.433  -0.534   0.013  0.00  0.00    -0.063 C 
ATOM     11  H7  <0> d          -1.960  -0.173  -0.870  0.00  0.00     0.029 H 
ATOM     12  H8  <0> d          -1.419  -1.623   0.007  0.00  0.00     0.029 H 
ATOM     13  H9  <0> d          -1.944  -0.182   0.910  0.00  0.00     0.029 H 
ENDBRANCH   1  10
BRANCH   1  14
ATOM     14  C5  <0> d           0.707  -0.490  -1.238  0.00  0.00     0.135 A 
ATOM     15  N2  <0> d           1.962  -0.143  -1.438  0.00  0.00    -0.216 NA
ATOM     16  C8  <0> d           2.617  -0.557  -2.519  0.00  0.00     0.124 A 
ATOM     17  C7  <0> d           1.950  -1.360  -3.447  0.00  0.00    -0.022 A 
ATOM     18  C6  <0> d           0.633  -1.694  -3.197  0.00  0.00     0.008 A 
ATOM     19  H11 <0> d           2.451  -1.711  -4.337  0.00  0.00     0.091 H 
ATOM     20  N1  <0> d           0.050  -1.246  -2.094  0.00  0.00    -0.245 NA
ATOM     21  H10 <0> d           0.085  -2.314  -3.892  0.00  0.00     0.115 H 
BRANCH  16  22
ATOM     22  N3  <0> d           3.938  -0.195  -2.724  0.00  0.00    -0.384 N 
ATOM     23  H12 <0> d           4.407  -0.499  -3.517  0.00  0.00     0.157 HD
ATOM     24  H13 <0> d           4.394   0.363  -2.075  0.00  0.00     0.157 HD
ENDBRANCH  16  22
ENDBRANCH   1  14
TORSDOF 5
