REMARK  2 active torsions:
REMARK  status: ('A' for Active; 'I' for Inactive)
REMARK    1  A    between atoms: C1_1  and  C2_2 
REMARK    2  A    between atoms: C2_2  and  C4_4 
ROOT
ATOM      1  C4  <0> d          -0.000  -0.736  -1.282  0.00  0.00    -0.031 A 
ATOM      2  C5  <0> d           1.087  -0.629  -2.151  0.00  0.00    -0.070 A 
ATOM      3  C6  <0> d           1.080  -1.315  -3.347  0.00  0.00    -0.045 A 
ATOM      4  C7  <0> d          -0.004  -2.108  -3.688  0.00  0.00     0.116 A 
ATOM      5  C8  <0> d          -1.086  -2.217  -2.829  0.00  0.00    -0.045 A 
ATOM      6  C9  <0> d          -1.087  -1.541  -1.627  0.00  0.00    -0.070 A 
ATOM      7  F1  <0> d          -0.006  -2.778  -4.862  0.00  0.00    -0.206 F 
ATOM      8  H6  <0> d           1.932  -0.011  -1.886  0.00  0.00     0.085 H 
ATOM      9  H7  <0> d           1.921  -1.233  -4.020  0.00  0.00     0.088 H 
ATOM     10  H8  <0> d          -1.929  -2.837  -3.099  0.00  0.00     0.088 H 
ATOM     11  H9  <0> d          -1.928  -1.630  -0.957  0.00  0.00     0.085 H 
ENDROOT
BRANCH   1  12
ATOM     12  C2  <0> d           0.002  -0.004   0.002  0.00  0.00    -0.061 C 
ATOM     13  C3  <0> d           0.022  -0.673   1.146  0.00  0.00    -0.115 C 
ATOM     14  H4  <0> d           0.024  -0.138   2.085  0.00  0.00     0.067 H 
ATOM     15  H5  <0> d           0.037  -1.753   1.141  0.00  0.00     0.067 H 
BRANCH  12  16
ATOM     16  C1  <0> d          -0.018   1.503   0.010  0.00  0.00    -0.051 C 
ATOM     17  H1  <0> d           1.004   1.880   0.003  0.00  0.00     0.033 H 
ATOM     18  H2  <0> d          -0.545   1.864  -0.873  0.00  0.00     0.033 H 
ATOM     19  H3  <0> d          -0.529   1.854   0.907  0.00  0.00     0.033 H 
ENDBRANCH  12  16
ENDBRANCH   1  12
TORSDOF 2
