REMARK  3 active torsions:
REMARK  status: ('A' for Active; 'I' for Inactive)
REMARK    1  A    between atoms: C4_4  and  O1_7 
REMARK    2  A    between atoms: O1_7  and  C7_8 
REMARK    3  A    between atoms: C7_8  and  C8_9 
ROOT
ATOM      1  C8  <0> d          -1.171   7.351   0.050  0.00  0.00     0.035 C 
ATOM      2  C9  <0> d          -2.491   8.002   0.067  0.00  0.00     0.061 C 
ATOM      3  N1  <0> d          -3.510   8.504   0.079  0.00  0.00    -0.197 NA
ATOM      4  H8  <0> d          -0.604   7.651   0.944  0.00  0.00     0.058 H 
ATOM      5  H9  <0> d          -0.621   7.659  -0.852  0.00  0.00     0.058 H 
ENDROOT
BRANCH   1   6
ATOM      6  C7  <0> d          -1.350   5.832   0.045  0.00  0.00     0.037 C 
ATOM      7  H6  <0> d          -1.917   5.533  -0.849  0.00  0.00     0.076 H 
ATOM      8  H7  <0> d          -1.899   5.525   0.947  0.00  0.00     0.076 H 
BRANCH   6   9
ATOM      9  O1  <0> d          -0.069   5.201   0.029  0.00  0.00    -0.350 OA
BRANCH   9  10
ATOM     10  C4  <0> d          -0.050   3.842   0.023  0.00  0.00     0.068 A 
ATOM     11  C3  <0> d          -1.241   3.131   0.031  0.00  0.00    -0.051 A 
ATOM     12  C2  <0> d          -1.220   1.750   0.017  0.00  0.00    -0.080 A 
ATOM     13  H3  <0> d          -2.185   3.657   0.042  0.00  0.00     0.087 H 
ATOM     14  C1  <0> d          -0.013   1.076   0.008  0.00  0.00    -0.083 A 
ATOM     15  H2  <0> d          -2.147   1.196   0.018  0.00  0.00     0.083 H 
ATOM     16  C6  <0> d           1.176   1.782   0.000  0.00  0.00    -0.080 A 
ATOM     17  H1  <0> d           0.002  -0.004   0.002  0.00  0.00     0.083 H 
ATOM     18  C5  <0> d           1.160   3.163   0.007  0.00  0.00    -0.051 A 
ATOM     19  H5  <0> d           2.118   1.254  -0.011  0.00  0.00     0.083 H 
ATOM     20  H4  <0> d           2.089   3.715   0.001  0.00  0.00     0.087 H 
ENDBRANCH   9  10
ENDBRANCH   6   9
ENDBRANCH   1   6
TORSDOF 3
