REMARK  5 active torsions:
REMARK  status: ('A' for Active; 'I' for Inactive)
REMARK    1  A    between atoms: C1_1  and  C2_2 
REMARK    2  A    between atoms: C2_2  and  C3_3 
REMARK    3  A    between atoms: C2_2  and  C4_4 
REMARK    4  A    between atoms: C4_4  and  C5_5 
REMARK    5  A    between atoms: C5_5  and  C6_6 
ROOT
ATOM      1  C5  <0> d          -2.135  -0.131  -1.286  0.00  0.00    -0.055 C 
ATOM      2  H11 <0> d          -2.150   0.956  -1.369  0.00  0.00     0.034 H 
ATOM      3  H12 <0> d          -1.598  -0.554  -2.135  0.00  0.00     0.034 H 
ENDROOT
BRANCH   1   4
ATOM      4  C4  <0> d          -1.433  -0.534   0.013  0.00  0.00    -0.062 C 
ATOM      5  H9  <0> d          -1.419  -1.620   0.097  0.00  0.00     0.033 H 
ATOM      6  H10 <0> d          -1.970  -0.111   0.862  0.00  0.00     0.033 H 
BRANCH   4   7
ATOM      7  C2  <0> d           0.002  -0.004   0.002  0.00  0.00    -0.061 C 
ATOM      8  H5  <0> d           0.512  -0.356  -0.895  0.00  0.00     0.038 H 
BRANCH   7   9
ATOM      9  C1  <0> d          -0.019   1.526   0.010  0.00  0.00    -0.073 C 
ATOM     10  H2  <0> d           1.004   1.903   0.003  0.00  0.00     0.028 H 
ATOM     11  H3  <0> d          -0.546   1.887  -0.873  0.00  0.00     0.028 H 
ATOM     12  H4  <0> d          -0.529   1.877   0.907  0.00  0.00     0.028 H 
ENDBRANCH   7   9
BRANCH   7  13
ATOM     13  C3  <0> d           0.742  -0.511   1.242  0.00  0.00    -0.073 C 
ATOM     14  H6  <0> d           0.232  -0.159   2.138  0.00  0.00     0.028 H 
ATOM     15  H7  <0> d           0.757  -1.601   1.236  0.00  0.00     0.028 H 
ATOM     16  H8  <0> d           1.765  -0.134   1.234  0.00  0.00     0.028 H 
ENDBRANCH   7  13
ENDBRANCH   4   7
ENDBRANCH   1   4
BRANCH   1  17
ATOM     17  C6  <0> d          -3.571  -0.661  -1.275  0.00  0.00     0.004 C 
ATOM     18  H1  <0> d          -3.570  -1.735  -1.090  0.00  0.00     0.051 H 
ATOM     19  C10 <0> d          -4.375   0.047  -0.205  0.00  0.00     0.131 C 
ATOM     20  C9  <0> d          -5.516   0.770  -0.902  0.00  0.00    -0.009 C 
ATOM     21  O1  <0> d          -4.152   0.039   0.982  0.00  0.00    -0.298 OA
ATOM     22  C8  <0> d          -5.711  -0.007  -2.228  0.00  0.00    -0.058 C 
ATOM     23  H17 <0> d          -5.244   1.806  -1.105  0.00  0.00     0.044 H 
ATOM     24  H18 <0> d          -6.421   0.724  -0.298  0.00  0.00     0.044 H 
ATOM     25  C7  <0> d          -4.255  -0.358  -2.624  0.00  0.00    -0.055 C 
ATOM     26  H15 <0> d          -6.176   0.626  -2.984  0.00  0.00     0.033 H 
ATOM     27  H16 <0> d          -6.297  -0.911  -2.065  0.00  0.00     0.033 H 
ATOM     28  H13 <0> d          -3.776   0.490  -3.114  0.00  0.00     0.034 H 
ATOM     29  H14 <0> d          -4.234  -1.236  -3.269  0.00  0.00     0.034 H 
ENDBRANCH   1  17
TORSDOF 5
