REMARK  7 active torsions:
REMARK  status: ('A' for Active; 'I' for Inactive)
REMARK    1  A    between atoms: C1_1  and  C2_2 
REMARK    2  A    between atoms: C2_2  and  O1_3 
REMARK    3  A    between atoms: O1_3  and  C3_4 
REMARK    4  A    between atoms: C3_4  and  C4_5 
REMARK    5  A    between atoms: C3_4  and  O3_8 
REMARK       I    between atoms: C4_5  and  N1_7 
REMARK    6  A    between atoms: O3_8  and  C5_9 
REMARK    7  A    between atoms: C5_9  and  C6_10 
ROOT
ATOM      1  C3  <0> d          -0.997   3.154  -0.153  0.00  0.00     0.208 C 
ATOM      2  H6  <0> d          -0.881   3.785  -1.035  0.00  0.00     0.144 H 
ENDROOT
BRANCH   1   3
ATOM      3  O1  <0> d          -2.308   3.325   0.387  0.00  0.00    -0.353 OA
BRANCH   3   4
ATOM      4  C2  <0> d          -2.864   4.623   0.165  0.00  0.00     0.020 C 
ATOM      5  H4  <0> d          -2.175   5.382   0.537  0.00  0.00     0.073 H 
ATOM      6  H5  <0> d          -3.025   4.771  -0.903  0.00  0.00     0.073 H 
BRANCH   4   7
ATOM      7  C1  <0> d          -4.199   4.740   0.903  0.00  0.00    -0.056 C 
ATOM      8  H1  <0> d          -4.037   4.592   1.971  0.00  0.00     0.030 H 
ATOM      9  H2  <0> d          -4.622   5.730   0.734  0.00  0.00     0.030 H 
ATOM     10  H3  <0> d          -4.887   3.981   0.531  0.00  0.00     0.030 H 
ENDBRANCH   4   7
ENDBRANCH   3   4
ENDBRANCH   1   3
BRANCH   1  11
ATOM     11  C4  <0> d          -0.796   1.711  -0.539  0.00  0.00     0.270 C 
ATOM     12  O2  <0> d          -1.744   1.041  -0.893  0.00  0.00    -0.268 OA
ATOM     13  N1  <0> d           0.435   1.165  -0.491  0.00  0.00    -0.366 N 
ATOM     14  H7  <0> d           0.564   0.237  -0.740  0.00  0.00     0.159 HD
ATOM     15  H8  <0> d           1.193   1.702  -0.213  0.00  0.00     0.159 HD
ENDBRANCH   1  11
BRANCH   1  16
ATOM     16  O3  <0> d          -0.025   3.524   0.827  0.00  0.00    -0.353 OA
BRANCH  16  17
ATOM     17  C5  <0> d           0.081   4.934   1.037  0.00  0.00     0.020 C 
ATOM     18  H9  <0> d           0.248   5.432   0.082  0.00  0.00     0.073 H 
ATOM     19  H10 <0> d          -0.841   5.305   1.484  0.00  0.00     0.073 H 
BRANCH  17  20
ATOM     20  C6  <0> d           1.255   5.222   1.976  0.00  0.00    -0.056 C 
ATOM     21  H11 <0> d           1.087   4.724   2.931  0.00  0.00     0.030 H 
ATOM     22  H12 <0> d           2.177   4.851   1.529  0.00  0.00     0.030 H 
ATOM     23  H13 <0> d           1.336   6.297   2.136  0.00  0.00     0.030 H 
ENDBRANCH  17  20
ENDBRANCH  16  17
ENDBRANCH   1  16
TORSDOF 7
