REMARK  1 active torsions:
REMARK  status: ('A' for Active; 'I' for Inactive)
REMARK    1  A    between atoms: C1_1  and  C2_2 
ROOT
ATOM      1  C2  <0> d           0.002  -0.004   0.002  0.00  0.00    -0.047 C 
ATOM      2  H1  <0> d          -1.020  -0.383   0.006  0.00  0.00     0.040 H 
ATOM      3  C3  <0> d           0.743  -0.514   1.242  0.00  0.00    -0.041 C 
ATOM      4  C4  <0> d           0.765  -2.045   1.227  0.00  0.00     0.029 C 
ATOM      5  O1  <0> d           1.407  -2.501   0.003  0.00  0.00    -0.321 OA
ATOM      6  C5  <0> d           0.901  -2.000  -1.144  0.00  0.00     0.259 C 
ATOM      7  O2  <0> d           0.592  -2.728  -2.057  0.00  0.00    -0.265 OA
ATOM      8  C6  <0> d           0.731  -0.501  -1.253  0.00  0.00     0.019 C 
ATOM      9  H5  <0> d           1.765  -0.135   1.237  0.00  0.00     0.036 H 
ATOM     10  H6  <0> d           0.231  -0.166   2.140  0.00  0.00     0.036 H 
ATOM     11  H7  <0> d           1.324  -2.409   2.088  0.00  0.00     0.075 H 
ATOM     12  H8  <0> d          -0.256  -2.425   1.266  0.00  0.00     0.075 H 
ATOM     13  H9  <0> d           0.142  -0.261  -2.138  0.00  0.00     0.048 H 
ATOM     14  H10 <0> d           1.709  -0.025  -1.322  0.00  0.00     0.048 H 
ENDROOT
BRANCH   1  15
ATOM     15  C1  <0> d          -0.019   1.526   0.010  0.00  0.00    -0.072 C 
ATOM     16  H2  <0> d           1.004   1.903   0.003  0.00  0.00     0.028 H 
ATOM     17  H3  <0> d          -0.546   1.887  -0.873  0.00  0.00     0.028 H 
ATOM     18  H4  <0> d          -0.529   1.877   0.907  0.00  0.00     0.028 H 
ENDBRANCH   1  15
TORSDOF 1
