REMARK  1 active torsions:
REMARK  status: ('A' for Active; 'I' for Inactive)
REMARK    1  A    between atoms: C1_1  and  C2_2 
ROOT
ATOM      1  C2  <0> d          -2.608   1.114   0.069  0.00  0.00    -0.022 C 
ATOM      2  H1  <0> d          -2.803   0.844   1.118  0.00  0.00     0.048 H 
ATOM      3  C3  <0> d          -3.705   2.090  -0.411  0.00  0.00    -0.012 C 
ATOM      4  S1  <0> d          -2.892   3.690  -0.002  0.00  0.00    -0.129 SA
ATOM      5  C4  <0> d          -1.201   3.138   0.013  0.00  0.00     0.007 A 
ATOM      6  C5  <0> d          -1.238   1.746   0.018  0.00  0.00    -0.037 A 
ATOM      7  C6  <0> d          -0.013   1.076   0.008  0.00  0.00    -0.075 A 
ATOM      8  C7  <0> d           1.177   1.769   0.000  0.00  0.00    -0.082 A 
ATOM      9  C8  <0> d           1.192   3.151   0.006  0.00  0.00    -0.082 A 
ATOM     10  C9  <0> d          -0.009   3.836   0.010  0.00  0.00    -0.066 A 
ATOM     11  H5  <0> d          -3.886   1.939  -1.485  0.00  0.00     0.050 H 
ATOM     12  H6  <0> d          -4.634   1.901   0.147  0.00  0.00     0.050 H 
ATOM     13  H7  <0> d           0.002  -0.004   0.002  0.00  0.00     0.084 H 
ATOM     14  H8  <0> d           2.111   1.225  -0.009  0.00  0.00     0.083 H 
ATOM     15  H9  <0> d           2.129   3.689   0.006  0.00  0.00     0.083 H 
ATOM     16  H10 <0> d          -0.015   4.916   0.011  0.00  0.00     0.085 H 
ENDROOT
BRANCH   1  17
ATOM     17  C1  <0> d          -2.614  -0.124  -0.829  0.00  0.00    -0.068 C 
ATOM     18  H2  <0> d          -3.609  -0.594  -0.799  0.00  0.00     0.028 H 
ATOM     19  H3  <0> d          -1.860  -0.841  -0.471  0.00  0.00     0.028 H 
ATOM     20  H4  <0> d          -2.379   0.171  -1.862  0.00  0.00     0.028 H 
ENDBRANCH   1  17
TORSDOF 1
