REMARK  3 active torsions:
REMARK  status: ('A' for Active; 'I' for Inactive)
REMARK    1  A    between atoms: C1_1  and  C2_2 
REMARK    2  A    between atoms: C3_3  and  C6_9 
REMARK    3  A    between atoms: N1_4  and  C5_8 
ROOT
ATOM      1  C2  <0> d           1.279   1.757  -0.001  0.00  0.00     0.039 A 
ATOM      2  C3  <0> d          -0.016   1.340   0.009  0.00  0.00     0.043 A 
ATOM      3  N1  <0> d           0.002  -0.004   0.002  0.00  0.00    -0.257 N 
ATOM      4  O1  <0> d           1.131  -0.438  -0.011  0.00  0.00    -0.193 OA
ATOM      5  C4  <0> d           2.028   0.561  -0.014  0.00  0.00     0.312 A 
ATOM      6  O2  <0> d           3.243   0.456  -0.027  0.00  0.00    -0.258 OA
ENDROOT
BRANCH   1   7
ATOM      7  C1  <0> d           1.796   3.173   0.001  0.00  0.00    -0.043 C 
ATOM      8  H1  <0> d           1.930   3.509   1.029  0.00  0.00     0.033 H 
ATOM      9  H2  <0> d           2.752   3.211  -0.521  0.00  0.00     0.033 H 
ATOM     10  H3  <0> d           1.080   3.821  -0.503  0.00  0.00     0.033 H 
ENDBRANCH   1   7
BRANCH   2  11
ATOM     11  C6  <0> d          -1.240   2.219   0.020  0.00  0.00    -0.035 C 
ATOM     12  H7  <0> d          -1.530   2.426   1.050  0.00  0.00     0.035 H 
ATOM     13  H8  <0> d          -1.019   3.156  -0.490  0.00  0.00     0.035 H 
ATOM     14  H9  <0> d          -2.057   1.711  -0.492  0.00  0.00     0.035 H 
ENDBRANCH   2  11
BRANCH   3  15
ATOM     15  C5  <0> d          -1.200  -0.842   0.009  0.00  0.00     0.006 C 
ATOM     16  H4  <0> d          -1.508  -1.044  -1.017  0.00  0.00     0.060 H 
ATOM     17  H5  <0> d          -0.984  -1.782   0.516  0.00  0.00     0.060 H 
ATOM     18  H6  <0> d          -2.002  -0.322   0.533  0.00  0.00     0.060 H 
ENDBRANCH   3  15
TORSDOF 3
