REMARK  2 active torsions:
REMARK  status: ('A' for Active; 'I' for Inactive)
REMARK    1  A    between atoms: C1_1  and  C2_2 
REMARK    2  A    between atoms: C2_2  and  C8_8 
ROOT
ATOM      1  C2  <0> d          -1.293  -0.775   0.010  0.00  0.00     0.045 C 
ATOM      2  C3  <0> d          -2.088  -0.423   1.269  0.00  0.00    -0.049 C 
ATOM      3  C4  <0> d          -3.402  -1.206   1.277  0.00  0.00    -0.064 C 
ATOM      4  C5  <0> d          -3.102  -2.707   1.266  0.00  0.00    -0.065 C 
ATOM      5  C6  <0> d          -2.307  -3.058   0.008  0.00  0.00    -0.064 C 
ATOM      6  C7  <0> d          -0.993  -2.276  -0.001  0.00  0.00    -0.049 C 
ATOM      7  H4  <0> d          -1.504  -0.684   2.152  0.00  0.00     0.034 H 
ATOM      8  H5  <0> d          -2.302   0.645   1.277  0.00  0.00     0.034 H 
ATOM      9  H6  <0> d          -3.986  -0.946   0.394  0.00  0.00     0.033 H 
ATOM     10  H7  <0> d          -3.969  -0.956   2.174  0.00  0.00     0.033 H 
ATOM     11  H8  <0> d          -4.039  -3.264   1.272  0.00  0.00     0.033 H 
ATOM     12  H9  <0> d          -2.519  -2.967   2.150  0.00  0.00     0.033 H 
ATOM     13  H10 <0> d          -2.891  -2.798  -0.875  0.00  0.00     0.033 H 
ATOM     14  H11 <0> d          -2.094  -4.127  -0.000  0.00  0.00     0.033 H 
ATOM     15  H12 <0> d          -0.426  -2.526  -0.897  0.00  0.00     0.034 H 
ATOM     16  H13 <0> d          -0.409  -2.536   0.882  0.00  0.00     0.034 H 
ENDROOT
BRANCH   1  17
ATOM     17  C1  <0> d          -2.112  -0.410  -1.229  0.00  0.00    -0.059 C 
ATOM     18  H1  <0> d          -1.545  -0.661  -2.126  0.00  0.00     0.029 H 
ATOM     19  H2  <0> d          -3.048  -0.968  -1.223  0.00  0.00     0.029 H 
ATOM     20  H3  <0> d          -2.325   0.659  -1.222  0.00  0.00     0.029 H 
ENDBRANCH   1  17
BRANCH   1  21
ATOM     21  C8  <0> d           0.002  -0.004   0.002  0.00  0.00     0.181 C 
ATOM     22  O1  <0> d           1.056  -0.594  -0.011  0.00  0.00    -0.647 OA
ATOM     23  O2  <0> d          -0.016   1.338   0.009  0.00  0.00    -0.647 OA
ENDBRANCH   1  21
TORSDOF 2
