REMARK  3 active torsions:
REMARK  status: ('A' for Active; 'I' for Inactive)
REMARK    1  A    between atoms: C1_1  and  N1_2 
REMARK    2  A    between atoms: C5_7  and  O2_9 
REMARK    3  A    between atoms: O2_9  and  C6_10 
ROOT
ATOM      1  N1  <0> d           1.141   1.912   0.001  0.00  0.00    -0.237 N 
ATOM      2  C2  <0> d          -0.015   1.217   0.009  0.00  0.00     0.263 A 
ATOM      3  O1  <0> d           0.002  -0.004   0.002  0.00  0.00    -0.267 OA
ATOM      4  C3  <0> d          -1.242   1.910   0.018  0.00  0.00    -0.012 A 
ATOM      5  C4  <0> d          -1.238   3.270   0.031  0.00  0.00    -0.025 A 
ATOM      6  C5  <0> d          -0.013   3.965   0.022  0.00  0.00     0.183 A 
ATOM      7  N2  <0> d           1.121   3.311   0.009  0.00  0.00    -0.144 NA
ATOM      8  H4  <0> d          -2.175   1.367   0.020  0.00  0.00     0.092 H 
ATOM      9  H5  <0> d          -2.170   3.815   0.043  0.00  0.00     0.090 H 
ENDROOT
BRANCH   6  10
ATOM     10  O2  <0> d          -0.009   5.323   0.029  0.00  0.00    -0.338 OA
BRANCH  10  11
ATOM     11  C6  <0> d           1.266   5.967   0.021  0.00  0.00     0.012 C 
ATOM     12  H6  <0> d           1.831   5.668   0.904  0.00  0.00     0.067 H 
ATOM     13  H7  <0> d           1.814   5.677  -0.876  0.00  0.00     0.067 H 
ATOM     14  H8  <0> d           1.127   7.048   0.027  0.00  0.00     0.067 H 
ENDBRANCH  10  11
ENDBRANCH   6  10
BRANCH   1  15
ATOM     15  C1  <0> d           2.421   1.200  -0.015  0.00  0.00     0.006 C 
ATOM     16  H1  <0> d           2.729   1.028  -1.046  0.00  0.00     0.059 H 
ATOM     17  H2  <0> d           3.176   1.798   0.495  0.00  0.00     0.059 H 
ATOM     18  H3  <0> d           2.311   0.242   0.495  0.00  0.00     0.059 H 
ENDBRANCH   1  15
TORSDOF 3
