REMARK  2 active torsions:
REMARK  status: ('A' for Active; 'I' for Inactive)
REMARK    1  A    between atoms: C3_3  and  C7_9 
REMARK    2  A    between atoms: C7_9  and  O1_10 
ROOT
ATOM      1  C1  <0> d           1.208  -0.680  -0.014  0.00  0.00    -0.045 A 
ATOM      2  C2  <0> d           0.002  -0.004   0.002  0.00  0.00    -0.069 A 
ATOM      3  C3  <0> d          -0.017   1.378   0.010  0.00  0.00     0.004 A 
ATOM      4  C4  <0> d           1.173   2.087   0.002  0.00  0.00     0.127 A 
ATOM      5  C5  <0> d           2.381   1.411  -0.013  0.00  0.00    -0.008 A 
ATOM      6  C6  <0> d           2.398   0.027  -0.021  0.00  0.00     0.119 A 
ATOM      7  F1  <0> d           3.576  -0.634  -0.036  0.00  0.00    -0.206 F 
ATOM      8  F2  <0> d           1.154   3.438   0.009  0.00  0.00    -0.205 F 
ATOM      9  H1  <0> d           1.221  -1.760  -0.020  0.00  0.00     0.088 H 
ATOM     10  H2  <0> d          -0.926  -0.556   0.008  0.00  0.00     0.084 H 
ATOM     11  H3  <0> d           3.309   1.964  -0.019  0.00  0.00     0.093 H 
ENDROOT
BRANCH   3  12
ATOM     12  C7  <0> d          -1.332   2.113   0.020  0.00  0.00     0.043 C 
ATOM     13  H4  <0> d          -1.394   2.734   0.913  0.00  0.00     0.081 H 
ATOM     14  H5  <0> d          -1.403   2.744  -0.866  0.00  0.00     0.081 H 
BRANCH  12  15
ATOM     15  O1  <0> d          -2.405   1.169   0.020  0.00  0.00    -0.396 OA
ATOM     16  H6  <0> d          -3.284   1.573   0.026  0.00  0.00     0.209 HD
ENDBRANCH  12  15
ENDBRANCH   3  12
TORSDOF 2
