REMARK  3 active torsions:
REMARK  status: ('A' for Active; 'I' for Inactive)
REMARK    1  A    between atoms: C1_1  and  N1_2 
REMARK    2  A    between atoms: N1_2  and  C2_3 
REMARK    3  A    between atoms: C3_4  and  N3_9 
ROOT
ATOM      1  C2  <0> d           1.234  -0.664  -0.013  0.00  0.00     0.149 A 
ATOM      2  C3  <0> d           0.002  -0.004   0.002  0.00  0.00     0.072 A 
ATOM      3  C4  <0> d          -0.017   1.384   0.010  0.00  0.00    -0.053 A 
ATOM      4  C5  <0> d           1.195   2.062   0.002  0.00  0.00    -0.064 A 
ATOM      5  C6  <0> d           2.373   1.343  -0.013  0.00  0.00     0.005 A 
ATOM      6  N2  <0> d           2.364   0.023  -0.020  0.00  0.00    -0.241 NA
ATOM      7  H5  <0> d          -0.952   1.924   0.017  0.00  0.00     0.087 H 
ATOM      8  H6  <0> d           1.216   3.142   0.007  0.00  0.00     0.085 H 
ATOM      9  H7  <0> d           3.317   1.869  -0.020  0.00  0.00     0.114 H 
ENDROOT
BRANCH   1  10
ATOM     10  N1  <0> d           1.271  -2.057  -0.021  0.00  0.00    -0.377 N 
ATOM     11  H4  <0> d           0.334  -2.632  -0.015  0.00  0.00     0.160 HD
BRANCH  10  12
ATOM     12  C1  <0> d           2.559  -2.754  -0.037  0.00  0.00    -0.019 C 
ATOM     13  H1  <0> d           2.388  -3.841  -0.041  0.00  0.00     0.056 H 
ATOM     14  H2  <0> d           3.138  -2.478   0.857  0.00  0.00     0.056 H 
ATOM     15  H3  <0> d           3.120  -2.469  -0.939  0.00  0.00     0.056 H 
ENDBRANCH  10  12
ENDBRANCH   1  10
BRANCH   2  16
ATOM     16  N3  <0> d          -1.194  -0.731   0.010  0.00  0.00    -0.396 N 
ATOM     17  H8  <0> d          -2.159  -0.203   0.022  0.00  0.00     0.156 HD
ATOM     18  H9  <0> d          -1.170  -1.831   0.004  0.00  0.00     0.156 HD
ENDBRANCH   2  16
TORSDOF 3
