REMARK  9 active torsions:
REMARK  status: ('A' for Active; 'I' for Inactive)
REMARK    1  A    between atoms: C1_1  and  C2_2 
REMARK    2  A    between atoms: C2_2  and  C3_3 
REMARK    3  A    between atoms: C3_3  and  C4_4 
REMARK    4  A    between atoms: C4_4  and  C5_6 
REMARK    5  A    between atoms: C4_4  and  O2_11 
REMARK    6  A    between atoms: C5_6  and  C6_7 
REMARK    7  A    between atoms: C5_6  and  C7_8 
REMARK    8  A    between atoms: C5_6  and  C8_9 
REMARK    9  A    between atoms: C8_9  and  O1_10 
ROOT
ATOM      1  C4  <0> d           0.011   1.072   2.506  0.00  0.00     0.044 C 
ATOM      2  H1  <0> d          -0.499   1.424   3.403  0.00  0.00     0.084 H 
ENDROOT
BRANCH   1   3
ATOM      3  C3  <0> d           1.446   1.602   2.495  0.00  0.00    -0.041 C 
ATOM      4  H7  <0> d           1.983   1.179   1.646  0.00  0.00     0.036 H 
ATOM      5  H8  <0> d           1.432   2.689   2.412  0.00  0.00     0.036 H 
BRANCH   3   6
ATOM      6  C2  <0> d           2.148   1.200   3.794  0.00  0.00    -0.066 C 
ATOM      7  H5  <0> d           1.612   1.622   4.643  0.00  0.00     0.032 H 
ATOM      8  H6  <0> d           2.163   0.113   3.878  0.00  0.00     0.032 H 
BRANCH   6   9
ATOM      9  C1  <0> d           3.584   1.729   3.783  0.00  0.00    -0.076 C 
ATOM     10  H2  <0> d           4.121   1.306   2.934  0.00  0.00     0.027 H 
ATOM     11  H3  <0> d           3.570   2.816   3.700  0.00  0.00     0.027 H 
ATOM     12  H4  <0> d           4.084   1.442   4.708  0.00  0.00     0.027 H 
ENDBRANCH   6   9
ENDBRANCH   3   6
ENDBRANCH   1   3
BRANCH   1  13
ATOM     13  C5  <0> d          -0.729   1.579   1.267  0.00  0.00    -0.000 C 
BRANCH  13  14
ATOM     14  C6  <0> d          -0.013   1.086   0.008  0.00  0.00    -0.065 C 
ATOM     15  H9  <0> d           0.002  -0.004   0.002  0.00  0.00     0.028 H 
ATOM     16  H10 <0> d           1.010   1.463   0.000  0.00  0.00     0.028 H 
ATOM     17  H11 <0> d          -0.540   1.447  -0.875  0.00  0.00     0.028 H 
ENDBRANCH  13  14
BRANCH  13  18
ATOM     18  C7  <0> d          -0.750   3.109   1.275  0.00  0.00    -0.065 C 
ATOM     19  H12 <0> d          -1.277   3.470   0.392  0.00  0.00     0.028 H 
ATOM     20  H13 <0> d          -1.260   3.461   2.172  0.00  0.00     0.028 H 
ATOM     21  H14 <0> d           0.273   3.486   1.268  0.00  0.00     0.028 H 
ENDBRANCH  13  18
BRANCH  13  22
ATOM     22  C8  <0> d          -2.164   1.050   1.278  0.00  0.00     0.025 C 
ATOM     23  H15 <0> d          -2.149  -0.040   1.272  0.00  0.00     0.075 H 
ATOM     24  H16 <0> d          -2.674   1.401   2.175  0.00  0.00     0.075 H 
BRANCH  22  25
ATOM     25  O1  <0> d          -2.855   1.523   0.120  0.00  0.00    -0.400 OA
ATOM     26  H17 <0> d          -3.774   1.226   0.061  0.00  0.00     0.209 HD
ENDBRANCH  22  25
ENDBRANCH  13  22
ENDBRANCH   1  13
BRANCH   1  27
ATOM     27  O2  <0> d           0.030  -0.356   2.498  0.00  0.00    -0.395 OA
ATOM     28  H18 <0> d           0.470  -0.740   1.727  0.00  0.00     0.210 HD
ENDBRANCH   1  27
TORSDOF 9
