REMARK  9 active torsions:
REMARK  status: ('A' for Active; 'I' for Inactive)
REMARK    1  A    between atoms: C1_1  and  C2_2 
REMARK    2  A    between atoms: C2_2  and  C3_3 
REMARK    3  A    between atoms: C3_3  and  C4_4 
REMARK    4  A    between atoms: C4_4  and  C5_5 
REMARK    5  A    between atoms: C5_5  and  C6_7 
REMARK    6  A    between atoms: C5_5  and  C7_9 
REMARK    7  A    between atoms: C6_7  and  O1_8 
REMARK    8  A    between atoms: C7_9  and  C8_11 
REMARK    9  A    between atoms: C7_9  and  O2_12 
ROOT
ATOM      1  C5  <0> d          -0.064   0.971   2.503  0.00  0.00    -0.009 C 
ATOM      2  H1  <0> d           0.980   1.271   2.597  0.00  0.00     0.047 H 
ENDROOT
BRANCH   1   3
ATOM      3  C4  <0> d          -0.656   1.577   1.229  0.00  0.00    -0.058 C 
ATOM      4  H10 <0> d          -0.698   2.662   1.328  0.00  0.00     0.033 H 
ATOM      5  H11 <0> d          -1.661   1.186   1.074  0.00  0.00     0.033 H 
BRANCH   3   6
ATOM      6  C3  <0> d           0.224   1.208   0.033  0.00  0.00    -0.065 C 
ATOM      7  H8  <0> d           0.187   0.131  -0.127  0.00  0.00     0.033 H 
ATOM      8  H9  <0> d           1.252   1.510   0.231  0.00  0.00     0.033 H 
BRANCH   6   9
ATOM      9  C2  <0> d          -0.287   1.927  -1.217  0.00  0.00    -0.069 C 
ATOM     10  H6  <0> d          -1.315   1.625  -1.415  0.00  0.00     0.032 H 
ATOM     11  H7  <0> d          -0.250   3.005  -1.057  0.00  0.00     0.032 H 
BRANCH   9  12
ATOM     12  C1  <0> d           0.593   1.558  -2.413  0.00  0.00    -0.077 C 
ATOM     13  H3  <0> d           1.621   1.861  -2.215  0.00  0.00     0.027 H 
ATOM     14  H4  <0> d           0.555   0.481  -2.573  0.00  0.00     0.027 H 
ATOM     15  H5  <0> d           0.229   2.071  -3.304  0.00  0.00     0.027 H 
ENDBRANCH   9  12
ENDBRANCH   6   9
ENDBRANCH   3   6
ENDBRANCH   1   3
BRANCH   1  16
ATOM     16  C6  <0> d          -0.152  -0.554   2.432  0.00  0.00     0.022 C 
ATOM     17  H12 <0> d           0.159  -0.982   3.385  0.00  0.00     0.074 H 
ATOM     18  H13 <0> d          -1.179  -0.850   2.218  0.00  0.00     0.074 H 
BRANCH  16  19
ATOM     19  O1  <0> d           0.707  -1.033   1.394  0.00  0.00    -0.400 OA
ATOM     20  H14 <0> d           0.701  -1.994   1.291  0.00  0.00     0.209 HD
ENDBRANCH  16  19
ENDBRANCH   1  16
BRANCH   1  21
ATOM     21  C7  <0> d          -0.849   1.471   3.718  0.00  0.00     0.037 C 
ATOM     22  H2  <0> d          -1.893   1.171   3.624  0.00  0.00     0.083 H 
BRANCH  21  23
ATOM     23  C8  <0> d          -0.761   2.997   3.789  0.00  0.00    -0.052 C 
ATOM     24  H15 <0> d          -1.321   3.352   4.655  0.00  0.00     0.030 H 
ATOM     25  H16 <0> d           0.283   3.296   3.883  0.00  0.00     0.030 H 
ATOM     26  H17 <0> d          -1.183   3.428   2.882  0.00  0.00     0.030 H 
ENDBRANCH  21  23
BRANCH  21  27
ATOM     27  O2  <0> d          -0.296   0.905   4.908  0.00  0.00    -0.396 OA
ATOM     28  H18 <0> d          -0.746   1.179   5.719  0.00  0.00     0.210 HD
ENDBRANCH  21  27
ENDBRANCH   1  21
TORSDOF 9
