REMARK  0 active torsions:
REMARK  status: ('A' for Active; 'I' for Inactive)
ROOT
ATOM      1  C1  <0> d          -0.016   1.306   0.009  0.00  0.00    -0.119 C 
ATOM      2  C2  <0> d           0.002  -0.004   0.002  0.00  0.00    -0.085 C 
ATOM      3  C3  <0> d          -1.284  -0.799   0.004  0.00  0.00    -0.045 C 
ATOM      4  C4  <0> d          -1.275  -1.765  -1.184  0.00  0.00    -0.058 C 
ATOM      5  C5  <0> d          -0.059  -2.689  -1.087  0.00  0.00    -0.045 C 
ATOM      6  C6  <0> d           1.198  -1.849  -1.062  0.00  0.00    -0.085 C 
ATOM      7  C7  <0> d           2.161  -2.051  -1.927  0.00  0.00    -0.119 C 
ATOM      8  C8  <0> d           1.312  -0.765  -0.015  0.00  0.00    -0.025 C 
ATOM      9  H1  <0> d           0.912   1.859   0.003  0.00  0.00     0.067 H 
ATOM     10  H2  <0> d          -0.958   1.833   0.017  0.00  0.00     0.067 H 
ATOM     11  H3  <0> d          -1.362  -1.364   0.932  0.00  0.00     0.039 H 
ATOM     12  H4  <0> d          -2.133  -0.121  -0.084  0.00  0.00     0.039 H 
ATOM     13  H5  <0> d          -2.187  -2.363  -1.173  0.00  0.00     0.033 H 
ATOM     14  H6  <0> d          -1.226  -1.197  -2.113  0.00  0.00     0.033 H 
ATOM     15  H7  <0> d          -0.121  -3.279  -0.172  0.00  0.00     0.039 H 
ATOM     16  H8  <0> d          -0.036  -3.355  -1.950  0.00  0.00     0.039 H 
ATOM     17  H9  <0> d           2.063  -2.827  -2.672  0.00  0.00     0.067 H 
ATOM     18  H10 <0> d           3.052  -1.442  -1.896  0.00  0.00     0.067 H 
ATOM     19  H11 <0> d           2.130  -0.091  -0.268  0.00  0.00     0.046 H 
ATOM     20  H12 <0> d           1.491  -1.216   0.962  0.00  0.00     0.046 H 
ENDROOT
TORSDOF 0
