REMARK  0 active torsions:
REMARK  status: ('A' for Active; 'I' for Inactive)
ROOT
ATOM      1  C1  <0> d          -0.016   1.358   0.009  0.00  0.00     0.057 A 
ATOM      2  N1  <0> d           1.141   1.908   0.001  0.00  0.00    -0.255 NA
ATOM      3  C2  <0> d           2.194   0.884  -0.013  0.00  0.00     0.147 A 
ATOM      4  H1  <0> d           2.782   0.971  -0.927  0.00  0.00     0.117 H 
ATOM      5  C3  <0> d           1.404  -0.452  -0.019  0.00  0.00     0.128 A 
ATOM      6  H2  <0> d           1.609  -1.010  -0.933  0.00  0.00     0.093 H 
ATOM      7  N2  <0> d           0.002  -0.004   0.002  0.00  0.00    -0.368 N 
ATOM      8  C4  <0> d           1.609  -1.337   1.194  0.00  0.00     0.249 A 
ATOM      9  O1  <0> d           1.033  -2.399   1.292  0.00  0.00    -0.271 OA
ATOM     10  N3  <0> d           2.447  -0.917   2.161  0.00  0.00    -0.320 N 
ATOM     11  C5  <0> d           3.124   0.266   2.108  0.00  0.00     0.063 A 
ATOM     12  N4  <0> d           3.048   1.140   1.156  0.00  0.00    -0.255 NA
ATOM     13  H3  <0> d          -0.933   1.929   0.026  0.00  0.00     0.142 H 
ATOM     14  H4  <0> d          -0.777  -0.581   0.009  0.00  0.00     0.161 HD
ATOM     15  H5  <0> d           2.575  -1.485   2.936  0.00  0.00     0.169 HD
ATOM     16  H6  <0> d           3.774   0.502   2.937  0.00  0.00     0.143 H 
ENDROOT
TORSDOF 0
