REMARK  8 active torsions:
REMARK  status: ('A' for Active; 'I' for Inactive)
REMARK    1  A    between atoms: C1_1  and  C2_2 
REMARK    2  A    between atoms: C2_2  and  C3_3 
REMARK    3  A    between atoms: C4_4  and  C5_5 
REMARK    4  A    between atoms: C5_5  and  C6_7 
REMARK    5  A    between atoms: C5_5  and  O1_11 
REMARK    6  A    between atoms: C6_7  and  C7_8 
REMARK    7  A    between atoms: C7_8  and  C8_9 
REMARK    8  A    between atoms: C7_8  and  C9_10 
ROOT
ATOM      1  C5  <0> d          -0.025   1.077   0.031  0.00  0.00     0.094 C 
ATOM      2  H1  <0> d           0.058  -0.009  -0.006  0.00  0.00     0.103 H 
ENDROOT
BRANCH   1   3
ATOM      3  C4  <0> d          -0.745   1.555  -1.161  0.00  0.00    -0.075 C 
ATOM      4  C3  <0> d          -1.319   1.937  -2.111  0.00  0.00    -0.104 C 
BRANCH   4   5
ATOM      5  C2  <0> d          -2.039   2.415  -3.303  0.00  0.00    -0.012 C 
ATOM      6  H5  <0> d          -2.122   3.502  -3.265  0.00  0.00     0.051 H 
ATOM      7  H6  <0> d          -1.491   2.124  -4.199  0.00  0.00     0.051 H 
BRANCH   5   8
ATOM      8  C1  <0> d          -3.438   1.797  -3.336  0.00  0.00    -0.067 C 
ATOM      9  H2  <0> d          -3.971   2.151  -4.218  0.00  0.00     0.028 H 
ATOM     10  H3  <0> d          -3.354   0.711  -3.374  0.00  0.00     0.028 H 
ATOM     11  H4  <0> d          -3.985   2.088  -2.440  0.00  0.00     0.028 H 
ENDBRANCH   5   8
ENDBRANCH   4   5
ENDBRANCH   1   3
BRANCH   1  12
ATOM     12  C6  <0> d           1.373   1.695   0.065  0.00  0.00    -0.028 C 
ATOM     13  H7  <0> d           1.891   1.474  -0.869  0.00  0.00     0.038 H 
ATOM     14  H8  <0> d           1.291   2.775   0.187  0.00  0.00     0.038 H 
BRANCH  12  15
ATOM     15  C7  <0> d           2.163   1.109   1.237  0.00  0.00    -0.058 C 
ATOM     16  H9  <0> d           1.595   1.238   2.158  0.00  0.00     0.039 H 
BRANCH  15  17
ATOM     17  C8  <0> d           2.405  -0.382   0.993  0.00  0.00    -0.073 C 
ATOM     18  H10 <0> d           2.973  -0.512   0.071  0.00  0.00     0.028 H 
ATOM     19  H11 <0> d           2.967  -0.800   1.828  0.00  0.00     0.028 H 
ATOM     20  H12 <0> d           1.448  -0.896   0.905  0.00  0.00     0.028 H 
ENDBRANCH  15  17
BRANCH  15  21
ATOM     21  C9  <0> d           3.506   1.830   1.359  0.00  0.00    -0.073 C 
ATOM     22  H13 <0> d           4.071   1.707   0.435  0.00  0.00     0.028 H 
ATOM     23  H14 <0> d           3.333   2.891   1.540  0.00  0.00     0.028 H 
ATOM     24  H15 <0> d           4.071   1.407   2.190  0.00  0.00     0.028 H 
ENDBRANCH  15  21
ENDBRANCH  12  15
ENDBRANCH   1  12
BRANCH   1  25
ATOM     25  O1  <0> d          -0.743   1.459   1.206  0.00  0.00    -0.383 OA
ATOM     26  H16 <0> d          -0.856   2.414   1.305  0.00  0.00     0.211 HD
ENDBRANCH   1  25
TORSDOF 8
