REMARK  1 active torsions:
REMARK  status: ('A' for Active; 'I' for Inactive)
REMARK    1  A    between atoms: C1_1  and  N1_2 
ROOT
ATOM      1  N1  <0> d          -0.016   1.347   0.009  0.00  0.00    -0.335 N 
ATOM      2  C2  <0> d           1.287   1.770  -0.001  0.00  0.00    -0.001 A 
ATOM      3  C3  <0> d           2.055   0.664  -0.014  0.00  0.00     0.020 A 
ATOM      4  N2  <0> d           1.245  -0.405  -0.012  0.00  0.00    -0.231 NA
ATOM      5  C4  <0> d           0.002  -0.004   0.002  0.00  0.00     0.202 A 
ATOM      6 Cl1  <0> d          -1.394  -1.035   0.010  0.00  0.00    -0.043 Cl
ATOM      7  H4  <0> d           1.632   2.793   0.001  0.00  0.00     0.113 H 
ATOM      8  H5  <0> d           3.135   0.642  -0.025  0.00  0.00     0.117 H 
ENDROOT
BRANCH   1   9
ATOM      9  C1  <0> d          -1.207   2.200   0.020  0.00  0.00    -0.012 C 
ATOM     10  H1  <0> d          -1.497   2.407   1.050  0.00  0.00     0.057 H 
ATOM     11  H2  <0> d          -0.987   3.138  -0.490  0.00  0.00     0.057 H 
ATOM     12  H3  <0> d          -2.023   1.691  -0.492  0.00  0.00     0.057 H 
ENDBRANCH   1   9
TORSDOF 1
