REMARK  3 active torsions:
REMARK  status: ('A' for Active; 'I' for Inactive)
REMARK    1  A    between atoms: C1_1  and  C2_2 
REMARK    2  A    between atoms: C5_5  and  N1_10 
REMARK    3  A    between atoms: C7_7  and  C8_8 
ROOT
ATOM      1  C2  <0> d          -3.618   3.065  -0.008  0.00  0.00    -0.045 A 
ATOM      2  C3  <0> d          -2.409   3.693  -0.231  0.00  0.00    -0.074 A 
ATOM      3  C4  <0> d          -1.232   2.971  -0.193  0.00  0.00    -0.057 A 
ATOM      4  C5  <0> d          -1.257   1.604   0.060  0.00  0.00     0.026 A 
ATOM      5  C6  <0> d          -2.465   0.963   0.285  0.00  0.00    -0.041 A 
ATOM      6  C7  <0> d          -3.654   1.694   0.252  0.00  0.00     0.048 A 
ATOM      7  H4  <0> d          -2.384   4.754  -0.432  0.00  0.00     0.084 H 
ATOM      8  H5  <0> d          -0.289   3.469  -0.363  0.00  0.00     0.086 H 
ATOM      9  H6  <0> d          -2.486  -0.098   0.486  0.00  0.00     0.088 H 
ENDROOT
BRANCH   1  10
ATOM     10  C1  <0> d          -4.898   3.859  -0.045  0.00  0.00    -0.050 C 
ATOM     11  H1  <0> d          -5.181   4.139   0.969  0.00  0.00     0.033 H 
ATOM     12  H2  <0> d          -4.751   4.758  -0.644  0.00  0.00     0.033 H 
ATOM     13  H3  <0> d          -5.688   3.253  -0.489  0.00  0.00     0.033 H 
ENDBRANCH   1  10
BRANCH   6  14
ATOM     14  C8  <0> d          -4.946   1.018   0.491  0.00  0.00     0.210 C 
ATOM     15  O1  <0> d          -5.966   1.671   0.574  0.00  0.00    -0.644 OA
ATOM     16  O2  <0> d          -4.992  -0.323   0.616  0.00  0.00    -0.644 OA
ENDBRANCH   6  14
BRANCH   4  17
ATOM     17  N1  <0> d          -0.064   0.877   0.092  0.00  0.00    -0.399 N 
ATOM     18  H7  <0> d          -0.081  -0.076   0.272  0.00  0.00     0.156 HD
ATOM     19  H8  <0> d           0.781   1.325  -0.070  0.00  0.00     0.156 HD
ENDBRANCH   4  17
TORSDOF 3
