REMARK  7 active torsions:
REMARK  status: ('A' for Active; 'I' for Inactive)
REMARK    1  A    between atoms: C1_1  and  C2_2 
REMARK    2  A    between atoms: C2_2  and  C3_3 
REMARK    3  A    between atoms: C3_3  and  C4_5 
REMARK    4  A    between atoms: C3_3  and  C5_6 
REMARK    5  A    between atoms: C5_6  and  C6_8 
REMARK    6  A    between atoms: C5_6  and  O1_10 
REMARK    7  A    between atoms: C6_8  and  C7_9 
ROOT
ATOM      1  C3  <0> d          -0.019   1.526   0.010  0.00  0.00    -0.033 C 
ATOM      2  H1  <0> d           1.004   1.903   0.003  0.00  0.00     0.043 H 
ENDROOT
BRANCH   1   3
ATOM      3  C2  <0> d          -0.759   2.033  -1.229  0.00  0.00    -0.063 C 
ATOM      4  H6  <0> d          -0.302   1.609  -2.123  0.00  0.00     0.033 H 
ATOM      5  H7  <0> d          -1.804   1.730  -1.177  0.00  0.00     0.033 H 
BRANCH   3   6
ATOM      6  C1  <0> d          -0.672   3.559  -1.286  0.00  0.00    -0.076 C 
ATOM      7  H3  <0> d          -1.199   3.920  -2.169  0.00  0.00     0.027 H 
ATOM      8  H4  <0> d          -1.129   3.983  -0.392  0.00  0.00     0.027 H 
ATOM      9  H5  <0> d           0.374   3.862  -1.338  0.00  0.00     0.027 H 
ENDBRANCH   3   6
ENDBRANCH   1   3
BRANCH   1  10
ATOM     10  C4  <0> d          -0.735   2.019   1.269  0.00  0.00    -0.071 C 
ATOM     11  H8  <0> d          -1.757   1.642   1.277  0.00  0.00     0.028 H 
ATOM     12  H9  <0> d          -0.208   1.658   2.152  0.00  0.00     0.028 H 
ATOM     13  H10 <0> d          -0.750   3.109   1.275  0.00  0.00     0.028 H 
ENDBRANCH   1  10
BRANCH   1  14
ATOM     14  C5  <0> d           0.002  -0.004   0.002  0.00  0.00     0.038 C 
ATOM     15  H2  <0> d           0.512  -0.356  -0.895  0.00  0.00     0.083 H 
BRANCH  14  16
ATOM     16  C6  <0> d           0.742  -0.511   1.242  0.00  0.00    -0.044 C 
ATOM     17  H11 <0> d           1.735  -0.063   1.280  0.00  0.00     0.036 H 
ATOM     18  H12 <0> d           0.184  -0.235   2.136  0.00  0.00     0.036 H 
BRANCH  16  19
ATOM     19  C7  <0> d           0.872  -2.034   1.171  0.00  0.00    -0.074 C 
ATOM     20  H13 <0> d           1.399  -2.395   2.054  0.00  0.00     0.027 H 
ATOM     21  H14 <0> d          -0.121  -2.482   1.132  0.00  0.00     0.027 H 
ATOM     22  H15 <0> d           1.430  -2.310   0.276  0.00  0.00     0.027 H 
ENDBRANCH  16  19
ENDBRANCH  14  16
BRANCH  14  23
ATOM     23  O1  <0> d          -1.339  -0.499   0.012  0.00  0.00    -0.395 OA
ATOM     24  H16 <0> d          -1.853  -0.225   0.784  0.00  0.00     0.210 HD
ENDBRANCH  14  23
ENDBRANCH   1  14
TORSDOF 7
