REMARK  3 active torsions:
REMARK  status: ('A' for Active; 'I' for Inactive)
REMARK    1  A    between atoms: C1_1  and  C2_2 
REMARK    2  A    between atoms: C3_4  and  C5_9 
REMARK    3  A    between atoms: C4_6  and  N4_8 
ROOT
ATOM      1  C2  <0> d           2.296   0.020  -0.020  0.00  0.00     0.143 A 
ATOM      2  N1  <0> d           1.156  -0.652  -0.013  0.00  0.00    -0.218 NA
ATOM      3  C3  <0> d           0.002  -0.004   0.002  0.00  0.00     0.143 A 
ATOM      4  N2  <0> d          -0.016   1.316   0.009  0.00  0.00    -0.048 NA
ATOM      5  C4  <0> d           1.128   1.995   0.002  0.00  0.00     0.723 A 
ATOM      6  N3  <0> d           2.286   1.341  -0.012  0.00  0.00    -0.048 NA
ENDROOT
BRANCH   1   7
ATOM      7  C1  <0> d           3.607  -0.723  -0.037  0.00  0.00    -0.019 C 
ATOM      8  H1  <0> d           3.913  -0.896  -1.069  0.00  0.00     0.037 H 
ATOM      9  H2  <0> d           4.367  -0.130   0.473  0.00  0.00     0.037 H 
ATOM     10  H3  <0> d           3.489  -1.679   0.472  0.00  0.00     0.037 H 
ENDBRANCH   1   7
BRANCH   5  11
ATOM     11  N4  <0> d           1.114   3.375   0.010  0.00  0.00    -0.231 N 
ATOM     12  H4  <0> d           0.269   3.851   0.020  0.00  0.00     0.174 HD
ATOM     13  H5  <0> d           1.948   3.869   0.004  0.00  0.00     0.174 HD
ENDBRANCH   5  11
BRANCH   3  14
ATOM     14  C5  <0> d          -1.293  -0.774   0.010  0.00  0.00    -0.019 C 
ATOM     15  H6  <0> d          -1.615  -0.954  -1.015  0.00  0.00     0.037 H 
ATOM     16  H7  <0> d          -1.146  -1.728   0.518  0.00  0.00     0.037 H 
ATOM     17  H8  <0> d          -2.055  -0.198   0.534  0.00  0.00     0.037 H 
ENDBRANCH   3  14
TORSDOF 3
