REMARK  6 active torsions:
REMARK  status: ('A' for Active; 'I' for Inactive)
REMARK    1  A    between atoms: C1_1  and  C2_2 
REMARK    2  A    between atoms: C2_2  and  C3_3 
REMARK    3  A    between atoms: C3_3  and  C4_5 
REMARK    4  A    between atoms: C3_3  and  O1_9 
REMARK    5  A    between atoms: C4_5  and  C5_6 
REMARK    6  A    between atoms: C5_6  and  C6_7 
ROOT
ATOM      1  C3  <0> d          -0.729   1.579   1.267  0.00  0.00     0.035 C 
ATOM      2  H1  <0> d          -0.822   2.665   1.230  0.00  0.00     0.082 H 
ENDROOT
BRANCH   1   3
ATOM      3  C2  <0> d          -0.013   1.086   0.008  0.00  0.00    -0.044 C 
ATOM      4  H5  <0> d           0.002  -0.004   0.002  0.00  0.00     0.036 H 
ATOM      5  H6  <0> d           1.010   1.463   0.000  0.00  0.00     0.036 H 
BRANCH   3   6
ATOM      6  C1  <0> d          -0.753   1.593  -1.232  0.00  0.00    -0.074 C 
ATOM      7  H2  <0> d          -0.242   1.241  -2.128  0.00  0.00     0.027 H 
ATOM      8  H3  <0> d          -1.775   1.215  -1.224  0.00  0.00     0.027 H 
ATOM      9  H4  <0> d          -0.767   2.683  -1.226  0.00  0.00     0.027 H 
ENDBRANCH   3   6
ENDBRANCH   1   3
BRANCH   1  10
ATOM     10  C4  <0> d           0.079   1.179   2.503  0.00  0.00    -0.038 C 
ATOM     11  H7  <0> d           0.097   0.092   2.589  0.00  0.00     0.037 H 
ATOM     12  H8  <0> d           1.098   1.553   2.408  0.00  0.00     0.037 H 
BRANCH  10  13
ATOM     13  C5  <0> d          -0.570   1.778   3.752  0.00  0.00    -0.048 C 
ATOM     14  H9  <0> d          -0.588   2.864   3.667  0.00  0.00     0.038 H 
ATOM     15  H10 <0> d          -1.590   1.404   3.847  0.00  0.00     0.038 H 
BRANCH  13  16
ATOM     16  C6  <0> d           0.225   1.383   4.970  0.00  0.00    -0.112 C 
ATOM     17  C7  <0> d           0.679   2.305   5.783  0.00  0.00    -0.125 C 
ATOM     18  H12 <0> d           0.484   3.348   5.580  0.00  0.00     0.066 H 
ATOM     19  H13 <0> d           1.249   2.022   6.655  0.00  0.00     0.066 H 
ATOM     20  H11 <0> d           0.420   0.341   5.173  0.00  0.00     0.075 H 
ENDBRANCH  13  16
ENDBRANCH  10  13
ENDBRANCH   1  10
BRANCH   1  21
ATOM     21  O1  <0> d          -2.030   0.991   1.336  0.00  0.00    -0.396 OA
ATOM     22  H14 <0> d          -2.023   0.025   1.372  0.00  0.00     0.210 HD
ENDBRANCH   1  21
TORSDOF 6
