REMARK  4 active torsions:
REMARK  status: ('A' for Active; 'I' for Inactive)
REMARK    1  A    between atoms: C1_1  and  C2_2 
REMARK    2  A    between atoms: C6_8  and  C7_10 
REMARK    3  A    between atoms: C7_10  and  C8_11 
REMARK    4  A    between atoms: C7_10  and  C9_12 
ROOT
ATOM      1  C2  <0> d          -0.019   1.539   0.011  0.00  0.00    -0.047 C 
ATOM      2  H1  <0> d          -0.514   1.903   0.911  0.00  0.00     0.040 H 
ATOM      3  C3  <0> d           0.002  -0.004   0.002  0.00  0.00    -0.006 C 
ATOM      4  C4  <0> d           1.354  -0.361  -0.607  0.00  0.00     0.127 C 
ATOM      5  O1  <0> d           1.618  -1.256  -1.373  0.00  0.00    -0.298 OA
ATOM      6  C5  <0> d           2.292   0.687  -0.016  0.00  0.00    -0.006 C 
ATOM      7  C6  <0> d           1.456   1.984  -0.001  0.00  0.00    -0.042 C 
ATOM      8  H2  <0> d           1.662   2.574  -0.894  0.00  0.00     0.041 H 
ATOM      9  H6  <0> d          -0.098  -0.344   0.937  0.00  0.00     0.044 H 
ATOM     10  H7  <0> d          -0.808  -0.393  -0.615  0.00  0.00     0.044 H 
ATOM     11  H8  <0> d           2.573   0.404   0.901  0.00  0.00     0.044 H 
ATOM     12  H9  <0> d           3.174   0.807  -0.645  0.00  0.00     0.044 H 
ENDROOT
BRANCH   7  13
ATOM     13  C7  <0> d           1.770   2.799   1.255  0.00  0.00    -0.057 C 
ATOM     14  H10 <0> d           1.588   2.188   2.139  0.00  0.00     0.039 H 
BRANCH  13  15
ATOM     15  C8  <0> d           3.237   3.233   1.228  0.00  0.00    -0.073 C 
ATOM     16  H11 <0> d           3.461   3.813   2.122  0.00  0.00     0.028 H 
ATOM     17  H12 <0> d           3.876   2.350   1.198  0.00  0.00     0.028 H 
ATOM     18  H13 <0> d           3.419   3.844   0.343  0.00  0.00     0.028 H 
ENDBRANCH  13  15
BRANCH  13  19
ATOM     19  C9  <0> d           0.873   4.037   1.297  0.00  0.00    -0.073 C 
ATOM     20  H14 <0> d          -0.173   3.728   1.317  0.00  0.00     0.028 H 
ATOM     21  H15 <0> d           1.096   4.618   2.192  0.00  0.00     0.028 H 
ATOM     22  H16 <0> d           1.054   4.648   0.413  0.00  0.00     0.028 H 
ENDBRANCH  13  19
ENDBRANCH   7  13
BRANCH   1  23
ATOM     23  C1  <0> d          -0.737   2.063  -1.234  0.00  0.00    -0.072 C 
ATOM     24  H3  <0> d          -1.770   1.713  -1.233  0.00  0.00     0.028 H 
ATOM     25  H4  <0> d          -0.723   3.153  -1.230  0.00  0.00     0.028 H 
ATOM     26  H5  <0> d          -0.231   1.696  -2.127  0.00  0.00     0.028 H 
ENDBRANCH   1  23
TORSDOF 4
