REMARK  2 active torsions:
REMARK  status: ('A' for Active; 'I' for Inactive)
REMARK    1  A    between atoms: C1_1  and  N1_2 
REMARK    2  A    between atoms: C2_3  and  C5_7 
ROOT
ATOM      1  C5  <0> d          -0.018   1.468   0.010  0.00  0.00     0.054 C 
ATOM      2  C6  <0> d           0.002  -0.004   0.002  0.00  0.00     0.065 C 
ATOM      3  N3  <0> d           0.018  -1.140  -0.004  0.00  0.00    -0.197 NA
ATOM      4  H6  <0> d           1.005   1.845   0.002  0.00  0.00     0.064 H 
ATOM      5  H7  <0> d          -0.545   1.829  -0.873  0.00  0.00     0.064 H 
ENDROOT
BRANCH   1   6
ATOM      6  C2  <0> d          -0.723   1.954   1.250  0.00  0.00     0.044 A 
ATOM      7  N1  <0> d          -2.026   2.296   1.342  0.00  0.00    -0.278 N 
ATOM      8  N2  <0> d          -2.276   2.688   2.663  0.00  0.00    -0.185 NA
ATOM      9  C4  <0> d          -1.158   2.592   3.337  0.00  0.00     0.024 A 
ATOM     10  C3  <0> d          -0.163   2.131   2.469  0.00  0.00    -0.040 A 
ATOM     11  H5  <0> d          -1.026   2.829   4.382  0.00  0.00     0.117 H 
ATOM     12  H4  <0> d           0.870   1.949   2.726  0.00  0.00     0.088 H 
BRANCH   7  13
ATOM     13  C1  <0> d          -3.005   2.259   0.254  0.00  0.00     0.003 C 
ATOM     14  H1  <0> d          -3.485   1.281   0.230  0.00  0.00     0.059 H 
ATOM     15  H2  <0> d          -3.759   3.030   0.417  0.00  0.00     0.059 H 
ATOM     16  H3  <0> d          -2.501   2.440  -0.696  0.00  0.00     0.059 H 
ENDBRANCH   7  13
ENDBRANCH   1   6
TORSDOF 2
