REMARK  4 active torsions:
REMARK  status: ('A' for Active; 'I' for Inactive)
REMARK    1  A    between atoms: C1_1  and  C2_2 
REMARK    2  A    between atoms: C6_6  and  C8_8 
REMARK    3  A    between atoms: C8_8  and  O2_10 
REMARK    4  A    between atoms: O2_10  and  C9_11 
ROOT
ATOM      1  C2  <0> d          -1.222   1.748   0.017  0.00  0.00    -0.061 A 
ATOM      2  C3  <0> d          -0.013   1.076   0.008  0.00  0.00    -0.077 A 
ATOM      3  C4  <0> d           1.178   1.781   0.000  0.00  0.00    -0.082 A 
ATOM      4  C5  <0> d           1.166   3.160   0.007  0.00  0.00    -0.067 A 
ATOM      5  C6  <0> d          -0.050   3.845   0.022  0.00  0.00     0.040 A 
ATOM      6  C7  <0> d          -1.248   3.127   0.030  0.00  0.00    -0.061 A 
ATOM      7  H4  <0> d           0.002  -0.004   0.002  0.00  0.00     0.084 H 
ATOM      8  H5  <0> d           2.118   1.250  -0.011  0.00  0.00     0.083 H 
ATOM      9  H6  <0> d           2.096   3.709   0.001  0.00  0.00     0.085 H 
ATOM     10  H7  <0> d          -2.193   3.651   0.042  0.00  0.00     0.085 H 
ENDROOT
BRANCH   5  11
ATOM     11  C8  <0> d          -0.070   5.322   0.030  0.00  0.00     0.292 C 
ATOM     12  O1  <0> d          -1.130   5.915   0.043  0.00  0.00    -0.259 OA
BRANCH  11  13
ATOM     13  O2  <0> d           1.087   6.011   0.024  0.00  0.00    -0.323 OA
BRANCH  13  14
ATOM     14  C9  <0> d           0.992   7.460   0.032  0.00  0.00     0.013 C 
ATOM     15  H8  <0> d           0.447   7.794  -0.851  0.00  0.00     0.067 H 
ATOM     16  H9  <0> d           0.463   7.784   0.929  0.00  0.00     0.067 H 
ATOM     17  H10 <0> d           1.993   7.891   0.025  0.00  0.00     0.067 H 
ENDBRANCH  13  14
ENDBRANCH  11  13
ENDBRANCH   5  11
BRANCH   1  18
ATOM     18  C1  <0> d          -2.514   0.972   0.020  0.00  0.00    -0.051 C 
ATOM     19  H1  <0> d          -2.820   0.779   1.048  0.00  0.00     0.033 H 
ATOM     20  H2  <0> d          -3.286   1.550  -0.487  0.00  0.00     0.033 H 
ATOM     21  H3  <0> d          -2.369   0.025  -0.500  0.00  0.00     0.033 H 
ENDBRANCH   1  18
TORSDOF 4
