REMARK  8 active torsions:
REMARK  status: ('A' for Active; 'I' for Inactive)
REMARK    1  A    between atoms: C1_1  and  C2_2 
REMARK    2  A    between atoms: C2_2  and  C3_3 
REMARK    3  A    between atoms: C2_2  and  C4_4 
REMARK    4  A    between atoms: C4_4  and  C5_5 
REMARK    5  A    between atoms: C5_5  and  C6_6 
REMARK    6  A    between atoms: C5_5  and  C7_7 
REMARK    7  A    between atoms: C5_5  and  C8_8 
REMARK    8  A    between atoms: C8_8  and  O1_9 
ROOT
ATOM      1  C5  <0> d           1.062   0.914  -0.536  0.00  0.00    -0.026 C 
ENDROOT
BRANCH   1   2
ATOM      2  C4  <0> d           1.040  -0.607  -0.376  0.00  0.00    -0.054 C 
ATOM      3  H8  <0> d           1.472  -1.072  -1.262  0.00  0.00     0.034 H 
ATOM      4  H9  <0> d           1.623  -0.889   0.501  0.00  0.00     0.034 H 
BRANCH   2   5
ATOM      5  C2  <0> d          -0.404  -1.081  -0.202  0.00  0.00    -0.060 C 
ATOM      6  H4  <0> d          -0.886  -0.498   0.583  0.00  0.00     0.038 H 
BRANCH   5   7
ATOM      7  C1  <0> d          -1.164  -0.893  -1.517  0.00  0.00    -0.073 C 
ATOM      8  H1  <0> d          -0.476  -1.011  -2.354  0.00  0.00     0.028 H 
ATOM      9  H2  <0> d          -1.955  -1.639  -1.589  0.00  0.00     0.028 H 
ATOM     10  H3  <0> d          -1.601   0.105  -1.544  0.00  0.00     0.028 H 
ENDBRANCH   5   7
BRANCH   5  11
ATOM     11  C3  <0> d          -0.412  -2.562   0.184  0.00  0.00    -0.073 C 
ATOM     12  H5  <0> d          -1.440  -2.921   0.224  0.00  0.00     0.028 H 
ATOM     13  H6  <0> d           0.144  -3.134  -0.558  0.00  0.00     0.028 H 
ATOM     14  H7  <0> d           0.055  -2.685   1.162  0.00  0.00     0.028 H 
ENDBRANCH   5  11
ENDBRANCH   2   5
ENDBRANCH   1   2
BRANCH   1  15
ATOM     15  C6  <0> d           0.394   1.297  -1.858  0.00  0.00    -0.067 C 
ATOM     16  H10 <0> d          -0.685   1.360  -1.715  0.00  0.00     0.028 H 
ATOM     17  H11 <0> d           0.774   2.263  -2.191  0.00  0.00     0.028 H 
ATOM     18  H12 <0> d           0.617   0.541  -2.611  0.00  0.00     0.028 H 
ENDBRANCH   1  15
BRANCH   1  19
ATOM     19  C7  <0> d           0.303   1.560   0.625  0.00  0.00    -0.067 C 
ATOM     20  H13 <0> d           0.700   1.188   1.570  0.00  0.00     0.028 H 
ATOM     21  H14 <0> d           0.425   2.642   0.581  0.00  0.00     0.028 H 
ATOM     22  H15 <0> d          -0.755   1.310   0.551  0.00  0.00     0.028 H 
ENDBRANCH   1  19
BRANCH   1  23
ATOM     23  C8  <0> d           2.511   1.406  -0.536  0.00  0.00     0.023 C 
ATOM     24  H16 <0> d           2.987   1.133   0.406  0.00  0.00     0.075 H 
ATOM     25  H17 <0> d           3.051   0.946  -1.363  0.00  0.00     0.075 H 
BRANCH  23  26
ATOM     26  O1  <0> d           2.531   2.827  -0.685  0.00  0.00    -0.400 OA
ATOM     27  H18 <0> d           3.419   3.209  -0.694  0.00  0.00     0.209 HD
ENDBRANCH  23  26
ENDBRANCH   1  23
TORSDOF 8
