REMARK  2 active torsions:
REMARK  status: ('A' for Active; 'I' for Inactive)
REMARK    1  A    between atoms: C1_1  and  C2_2 
REMARK    2  A    between atoms: N2_5  and  C5_7 
ROOT
ATOM      1  C2  <0> d          -0.718   1.572   1.248  0.00  0.00    -0.025 A 
ATOM      2  C3  <0> d          -0.118   1.848   2.481  0.00  0.00     0.029 A 
ATOM      3  N1  <0> d          -1.050   2.247   3.310  0.00  0.00    -0.180 NA
ATOM      4  N2  <0> d          -2.274   2.237   2.630  0.00  0.00    -0.245 N 
ATOM      5  C4  <0> d          -2.043   1.824   1.363  0.00  0.00     0.011 A 
ATOM      6  H4  <0> d           0.933   1.749   2.710  0.00  0.00     0.118 H 
ATOM      7  H5  <0> d          -2.782   1.712   0.584  0.00  0.00     0.115 H 
ENDROOT
BRANCH   4   8
ATOM      8  C5  <0> d          -3.518   2.598   3.165  0.00  0.00     0.058 A 
ATOM      9  C10 <0> d          -3.613   3.012   4.487  0.00  0.00    -0.055 A 
ATOM     10  C9  <0> d          -4.840   3.368   5.012  0.00  0.00    -0.081 A 
ATOM     11  H10 <0> d          -2.728   3.056   5.104  0.00  0.00     0.087 H 
ATOM     12  C8  <0> d          -5.973   3.312   4.222  0.00  0.00    -0.083 A 
ATOM     13  H9  <0> d          -4.914   3.690   6.040  0.00  0.00     0.083 H 
ATOM     14  C7  <0> d          -5.883   2.900   2.905  0.00  0.00    -0.081 A 
ATOM     15  H8  <0> d          -6.932   3.591   4.635  0.00  0.00     0.083 H 
ATOM     16  C6  <0> d          -4.657   2.548   2.373  0.00  0.00    -0.055 A 
ATOM     17  H7  <0> d          -6.770   2.858   2.291  0.00  0.00     0.083 H 
ATOM     18  H6  <0> d          -4.586   2.231   1.343  0.00  0.00     0.087 H 
ENDBRANCH   4   8
BRANCH   1  19
ATOM     19  C1  <0> d          -0.013   1.086   0.008  0.00  0.00    -0.049 C 
ATOM     20  H1  <0> d           0.002  -0.004   0.002  0.00  0.00     0.033 H 
ATOM     21  H2  <0> d           1.010   1.463   0.000  0.00  0.00     0.033 H 
ATOM     22  H3  <0> d          -0.540   1.447  -0.875  0.00  0.00     0.033 H 
ENDBRANCH   1  19
TORSDOF 2
