REMARK  2 active torsions:
REMARK  status: ('A' for Active; 'I' for Inactive)
REMARK    1  A    between atoms: C1_1  and  C2_2 
REMARK    2  A    between atoms: C5_5  and  N2_10 
ROOT
ATOM      1  C2  <0> d           0.042  -2.781  -0.012  0.00  0.00    -0.060 A 
ATOM      2  C3  <0> d           1.228  -2.066  -0.020  0.00  0.00    -0.075 A 
ATOM      3  C4  <0> d           1.212  -0.686  -0.013  0.00  0.00    -0.056 A 
ATOM      4  C5  <0> d           0.002  -0.004   0.002  0.00  0.00     0.046 A 
ATOM      5  C6  <0> d          -1.202  -0.726   0.015  0.00  0.00     0.071 A 
ATOM      6  C7  <0> d          -1.168  -2.123   0.003  0.00  0.00    -0.055 A 
ATOM      7  C8  <0> d          -2.456  -0.035   0.037  0.00  0.00     0.102 C 
ATOM      8  N1  <0> d          -3.451   0.513   0.053  0.00  0.00    -0.191 NA
ATOM      9  H4  <0> d           2.172  -2.591  -0.031  0.00  0.00     0.084 H 
ATOM     10  H5  <0> d           2.141  -0.135  -0.019  0.00  0.00     0.087 H 
ATOM     11  H6  <0> d          -2.090  -2.686   0.009  0.00  0.00     0.086 H 
ENDROOT
BRANCH   4  12
ATOM     12  N2  <0> d          -0.017   1.386   0.010  0.00  0.00    -0.398 N 
ATOM     13  H7  <0> d           0.817   1.883   0.004  0.00  0.00     0.156 HD
ATOM     14  H8  <0> d          -0.863   1.860   0.016  0.00  0.00     0.156 HD
ENDBRANCH   4  12
BRANCH   1  15
ATOM     15  C1  <0> d           0.075  -4.288  -0.019  0.00  0.00    -0.051 C 
ATOM     16  H1  <0> d           0.093  -4.656   1.007  0.00  0.00     0.033 H 
ATOM     17  H2  <0> d          -0.811  -4.669  -0.526  0.00  0.00     0.033 H 
ATOM     18  H3  <0> d           0.968  -4.629  -0.542  0.00  0.00     0.033 H 
ENDBRANCH   1  15
TORSDOF 2
