REMARK  2 active torsions:
REMARK  status: ('A' for Active; 'I' for Inactive)
REMARK    1  A    between atoms: C1_1  and  C2_2 
REMARK    2  A    between atoms: C2_2  and  C7_11 
ROOT
ATOM      1  C2  <0> d           0.002  -0.004   0.002  0.00  0.00    -0.029 C 
ATOM      2  C3  <0> d           0.022  -0.672   1.145  0.00  0.00     0.198 C 
ATOM      3  O1  <0> d           0.046  -2.039   1.163  0.00  0.00    -0.254 OA
ATOM      4  C4  <0> d           0.927  -2.592   2.033  0.00  0.00     0.275 C 
ATOM      5  O2  <0> d           1.641  -3.513   1.714  0.00  0.00    -0.264 OA
ATOM      6  C5  <0> d           0.971  -1.994   3.428  0.00  0.00     0.097 C 
ATOM      7  C6  <0> d           0.898  -0.487   3.264  0.00  0.00     0.275 C 
ATOM      8  O3  <0> d           1.590   0.257   3.918  0.00  0.00    -0.264 OA
ATOM      9  O4  <0> d           0.025  -0.017   2.345  0.00  0.00    -0.254 OA
ATOM     10  H4  <0> d           0.121  -2.347   4.011  0.00  0.00     0.063 H 
ATOM     11  H5  <0> d           1.903  -2.271   3.922  0.00  0.00     0.063 H 
ENDROOT
BRANCH   1  12
ATOM     12  C1  <0> d          -0.018   1.503   0.010  0.00  0.00    -0.050 C 
ATOM     13  H1  <0> d           1.004   1.880   0.003  0.00  0.00     0.033 H 
ATOM     14  H2  <0> d          -0.545   1.864  -0.873  0.00  0.00     0.033 H 
ATOM     15  H3  <0> d          -0.529   1.854   0.907  0.00  0.00     0.033 H 
ENDBRANCH   1  12
BRANCH   1  16
ATOM     16  C7  <0> d          -0.000  -0.750  -1.307  0.00  0.00    -0.050 C 
ATOM     17  H6  <0> d           1.027  -0.916  -1.633  0.00  0.00     0.033 H 
ATOM     18  H7  <0> d          -0.500  -1.710  -1.177  0.00  0.00     0.033 H 
ATOM     19  H8  <0> d          -0.529  -0.164  -2.059  0.00  0.00     0.033 H 
ENDBRANCH   1  16
TORSDOF 2
