REMARK  2 active torsions:
REMARK  status: ('A' for Active; 'I' for Inactive)
REMARK    1  A    between atoms: C1_1  and  C2_2 
REMARK    2  A    between atoms: C5_6  and  C6_8 
ROOT
ATOM      1  C2  <0> d          -0.718   1.572   1.248  0.00  0.00     0.048 A 
ATOM      2  C3  <0> d          -2.084   1.790   1.226  0.00  0.00     0.025 A 
ATOM      3  N1  <0> d          -2.704   2.211   2.315  0.00  0.00    -0.269 NA
ATOM      4  C4  <0> d          -2.017   2.434   3.421  0.00  0.00     0.025 A 
ATOM      5  C5  <0> d          -0.649   2.222   3.441  0.00  0.00     0.048 A 
ATOM      6  N2  <0> d          -0.031   1.795   2.354  0.00  0.00    -0.256 NA
ATOM      7  H4  <0> d          -2.645   1.611   0.321  0.00  0.00     0.117 H 
ATOM      8  H5  <0> d          -2.522   2.784   4.309  0.00  0.00     0.117 H 
ENDROOT
BRANCH   1   9
ATOM      9  C1  <0> d          -0.013   1.086   0.008  0.00  0.00    -0.034 C 
ATOM     10  H1  <0> d           0.002  -0.004   0.002  0.00  0.00     0.035 H 
ATOM     11  H2  <0> d           1.010   1.463   0.000  0.00  0.00     0.035 H 
ATOM     12  H3  <0> d          -0.540   1.447  -0.875  0.00  0.00     0.035 H 
ENDBRANCH   1   9
BRANCH   5  13
ATOM     13  C6  <0> d           0.134   2.477   4.703  0.00  0.00    -0.034 C 
ATOM     14  H6  <0> d           0.479   3.511   4.714  0.00  0.00     0.035 H 
ATOM     15  H7  <0> d          -0.502   2.297   5.569  0.00  0.00     0.035 H 
ATOM     16  H8  <0> d           0.994   1.808   4.739  0.00  0.00     0.035 H 
ENDBRANCH   5  13
TORSDOF 2
