REMARK  5 active torsions:
REMARK  status: ('A' for Active; 'I' for Inactive)
REMARK    1  A    between atoms: C1_1  and  C2_2 
REMARK    2  A    between atoms: C2_2  and  C3_3 
REMARK    3  A    between atoms: C2_2  and  C4_4 
REMARK    4  A    between atoms: C2_2  and  C5_5 
REMARK    5  A    between atoms: C9_9  and  O1_11 
ROOT
ATOM      1  C2  <0> d           0.002  -0.004   0.002  0.00  0.00    -0.024 C 
ENDROOT
BRANCH   1   2
ATOM      2  C1  <0> d          -0.019   1.526   0.010  0.00  0.00    -0.066 C 
ATOM      3  H1  <0> d           1.004   1.903   0.003  0.00  0.00     0.028 H 
ATOM      4  H2  <0> d          -0.546   1.887  -0.873  0.00  0.00     0.028 H 
ATOM      5  H3  <0> d          -0.529   1.877   0.907  0.00  0.00     0.028 H 
ENDBRANCH   1   2
BRANCH   1   6
ATOM      6  C3  <0> d           0.742  -0.511   1.242  0.00  0.00    -0.066 C 
ATOM      7  H4  <0> d           0.232  -0.159   2.138  0.00  0.00     0.028 H 
ATOM      8  H5  <0> d           0.757  -1.601   1.236  0.00  0.00     0.028 H 
ATOM      9  H6  <0> d           1.765  -0.134   1.234  0.00  0.00     0.028 H 
ENDBRANCH   1   6
BRANCH   1  10
ATOM     10  C4  <0> d          -1.433  -0.534   0.013  0.00  0.00    -0.066 C 
ATOM     11  H7  <0> d          -1.960  -0.173  -0.870  0.00  0.00     0.028 H 
ATOM     12  H8  <0> d          -1.419  -1.623   0.007  0.00  0.00     0.028 H 
ATOM     13  H9  <0> d          -1.944  -0.182   0.910  0.00  0.00     0.028 H 
ENDBRANCH   1  10
BRANCH   1  14
ATOM     14  C5  <0> d           0.707  -0.490  -1.238  0.00  0.00    -0.048 A 
ATOM     15  C10 <0> d           2.023  -0.137  -1.466  0.00  0.00    -0.044 A 
ATOM     16  C9  <0> d           2.674  -0.590  -2.605  0.00  0.00     0.066 A 
ATOM     17  H13 <0> d           2.546   0.487  -0.757  0.00  0.00     0.088 H 
ATOM     18  C8  <0> d           1.997  -1.387  -3.517  0.00  0.00    -0.051 A 
ATOM     19  C7  <0> d           0.679  -1.732  -3.287  0.00  0.00    -0.080 A 
ATOM     20  H12 <0> d           2.500  -1.737  -4.406  0.00  0.00     0.087 H 
ATOM     21  C6  <0> d           0.035  -1.285  -2.148  0.00  0.00    -0.076 A 
ATOM     22  H11 <0> d           0.152  -2.352  -3.997  0.00  0.00     0.083 H 
ATOM     23  H10 <0> d          -0.995  -1.556  -1.970  0.00  0.00     0.084 H 
BRANCH  16  24
ATOM     24  O1  <0> d           3.970  -0.248  -2.830  0.00  0.00    -0.361 OA
ATOM     25  H14 <0> d           4.080   0.572  -3.329  0.00  0.00     0.217 HD
ENDBRANCH  16  24
ENDBRANCH   1  14
TORSDOF 5
