REMARK  1 active torsions:
REMARK  status: ('A' for Active; 'I' for Inactive)
REMARK    1  A    between atoms: C4_5  and  C5_7 
ROOT
ATOM      1  C1  <0> d           2.044   0.890  -0.983  0.00  0.00    -0.031 C 
ATOM      2  C2  <0> d           1.358   1.873  -0.001  0.00  0.00     0.020 C 
ATOM      3  O1  <0> d          -0.017   1.433   0.010  0.00  0.00    -0.390 OA
ATOM      4  C3  <0> d           0.002  -0.004   0.002  0.00  0.00     0.032 C 
ATOM      5  C4  <0> d           1.318  -0.441  -0.670  0.00  0.00     0.053 C 
ATOM      6  H1  <0> d           1.912  -1.048   0.013  0.00  0.00     0.060 H 
ATOM      7  H2  <0> d           3.111   0.811  -0.771  0.00  0.00     0.037 H 
ATOM      8  H3  <0> d           1.876   1.191  -2.017  0.00  0.00     0.037 H 
ATOM      9  H4  <0> d           1.430   2.897  -0.369  0.00  0.00     0.074 H 
ATOM     10  H5  <0> d           1.795   1.790   0.994  0.00  0.00     0.074 H 
ATOM     11  H6  <0> d          -0.035  -0.381   1.024  0.00  0.00     0.075 H 
ATOM     12  H7  <0> d          -0.847  -0.383  -0.566  0.00  0.00     0.075 H 
ENDROOT
BRANCH   5  13
ATOM     13  C5  <0> d           1.036  -1.202  -1.939  0.00  0.00     0.179 C 
ATOM     14  O2  <0> d           1.431  -0.777  -2.999  0.00  0.00    -0.648 OA
ATOM     15  O3  <0> d           0.344  -2.351  -1.893  0.00  0.00    -0.648 OA
ENDBRANCH   5  13
TORSDOF 1
