REMARK  4 active torsions:
REMARK  status: ('A' for Active; 'I' for Inactive)
REMARK    1  A    between atoms: C1_1  and  C2_2 
REMARK    2  A    between atoms: C2_2  and  C3_3 
REMARK    3  A    between atoms: C3_3  and  C4_4 
REMARK    4  A    between atoms: C4_4  and  C5_5 
ROOT
ATOM      1  C5  <0> d           0.002  -0.004   0.002  0.00  0.00     0.004 C 
ATOM      2  H1  <0> d           0.549  -0.326  -0.771  0.00  0.00     0.051 H 
ATOM      3  C6  <0> d          -1.437  -0.550  -0.099  0.00  0.00    -0.055 C 
ATOM      4  C7  <0> d          -1.421  -1.803   0.813  0.00  0.00    -0.058 C 
ATOM      5  C8  <0> d          -0.500  -1.354   1.975  0.00  0.00    -0.009 C 
ATOM      6  C9  <0> d           0.578  -0.521   1.304  0.00  0.00     0.131 C 
ATOM      7  O1  <0> d           1.689  -0.310   1.728  0.00  0.00    -0.298 OA
ATOM      8  H11 <0> d          -2.152   0.184   0.272  0.00  0.00     0.034 H 
ATOM      9  H12 <0> d          -1.670  -0.828  -1.127  0.00  0.00     0.034 H 
ATOM     10  H13 <0> d          -2.422  -2.030   1.178  0.00  0.00     0.033 H 
ATOM     11  H14 <0> d          -0.994  -2.659   0.289  0.00  0.00     0.033 H 
ATOM     12  H15 <0> d          -1.033  -0.828   2.638  0.00  0.00     0.044 H 
ATOM     13  H16 <0> d          -0.060  -2.221   2.468  0.00  0.00     0.044 H 
ENDROOT
BRANCH   1  14
ATOM     14  C4  <0> d          -0.019   1.526   0.010  0.00  0.00    -0.055 C 
ATOM     15  H9  <0> d          -0.546   1.887  -0.873  0.00  0.00     0.034 H 
ATOM     16  H10 <0> d          -0.529   1.877   0.907  0.00  0.00     0.034 H 
BRANCH  14  17
ATOM     17  C3  <0> d           1.417   2.055  -0.000  0.00  0.00    -0.065 C 
ATOM     18  H7  <0> d           1.944   1.694   0.883  0.00  0.00     0.033 H 
ATOM     19  H8  <0> d           1.927   1.704  -0.897  0.00  0.00     0.033 H 
BRANCH  17  20
ATOM     20  C2  <0> d           1.396   3.585   0.008  0.00  0.00    -0.069 C 
ATOM     21  H5  <0> d           0.869   3.946  -0.875  0.00  0.00     0.032 H 
ATOM     22  H6  <0> d           0.886   3.937   0.905  0.00  0.00     0.032 H 
BRANCH  20  23
ATOM     23  C1  <0> d           2.831   4.115  -0.003  0.00  0.00    -0.077 C 
ATOM     24  H2  <0> d           3.358   3.754   0.880  0.00  0.00     0.027 H 
ATOM     25  H3  <0> d           3.341   3.763  -0.900  0.00  0.00     0.027 H 
ATOM     26  H4  <0> d           2.817   5.205   0.003  0.00  0.00     0.027 H 
ENDBRANCH  20  23
ENDBRANCH  17  20
ENDBRANCH  14  17
ENDBRANCH   1  14
TORSDOF 4
