REMARK  3 active torsions:
REMARK  status: ('A' for Active; 'I' for Inactive)
REMARK    1  A    between atoms: C4_4  and  C7_7 
REMARK       I    between atoms: C7_7  and  N1_9 
REMARK    2  A    between atoms: N1_9  and  C8_10 
REMARK    3  A    between atoms: C8_10  and  O2_11 
ROOT
ATOM      1  C1  <0> d          -0.056   4.243   0.026  0.00  0.00    -0.083 A 
ATOM      2  C2  <0> d           1.154   3.571   0.010  0.00  0.00    -0.082 A 
ATOM      3  C3  <0> d           1.179   2.192   0.003  0.00  0.00    -0.068 A 
ATOM      4  C4  <0> d          -0.018   1.474   0.010  0.00  0.00     0.032 A 
ATOM      5  C5  <0> d          -1.234   2.159   0.020  0.00  0.00    -0.068 A 
ATOM      6  C6  <0> d          -1.246   3.538   0.033  0.00  0.00    -0.082 A 
ATOM      7  H1  <0> d          -0.070   5.323   0.032  0.00  0.00     0.083 H 
ATOM      8  H2  <0> d           2.079   4.127   0.004  0.00  0.00     0.083 H 
ATOM      9  H3  <0> d           2.124   1.668  -0.010  0.00  0.00     0.085 H 
ATOM     10  H4  <0> d          -2.164   1.609   0.021  0.00  0.00     0.085 H 
ATOM     11  H5  <0> d          -2.187   4.069   0.045  0.00  0.00     0.083 H 
ENDROOT
BRANCH   4  12
ATOM     12  C7  <0> d           0.002  -0.004   0.002  0.00  0.00     0.253 C 
ATOM     13  O1  <0> d           1.063  -0.597  -0.011  0.00  0.00    -0.268 OA
ATOM     14  N1  <0> d          -1.156  -0.694   0.009  0.00  0.00    -0.336 N 
ATOM     15  H6  <0> d          -2.002  -0.220   0.020  0.00  0.00     0.164 HD
BRANCH  14  16
ATOM     16  C8  <0> d          -1.136  -2.159   0.001  0.00  0.00     0.077 C 
ATOM     17  H7  <0> d          -1.978  -2.530  -0.582  0.00  0.00     0.106 H 
ATOM     18  H8  <0> d          -0.204  -2.507  -0.444  0.00  0.00     0.106 H 
BRANCH  16  19
ATOM     19  O2  <0> d          -1.234  -2.644   1.342  0.00  0.00    -0.382 OA
ATOM     20  H9  <0> d          -1.227  -3.608   1.413  0.00  0.00     0.211 HD
ENDBRANCH  16  19
ENDBRANCH  14  16
ENDBRANCH   4  12
TORSDOF 3
