REMARK  4 active torsions:
REMARK  status: ('A' for Active; 'I' for Inactive)
REMARK    1  A    between atoms: C1_1  and  C2_2 
REMARK    2  A    between atoms: C2_2  and  O1_3 
REMARK    3  A    between atoms: O1_3  and  C3_4 
REMARK    4  A    between atoms: C3_4  and  C4_6 
ROOT
ATOM      1  C4  <0> d          -0.136   3.797   0.023  0.00  0.00     0.131 A 
ATOM      2  C5  <0> d           1.111   3.176   0.008  0.00  0.00    -0.049 A 
ATOM      3  C6  <0> d           1.174   1.792   0.001  0.00  0.00    -0.079 A 
ATOM      4  C7  <0> d          -0.013   1.076   0.008  0.00  0.00    -0.066 A 
ATOM      5  C8  <0> d          -1.218   1.759   0.017  0.00  0.00     0.003 A 
ATOM      6  N1  <0> d          -1.250   3.074   0.029  0.00  0.00    -0.255 NA
ATOM      7  H6  <0> d           2.016   3.766   0.003  0.00  0.00     0.087 H 
ATOM      8  H7  <0> d           2.127   1.282  -0.011  0.00  0.00     0.083 H 
ATOM      9  H8  <0> d           0.002  -0.004   0.002  0.00  0.00     0.085 H 
ATOM     10  H9  <0> d          -2.145   1.204   0.019  0.00  0.00     0.114 H 
ENDROOT
BRANCH   1  11
ATOM     11  C3  <0> d          -0.221   5.275   0.031  0.00  0.00     0.312 C 
ATOM     12  O2  <0> d           0.794   5.941   0.025  0.00  0.00    -0.258 OA
BRANCH  11  13
ATOM     13  O1  <0> d          -1.424   5.881   0.045  0.00  0.00    -0.317 OA
BRANCH  13  14
ATOM     14  C2  <0> d          -1.431   7.333   0.053  0.00  0.00     0.026 C 
ATOM     15  H4  <0> d          -0.910   7.694   0.940  0.00  0.00     0.074 H 
ATOM     16  H5  <0> d          -0.927   7.703  -0.840  0.00  0.00     0.074 H 
BRANCH  14  17
ATOM     17  C1  <0> d          -2.876   7.835   0.069  0.00  0.00    -0.056 C 
ATOM     18  H1  <0> d          -3.396   7.474  -0.818  0.00  0.00     0.030 H 
ATOM     19  H2  <0> d          -3.380   7.465   0.962  0.00  0.00     0.030 H 
ATOM     20  H3  <0> d          -2.881   8.925   0.074  0.00  0.00     0.030 H 
ENDBRANCH  14  17
ENDBRANCH  13  14
ENDBRANCH  11  13
ENDBRANCH   1  11
TORSDOF 4
