REMARK  2 active torsions:
REMARK  status: ('A' for Active; 'I' for Inactive)
REMARK    1  A    between atoms: C1_1  and  C2_2 
REMARK    2  A    between atoms: C2_2  and  C6_9 
ROOT
ATOM      1  C2  <0> d           2.281   0.009   0.844  0.00  0.00    -0.003 C 
ATOM      2  C3  <0> d           0.890  -0.624   0.977  0.00  0.00     0.039 C 
ATOM      3  O1  <0> d           0.002  -0.004   0.002  0.00  0.00    -0.297 OA
ATOM      4  C4  <0> d          -0.016   1.348   0.009  0.00  0.00     0.406 C 
ATOM      5  O2  <0> d          -1.065   1.960   0.018  0.00  0.00    -0.230 OA
ATOM      6  O3  <0> d           1.170   1.998   0.002  0.00  0.00    -0.297 OA
ATOM      7  C5  <0> d           2.147   1.531   0.976  0.00  0.00     0.039 C 
ATOM      8  H4  <0> d           0.505  -0.454   1.982  0.00  0.00     0.076 H 
ATOM      9  H5  <0> d           0.953  -1.695   0.785  0.00  0.00     0.076 H 
ATOM     10  H6  <0> d           1.810   1.783   1.982  0.00  0.00     0.076 H 
ATOM     11  H7  <0> d           3.111   2.001   0.782  0.00  0.00     0.076 H 
ENDROOT
BRANCH   1  12
ATOM     12  C1  <0> d           3.194  -0.523   1.951  0.00  0.00    -0.065 C 
ATOM     13  H1  <0> d           3.279  -1.606   1.863  0.00  0.00     0.028 H 
ATOM     14  H2  <0> d           4.181  -0.072   1.855  0.00  0.00     0.028 H 
ATOM     15  H3  <0> d           2.771  -0.270   2.923  0.00  0.00     0.028 H 
ENDBRANCH   1  12
BRANCH   1  16
ATOM     16  C6  <0> d           2.875  -0.340  -0.522  0.00  0.00    -0.065 C 
ATOM     17  H8  <0> d           2.226   0.044  -1.309  0.00  0.00     0.028 H 
ATOM     18  H9  <0> d           3.863   0.111  -0.614  0.00  0.00     0.028 H 
ATOM     19  H10 <0> d           2.959  -1.422  -0.616  0.00  0.00     0.028 H 
ENDBRANCH   1  16
TORSDOF 2
