REMARK  3 active torsions:
REMARK  status: ('A' for Active; 'I' for Inactive)
REMARK    1  A    between atoms: C1_1  and  C2_2 
REMARK    2  A    between atoms: C4_4  and  C8_11 
REMARK    3  A    between atoms: C5_6  and  N3_10 
ROOT
ATOM      1  C2  <0> d           0.002  -0.004   0.002  0.00  0.00    -0.035 A 
ATOM      2  C3  <0> d           0.006  -0.707  -1.191  0.00  0.00    -0.052 A 
ATOM      3  C4  <0> d           0.025  -2.089  -1.167  0.00  0.00     0.033 A 
ATOM      4  N1  <0> d           0.040  -2.753  -0.027  0.00  0.00    -0.235 NA
ATOM      5  C5  <0> d           0.037  -2.132   1.142  0.00  0.00     0.142 A 
ATOM      6  C6  <0> d           0.023  -0.727   1.200  0.00  0.00     0.096 A 
ATOM      7  C7  <0> d           0.026  -0.049   2.461  0.00  0.00     0.104 C 
ATOM      8  N2  <0> d           0.028   0.489   3.462  0.00  0.00    -0.191 NA
ATOM      9  H4  <0> d          -0.006  -0.179  -2.133  0.00  0.00     0.087 H 
ENDROOT
BRANCH   1  10
ATOM     10  C1  <0> d          -0.018   1.503   0.010  0.00  0.00    -0.050 C 
ATOM     11  H1  <0> d           1.004   1.880   0.003  0.00  0.00     0.033 H 
ATOM     12  H2  <0> d          -0.545   1.864  -0.873  0.00  0.00     0.033 H 
ATOM     13  H3  <0> d          -0.529   1.854   0.907  0.00  0.00     0.033 H 
ENDBRANCH   1  10
BRANCH   5  14
ATOM     14  N3  <0> d           0.053  -2.869   2.313  0.00  0.00    -0.383 N 
ATOM     15  H5  <0> d           0.066  -3.838   2.276  0.00  0.00     0.157 HD
ATOM     16  H6  <0> d           0.050  -2.416   3.171  0.00  0.00     0.157 HD
ENDBRANCH   5  14
BRANCH   3  17
ATOM     17  C8  <0> d           0.029  -2.852  -2.467  0.00  0.00    -0.035 C 
ATOM     18  H7  <0> d           1.058  -3.021  -2.785  0.00  0.00     0.035 H 
ATOM     19  H8  <0> d          -0.470  -3.810  -2.327  0.00  0.00     0.035 H 
ATOM     20  H9  <0> d          -0.496  -2.275  -3.228  0.00  0.00     0.035 H 
ENDBRANCH   3  17
TORSDOF 3
