REMARK  0 active torsions:
REMARK  status: ('A' for Active; 'I' for Inactive)
ROOT
ATOM      1  C1  <0> d          -0.018   1.461   0.010  0.00  0.00    -0.038 A 
ATOM      2  C2  <0> d           1.261   1.871   0.000  0.00  0.00    -0.020 A 
ATOM      3  N1  <0> d           2.098   0.790  -0.014  0.00  0.00    -0.363 N 
ATOM      4  H1  <0> d           3.066   0.834  -0.022  0.00  0.00     0.165 HD
ATOM      5  C3  <0> d           1.362  -0.368  -0.013  0.00  0.00     0.082 A 
ATOM      6  C4  <0> d           0.002  -0.004   0.002  0.00  0.00     0.086 A 
ATOM      7  N2  <0> d          -0.946  -0.936   0.006  0.00  0.00    -0.259 NA
ATOM      8  C5  <0> d          -0.655  -2.219  -0.004  0.00  0.00     0.004 A 
ATOM      9  C6  <0> d           0.655  -2.663  -0.019  0.00  0.00    -0.044 A 
ATOM     10  C7  <0> d           1.697  -1.732  -0.024  0.00  0.00     0.075 A 
ATOM     11  C8  <0> d           3.065  -2.156  -0.040  0.00  0.00     0.102 C 
ATOM     12  N3  <0> d           4.150  -2.492  -0.052  0.00  0.00    -0.191 NA
ATOM     13  H2  <0> d          -0.895   2.091   0.026  0.00  0.00     0.089 H 
ATOM     14  H3  <0> d           1.581   2.903   0.002  0.00  0.00     0.111 H 
ATOM     15  H4  <0> d          -1.458  -2.942  -0.001  0.00  0.00     0.114 H 
ATOM     16  H5  <0> d           0.871  -3.722  -0.027  0.00  0.00     0.088 H 
ENDROOT
TORSDOF 0
