REMARK  4 active torsions:
REMARK  status: ('A' for Active; 'I' for Inactive)
REMARK    1  A    between atoms: C1_1  and  C2_2 
REMARK    2  A    between atoms: C5_5  and  C7_8 
REMARK    3  A    between atoms: C7_8  and  O2_10 
REMARK    4  A    between atoms: O2_10  and  C8_11 
ROOT
ATOM      1  C2  <0> d           1.256   6.276   0.023  0.00  0.00     0.030 A 
ATOM      2  C3  <0> d           2.463   5.600   0.008  0.00  0.00    -0.059 A 
ATOM      3  C4  <0> d           2.464   4.217   0.001  0.00  0.00    -0.064 A 
ATOM      4  C5  <0> d           1.232   3.552   0.009  0.00  0.00     0.057 A 
ATOM      5  C6  <0> d           0.058   4.308   0.019  0.00  0.00     0.018 A 
ATOM      6  N1  <0> d           0.109   5.623   0.030  0.00  0.00    -0.265 NA
ATOM      7  H4  <0> d           3.394   6.147   0.003  0.00  0.00     0.086 H 
ATOM      8  H5  <0> d           3.392   3.664  -0.011  0.00  0.00     0.085 H 
ATOM      9  H6  <0> d          -0.900   3.809   0.021  0.00  0.00     0.116 H 
ENDROOT
BRANCH   4  10
ATOM     10  C7  <0> d           1.174   2.076   0.002  0.00  0.00     0.294 C 
ATOM     11  O1  <0> d           2.202   1.428  -0.011  0.00  0.00    -0.259 OA
BRANCH  10  12
ATOM     12  O2  <0> d          -0.018   1.448   0.010  0.00  0.00    -0.322 OA
BRANCH  12  13
ATOM     13  C8  <0> d           0.002  -0.004   0.002  0.00  0.00     0.013 C 
ATOM     14  H7  <0> d          -1.020  -0.381   0.010  0.00  0.00     0.067 H 
ATOM     15  H8  <0> d           0.512  -0.356  -0.895  0.00  0.00     0.067 H 
ATOM     16  H9  <0> d           0.529  -0.365   0.885  0.00  0.00     0.067 H 
ENDBRANCH  12  13
ENDBRANCH  10  12
ENDBRANCH   4  10
BRANCH   1  17
ATOM     17  C1  <0> d           1.250   7.783   0.031  0.00  0.00    -0.035 C 
ATOM     18  H1  <0> d           1.240   8.152  -0.995  0.00  0.00     0.035 H 
ATOM     19  H2  <0> d           0.364   8.140   0.555  0.00  0.00     0.035 H 
ATOM     20  H3  <0> d           2.144   8.147   0.539  0.00  0.00     0.035 H 
ENDBRANCH   1  17
TORSDOF 4
