REMARK  5 active torsions:
REMARK  status: ('A' for Active; 'I' for Inactive)
REMARK    1  A    between atoms: C1_1  and  C2_2 
REMARK    2  A    between atoms: C2_2  and  O1_3 
REMARK    3  A    between atoms: O1_3  and  C3_4 
REMARK    4  A    between atoms: C3_4  and  C4_6 
REMARK    5  A    between atoms: C5_7  and  C7_11 
ROOT
ATOM      1  C4  <0> d           1.500  -2.373   2.473  0.00  0.00     0.163 A 
ATOM      2  C5  <0> d           1.690  -3.693   2.747  0.00  0.00     0.085 A 
ATOM      3  O3  <0> d           2.370  -3.760   3.902  0.00  0.00    -0.306 OA
ATOM      4  C6  <0> d           2.594  -2.509   4.330  0.00  0.00     0.104 A 
ATOM      5  N1  <0> d           2.084  -1.668   3.481  0.00  0.00    -0.228 NA
ATOM      6  H6  <0> d           3.120  -2.242   5.235  0.00  0.00     0.155 H 
ENDROOT
BRANCH   1   7
ATOM      7  C3  <0> d           0.801  -1.813   1.304  0.00  0.00     0.314 C 
ATOM      8  O2  <0> d           0.321  -2.555   0.470  0.00  0.00    -0.257 OA
BRANCH   7   9
ATOM      9  O1  <0> d           0.693  -0.477   1.160  0.00  0.00    -0.317 OA
BRANCH   9  10
ATOM     10  C2  <0> d           0.002  -0.004   0.002  0.00  0.00     0.026 C 
ATOM     11  H4  <0> d          -1.020  -0.381   0.010  0.00  0.00     0.074 H 
ATOM     12  H5  <0> d           0.512  -0.356  -0.895  0.00  0.00     0.074 H 
BRANCH  10  13
ATOM     13  C1  <0> d          -0.019   1.526   0.010  0.00  0.00    -0.056 C 
ATOM     14  H1  <0> d           1.004   1.903   0.003  0.00  0.00     0.030 H 
ATOM     15  H2  <0> d          -0.546   1.887  -0.873  0.00  0.00     0.030 H 
ATOM     16  H3  <0> d          -0.529   1.877   0.907  0.00  0.00     0.030 H 
ENDBRANCH  10  13
ENDBRANCH   9  10
ENDBRANCH   7   9
ENDBRANCH   1   7
BRANCH   2  17
ATOM     17  C7  <0> d           1.225  -4.858   1.912  0.00  0.00    -0.029 C 
ATOM     18  H7  <0> d           1.998  -5.120   1.190  0.00  0.00     0.036 H 
ATOM     19  H8  <0> d           1.028  -5.713   2.558  0.00  0.00     0.036 H 
ATOM     20  H9  <0> d           0.312  -4.585   1.383  0.00  0.00     0.036 H 
ENDBRANCH   2  17
TORSDOF 5
