REMARK  2 active torsions:
REMARK  status: ('A' for Active; 'I' for Inactive)
REMARK    1  A    between atoms: C1_1  and  C2_2 
REMARK    2  A    between atoms: C4_4  and  C10_11 
ROOT
ATOM      1  C2  <0> d           0.563  -2.711  -0.019  0.00  0.00    -0.059 A 
ATOM      2  C3  <0> d          -0.750  -2.278  -0.004  0.00  0.00    -0.071 A 
ATOM      3  C4  <0> d          -1.028  -0.924   0.007  0.00  0.00    -0.053 A 
ATOM      4  C5  <0> d           0.002  -0.004   0.002  0.00  0.00    -0.024 A 
ATOM      5  C6  <0> d           1.322  -0.427  -0.013  0.00  0.00     0.035 A 
ATOM      6  C7  <0> d           1.595  -1.797  -0.023  0.00  0.00    -0.051 A 
ATOM      7  N1  <0> d           2.208   0.652  -0.015  0.00  0.00    -0.389 N 
ATOM      8  C8  <0> d           1.464   1.914  -0.002  0.00  0.00    -0.004 A 
ATOM      9  C9  <0> d          -0.018   1.508   0.010  0.00  0.00    -0.024 A 
ATOM     10  H4  <0> d          -1.557  -2.997  -0.001  0.00  0.00     0.085 H 
ATOM     11  H5  <0> d           2.619  -2.141  -0.035  0.00  0.00     0.087 H 
ATOM     12  H6  <0> d           3.308   0.661  -0.026  0.00  0.00     0.159 HD
ATOM     13  H7  <0> d           1.734   2.488   0.897  0.00  0.00     0.064 H 
ATOM     14  H8  <0> d           1.716   2.498  -0.899  0.00  0.00     0.064 H 
ATOM     15  H9  <0> d          -0.550   1.872  -0.881  0.00  0.00     0.042 H 
ATOM     16  H10 <0> d          -0.533   1.863   0.915  0.00  0.00     0.042 H 
ENDROOT
BRANCH   1  17
ATOM     17  C1  <0> d           0.868  -4.187  -0.032  0.00  0.00    -0.051 C 
ATOM     18  H1  <0> d          -0.073  -4.755  -0.026  0.00  0.00     0.033 H 
ATOM     19  H2  <0> d           1.459  -4.447   0.859  0.00  0.00     0.033 H 
ATOM     20  H3  <0> d           1.442  -4.435  -0.937  0.00  0.00     0.033 H 
ENDBRANCH   1  17
BRANCH   3  21
ATOM     21  C10 <0> d          -2.459  -0.451   0.023  0.00  0.00    -0.051 C 
ATOM     22  H11 <0> d          -2.481   0.649   0.030  0.00  0.00     0.033 H 
ATOM     23  H12 <0> d          -2.962  -0.834   0.923  0.00  0.00     0.033 H 
ATOM     24  H13 <0> d          -2.978  -0.823  -0.873  0.00  0.00     0.033 H 
ENDBRANCH   3  21
TORSDOF 2
