REMARK  3 active torsions:
REMARK  status: ('A' for Active; 'I' for Inactive)
REMARK    1  A    between atoms: C3_3  and  C5_6 
REMARK    2  A    between atoms: C5_6  and  C6_8 
REMARK    3  A    between atoms: C6_8  and  N1_9 
ROOT
ATOM      1  C1  <0> d          -0.016   1.354   0.009  0.00  0.00    -0.075 A 
ATOM      2  C2  <0> d           1.173   2.038   0.002  0.00  0.00    -0.062 A 
ATOM      3  C3  <0> d           2.321   1.251  -0.013  0.00  0.00     0.052 A 
ATOM      4  S1  <0> d           1.636  -0.395  -0.016  0.00  0.00    -0.098 SA
ATOM      5  C4  <0> d           0.002  -0.004   0.002  0.00  0.00    -0.044 A 
ATOM      6  H1  <0> d          -0.955   1.888   0.026  0.00  0.00     0.084 H 
ATOM      7  H2  <0> d           1.215   3.117   0.007  0.00  0.00     0.085 H 
ATOM      8  H3  <0> d          -0.841  -0.679   0.007  0.00  0.00     0.095 H 
ENDROOT
BRANCH   3   9
ATOM      9  C5  <0> d           3.675   1.652  -0.024  0.00  0.00     0.194 C 
ATOM     10  O1  <0> d           3.958   2.833  -0.021  0.00  0.00    -0.290 OA
BRANCH   9  11
ATOM     11  C6  <0> d           4.768   0.615  -0.040  0.00  0.00     0.168 C 
ATOM     12  H4  <0> d           4.686  -0.013   0.847  0.00  0.00     0.091 H 
ATOM     13  H5  <0> d           4.669  -0.004  -0.933  0.00  0.00     0.091 H 
BRANCH  11  14
ATOM     14  N1  <0> d           6.076   1.282  -0.049  0.00  0.00     0.085 N 
ATOM     15  H6  <0> d           6.826   0.607  -0.060  0.00  0.00     0.313 HD
ATOM     16  H7  <0> d           6.152   1.919  -0.828  0.00  0.00     0.313 HD
ENDBRANCH  11  14
ENDBRANCH   9  11
ENDBRANCH   3   9
TORSDOF 3
