REMARK  1 active torsions:
REMARK  status: ('A' for Active; 'I' for Inactive)
REMARK    1  A    between atoms: C9_10  and  O1_12 
ROOT
ATOM      1  C1  <0> d          -0.217   4.227   0.018  0.00  0.00    -0.065 A 
ATOM      2  C2  <0> d           1.039   3.643   0.005  0.00  0.00    -0.071 A 
ATOM      3  C3  <0> d           1.135   2.255   0.003  0.00  0.00    -0.005 A 
ATOM      4  C4  <0> d          -0.018   1.503   0.010  0.00  0.00     0.043 A 
ATOM      5  N1  <0> d          -1.203   2.101   0.019  0.00  0.00    -0.265 NA
ATOM      6  C5  <0> d          -1.331   3.410   0.028  0.00  0.00     0.003 A 
ATOM      7  C6  <0> d           0.002  -0.004   0.002  0.00  0.00    -0.024 C 
ATOM      8  C7  <0> d           1.375  -0.524   0.422  0.00  0.00    -0.058 C 
ATOM      9  C8  <0> d           2.441   0.176  -0.429  0.00  0.00    -0.037 C 
ATOM     10  C9  <0> d           2.509   1.642  -0.003  0.00  0.00     0.063 C 
ATOM     11  H1  <0> d           2.936   1.706   0.998  0.00  0.00     0.090 H 
ATOM     12  H2  <0> d          -0.323   5.301   0.019  0.00  0.00     0.085 H 
ATOM     13  H3  <0> d           1.929   4.255  -0.004  0.00  0.00     0.084 H 
ATOM     14  H4  <0> d          -2.317   3.851   0.040  0.00  0.00     0.114 H 
ATOM     15  H5  <0> d          -0.752  -0.378   0.695  0.00  0.00     0.042 H 
ATOM     16  H6  <0> d          -0.225  -0.361  -1.002  0.00  0.00     0.042 H 
ATOM     17  H7  <0> d           1.544  -0.303   1.476  0.00  0.00     0.033 H 
ATOM     18  H8  <0> d           1.425  -1.601   0.259  0.00  0.00     0.033 H 
ATOM     19  H9  <0> d           3.409  -0.298  -0.269  0.00  0.00     0.037 H 
ATOM     20  H10 <0> d           2.170   0.112  -1.482  0.00  0.00     0.037 H 
ENDROOT
BRANCH  10  21
ATOM     21  O1  <0> d           3.341   2.360  -0.917  0.00  0.00    -0.391 OA
ATOM     22  H11 <0> d           3.432   3.300  -0.710  0.00  0.00     0.210 HD
ENDBRANCH  10  21
TORSDOF 1
