REMARK  3 active torsions:
REMARK  status: ('A' for Active; 'I' for Inactive)
REMARK    1  A    between atoms: C1_1  and  C2_2 
REMARK    2  A    between atoms: C2_2  and  C3_3 
REMARK    3  A    between atoms: C2_2  and  C4_4 
ROOT
ATOM      1  C4  <0> d           0.718  -0.497  -1.257  0.00  0.00    -0.050 C 
ATOM      2  H1  <0> d           0.180  -0.129  -2.130  0.00  0.00     0.040 H 
ATOM      3  C5  <0> d           2.122   0.080  -1.274  0.00  0.00    -0.053 C 
ATOM      4  C6  <0> d           2.816  -0.220  -2.604  0.00  0.00     0.010 C 
ATOM      5  C7  <0> d           3.439  -1.598  -2.521  0.00  0.00     0.217 C 
ATOM      6  O1  <0> d           4.645  -1.712  -2.456  0.00  0.00    -0.274 OA
ATOM      7  N1  <0> d           2.667  -2.685  -2.519  0.00  0.00    -0.361 N 
ATOM      8  C8  <0> d           1.203  -2.559  -2.603  0.00  0.00    -0.004 C 
ATOM      9  C9  <0> d           0.683  -2.015  -1.271  0.00  0.00    -0.047 C 
ATOM     10  H9  <0> d           2.067   1.160  -1.133  0.00  0.00     0.034 H 
ATOM     11  H10 <0> d           2.700  -0.358  -0.460  0.00  0.00     0.034 H 
ATOM     12  H11 <0> d           2.084  -0.198  -3.412  0.00  0.00     0.047 H 
ATOM     13  H12 <0> d           3.592   0.523  -2.788  0.00  0.00     0.047 H 
ATOM     14  H13 <0> d           3.072  -3.564  -2.461  0.00  0.00     0.162 HD
ATOM     15  H14 <0> d           0.940  -1.872  -3.408  0.00  0.00     0.064 H 
ATOM     16  H15 <0> d           0.762  -3.538  -2.797  0.00  0.00     0.064 H 
ATOM     17  H16 <0> d           1.303  -2.396  -0.460  0.00  0.00     0.035 H 
ATOM     18  H17 <0> d          -0.344  -2.351  -1.125  0.00  0.00     0.035 H 
ENDROOT
BRANCH   1  19
ATOM     19  C2  <0> d           0.002  -0.004   0.002  0.00  0.00    -0.058 C 
ATOM     20  H5  <0> d           0.529  -0.365   0.885  0.00  0.00     0.039 H 
BRANCH  19  21
ATOM     21  C1  <0> d          -0.019   1.526   0.010  0.00  0.00    -0.073 C 
ATOM     22  H2  <0> d           1.004   1.903   0.003  0.00  0.00     0.028 H 
ATOM     23  H3  <0> d          -0.546   1.887  -0.873  0.00  0.00     0.028 H 
ATOM     24  H4  <0> d          -0.529   1.877   0.907  0.00  0.00     0.028 H 
ENDBRANCH  19  21
BRANCH  19  25
ATOM     25  C3  <0> d          -1.433  -0.534   0.013  0.00  0.00    -0.073 C 
ATOM     26  H6  <0> d          -1.960  -0.173  -0.870  0.00  0.00     0.028 H 
ATOM     27  H7  <0> d          -1.419  -1.623   0.007  0.00  0.00     0.028 H 
ATOM     28  H8  <0> d          -1.944  -0.182   0.910  0.00  0.00     0.028 H 
ENDBRANCH  19  25
ENDBRANCH   1  19
TORSDOF 3
