REMARK  1 active torsions:
REMARK  status: ('A' for Active; 'I' for Inactive)
REMARK    1  A    between atoms: C6_6  and  N1_7 
ROOT
ATOM      1  C1  <0> d          -1.251   3.037   0.030  0.00  0.00    -0.055 A 
ATOM      2  C2  <0> d          -2.458   3.710   0.034  0.00  0.00    -0.042 A 
ATOM      3  C3  <0> d          -3.647   3.001   0.036  0.00  0.00     0.138 A 
ATOM      4  C4  <0> d          -3.630   1.615   0.029  0.00  0.00     0.074 A 
ATOM      5  C5  <0> d          -2.425   0.939   0.019  0.00  0.00    -0.034 A 
ATOM      6  C6  <0> d          -1.231   1.648   0.017  0.00  0.00     0.027 A 
ATOM      7 Cl1  <0> d          -5.123   0.730   0.031  0.00  0.00    -0.081 Cl
ATOM      8  F1  <0> d          -4.825   3.662   0.045  0.00  0.00    -0.204 F 
ATOM      9  H1  <0> d          -0.324   3.590   0.033  0.00  0.00     0.087 H 
ATOM     10  H2  <0> d          -2.473   4.790   0.040  0.00  0.00     0.088 H 
ATOM     11  H3  <0> d          -2.412  -0.141   0.013  0.00  0.00     0.089 H 
ENDROOT
BRANCH   6  12
ATOM     12  N1  <0> d          -0.011   0.966   0.007  0.00  0.00    -0.399 N 
ATOM     13  H4  <0> d           0.002  -0.004   0.002  0.00  0.00     0.156 HD
ATOM     14  H5  <0> d           0.822   1.462   0.002  0.00  0.00     0.156 HD
ENDBRANCH   6  12
TORSDOF 1
