REMARK  3 active torsions:
REMARK  status: ('A' for Active; 'I' for Inactive)
REMARK    1  A    between atoms: C1_1  and  O1_2 
REMARK    2  A    between atoms: O1_2  and  C2_3 
REMARK    3  A    between atoms: C2_3  and  C3_5 
ROOT
ATOM      1  C3  <0> d          -1.247  -2.111   0.003  0.00  0.00     0.154 A 
ATOM      2  C4  <0> d          -2.481  -2.767   0.005  0.00  0.00    -0.046 A 
ATOM      3  C5  <0> d          -2.480  -4.155  -0.003  0.00  0.00    -0.062 A 
ATOM      4  C6  <0> d          -1.256  -4.805  -0.012  0.00  0.00     0.024 A 
ATOM      5  N1  <0> d          -0.134  -4.106  -0.013  0.00  0.00    -0.162 NA
ATOM      6  N2  <0> d          -0.126  -2.823  -0.012  0.00  0.00    -0.145 NA
ATOM      7  H4  <0> d          -3.407  -2.211   0.013  0.00  0.00     0.087 H 
ATOM      8  H5  <0> d          -3.405  -4.711  -0.001  0.00  0.00     0.085 H 
ATOM      9  H6  <0> d          -1.219  -5.885  -0.018  0.00  0.00     0.117 H 
ENDROOT
BRANCH   1  10
ATOM     10  C2  <0> d          -1.190  -0.632   0.010  0.00  0.00     0.313 C 
ATOM     11  O2  <0> d          -2.217   0.016   0.023  0.00  0.00    -0.257 OA
BRANCH  10  12
ATOM     12  O1  <0> d           0.002  -0.004   0.002  0.00  0.00    -0.321 OA
BRANCH  12  13
ATOM     13  C1  <0> d          -0.017   1.425   0.010  0.00  0.00     0.013 C 
ATOM     14  H1  <0> d           1.005   1.802   0.002  0.00  0.00     0.067 H 
ATOM     15  H2  <0> d          -0.544   1.786  -0.873  0.00  0.00     0.067 H 
ATOM     16  H3  <0> d          -0.527   1.776   0.907  0.00  0.00     0.067 H 
ENDBRANCH  12  13
ENDBRANCH  10  12
ENDBRANCH   1  10
TORSDOF 3
