REMARK  2 active torsions:
REMARK  status: ('A' for Active; 'I' for Inactive)
REMARK    1  A    between atoms: C1_1  and  C2_2 
REMARK    2  A    between atoms: C9_10  and  N2_12 
ROOT
ATOM      1  C2  <0> d           1.207  -0.701  -0.014  0.00  0.00    -0.059 A 
ATOM      2  C3  <0> d           2.398  -0.041  -0.021  0.00  0.00    -0.065 A 
ATOM      3  C4  <0> d           2.421   1.363  -0.014  0.00  0.00    -0.005 A 
ATOM      4  C5  <0> d           3.636   2.075  -0.022  0.00  0.00    -0.069 A 
ATOM      5  C6  <0> d           3.584   3.439  -0.015  0.00  0.00    -0.065 A 
ATOM      6  C7  <0> d           2.350   4.088   0.001  0.00  0.00     0.003 A 
ATOM      7  N1  <0> d           1.222   3.421   0.008  0.00  0.00    -0.258 NA
ATOM      8  C8  <0> d           1.203   2.086   0.002  0.00  0.00     0.092 A 
ATOM      9  C9  <0> d          -0.017   1.374   0.010  0.00  0.00     0.056 A 
ATOM     10  C10 <0> d           0.002  -0.004   0.002  0.00  0.00    -0.050 A 
ATOM     11  H4  <0> d           3.324  -0.597  -0.034  0.00  0.00     0.085 H 
ATOM     12  H5  <0> d           4.583   1.556  -0.034  0.00  0.00     0.085 H 
ATOM     13  H6  <0> d           4.497   4.016  -0.021  0.00  0.00     0.085 H 
ATOM     14  H7  <0> d           2.324   5.167   0.007  0.00  0.00     0.114 H 
ATOM     15  H8  <0> d          -0.930  -0.550   0.008  0.00  0.00     0.087 H 
ENDROOT
BRANCH   1  16
ATOM     16  C1  <0> d           1.192  -2.208  -0.022  0.00  0.00    -0.051 C 
ATOM     17  H1  <0> d           1.179  -2.566  -1.051  0.00  0.00     0.033 H 
ATOM     18  H2  <0> d           2.084  -2.582   0.481  0.00  0.00     0.033 H 
ATOM     19  H3  <0> d           0.304  -2.566   0.499  0.00  0.00     0.033 H 
ENDBRANCH   1  16
BRANCH   9  20
ATOM     20  N2  <0> d          -1.230   2.060   0.019  0.00  0.00    -0.397 N 
ATOM     21  H9  <0> d          -2.066   1.567   0.020  0.00  0.00     0.156 HD
ATOM     22  H10 <0> d          -1.239   3.030   0.024  0.00  0.00     0.156 HD
ENDBRANCH   9  20
TORSDOF 2
