REMARK  3 active torsions:
REMARK  status: ('A' for Active; 'I' for Inactive)
REMARK    1  A    between atoms: C1_1  and  C2_2 
REMARK    2  A    between atoms: N3_6  and  C4_7 
REMARK    3  A    between atoms: C4_7  and  C5_8 
ROOT
ATOM      1  C2  <0> d           0.690   3.119   0.012  0.00  0.00     0.120 A 
ATOM      2  N1  <0> d           1.061   1.865   0.002  0.00  0.00    -0.226 NA
ATOM      3  C3  <0> d          -0.013   1.076   0.008  0.00  0.00     0.108 A 
ATOM      4  N2  <0> d          -1.087   1.821   0.017  0.00  0.00    -0.164 NA
ATOM      5  N3  <0> d          -0.654   3.157   0.025  0.00  0.00    -0.252 N 
ATOM      6  H4  <0> d           0.002  -0.004   0.002  0.00  0.00     0.149 H 
ENDROOT
BRANCH   5   7
ATOM      7  C4  <0> d          -1.498   4.354   0.040  0.00  0.00     0.033 C 
ATOM      8  H5  <0> d          -2.430   4.134   0.561  0.00  0.00     0.073 H 
ATOM      9  H6  <0> d          -0.976   5.161   0.553  0.00  0.00     0.073 H 
BRANCH   7  10
ATOM     10  C5  <0> d          -1.802   4.772  -1.376  0.00  0.00    -0.093 C 
ATOM     11  C6  <0> d          -3.044   4.917  -1.764  0.00  0.00    -0.123 C 
ATOM     12  H8  <0> d          -3.852   4.738  -1.069  0.00  0.00     0.066 H 
ATOM     13  H9  <0> d          -3.262   5.217  -2.779  0.00  0.00     0.066 H 
ATOM     14  H7  <0> d          -0.995   4.951  -2.071  0.00  0.00     0.078 H 
ENDBRANCH   7  10
ENDBRANCH   5   7
BRANCH   1  15
ATOM     15  C1  <0> d           1.609   4.314   0.010  0.00  0.00    -0.020 C 
ATOM     16  H1  <0> d           1.821   4.608  -1.018  0.00  0.00     0.037 H 
ATOM     17  H2  <0> d           1.130   5.141   0.533  0.00  0.00     0.037 H 
ATOM     18  H3  <0> d           2.541   4.056   0.514  0.00  0.00     0.037 H 
ENDBRANCH   1  15
TORSDOF 3
