REMARK  1 active torsions:
REMARK  status: ('A' for Active; 'I' for Inactive)
REMARK    1  A    between atoms: C5_6  and  C6_7 
REMARK       I    between atoms: C6_7  and  N2_9 
ROOT
ATOM      1  C1  <0> d          -3.686   1.540   0.028  0.00  0.00    -0.062 A 
ATOM      2  C2  <0> d          -4.845   0.788   0.029  0.00  0.00    -0.026 A 
ATOM      3  C3  <0> d          -4.755  -0.596   0.021  0.00  0.00     0.209 A 
ATOM      4  N1  <0> d          -3.581  -1.203   0.013  0.00  0.00    -0.232 NA
ATOM      5  C4  <0> d          -2.450  -0.528   0.005  0.00  0.00     0.020 A 
ATOM      6  C5  <0> d          -2.457   0.868   0.018  0.00  0.00     0.049 A 
ATOM      7  F1  <0> d          -5.886  -1.336   0.022  0.00  0.00    -0.184 F 
ATOM      8  H1  <0> d          -3.726   2.620   0.034  0.00  0.00     0.085 H 
ATOM      9  H2  <0> d          -5.810   1.273   0.037  0.00  0.00     0.090 H 
ATOM     10  H3  <0> d          -1.510  -1.059  -0.007  0.00  0.00     0.116 H 
ENDROOT
BRANCH   6  11
ATOM     11  C6  <0> d          -1.187   1.624   0.017  0.00  0.00     0.250 C 
ATOM     12  O1  <0> d          -1.204   2.839   0.023  0.00  0.00    -0.268 OA
ATOM     13  N2  <0> d          -0.011   0.966   0.007  0.00  0.00    -0.366 N 
ATOM     14  H4  <0> d           0.002  -0.004   0.002  0.00  0.00     0.159 HD
ATOM     15  H5  <0> d           0.822   1.462   0.002  0.00  0.00     0.159 HD
ENDBRANCH   6  11
TORSDOF 1
