REMARK  3 active torsions:
REMARK  status: ('A' for Active; 'I' for Inactive)
REMARK    1  A    between atoms: C1_1  and  C2_2 
REMARK       I    between atoms: C2_2  and  N1_4 
REMARK    2  A    between atoms: N1_4  and  C3_5 
REMARK    3  A    between atoms: C3_5  and  C9_11 
ROOT
ATOM      1  C3  <0> d           1.248   1.716  -0.001  0.00  0.00     0.029 C 
ATOM      2  C4  <0> d           1.305   2.603  -1.246  0.00  0.00    -0.042 C 
ATOM      3  C5  <0> d           1.224   1.729  -2.499  0.00  0.00    -0.063 C 
ATOM      4  C6  <0> d           2.400   0.751  -2.515  0.00  0.00    -0.065 C 
ATOM      5  C7  <0> d           2.343  -0.137  -1.270  0.00  0.00    -0.063 C 
ATOM      6  C8  <0> d           2.424   0.737  -0.017  0.00  0.00    -0.042 C 
ATOM      7  H5  <0> d           0.467   3.300  -1.234  0.00  0.00     0.036 H 
ATOM      8  H6  <0> d           2.241   3.161  -1.252  0.00  0.00     0.036 H 
ATOM      9  H7  <0> d           1.264   2.361  -3.386  0.00  0.00     0.033 H 
ATOM     10  H8  <0> d           0.287   1.171  -2.493  0.00  0.00     0.033 H 
ATOM     11  H9  <0> d           3.336   1.308  -2.521  0.00  0.00     0.033 H 
ATOM     12  H10 <0> d           2.342   0.128  -3.408  0.00  0.00     0.033 H 
ATOM     13  H11 <0> d           3.181  -0.834  -1.282  0.00  0.00     0.033 H 
ATOM     14  H12 <0> d           1.406  -0.695  -1.264  0.00  0.00     0.033 H 
ATOM     15  H13 <0> d           3.360   1.295  -0.023  0.00  0.00     0.036 H 
ATOM     16  H14 <0> d           2.383   0.105   0.870  0.00  0.00     0.036 H 
ENDROOT
BRANCH   1  17
ATOM     17  N1  <0> d          -0.011   0.966   0.007  0.00  0.00    -0.353 N 
ATOM     18  C2  <0> d          -1.187   1.624   0.017  0.00  0.00     0.214 C 
ATOM     19  O1  <0> d          -1.204   2.837   0.023  0.00  0.00    -0.274 OA
ATOM     20  H4  <0> d           0.002  -0.004   0.002  0.00  0.00     0.163 HD
BRANCH  18  21
ATOM     21  C1  <0> d          -2.482   0.853   0.018  0.00  0.00    -0.003 C 
ATOM     22  H1  <0> d          -2.268  -0.216   0.012  0.00  0.00     0.040 H 
ATOM     23  H2  <0> d          -3.053   1.103   0.912  0.00  0.00     0.040 H 
ATOM     24  H3  <0> d          -3.061   1.113  -0.867  0.00  0.00     0.040 H 
ENDBRANCH  18  21
ENDBRANCH   1  17
BRANCH   1  25
ATOM     25  C9  <0> d           1.329   2.589   1.253  0.00  0.00    -0.053 C 
ATOM     26  H15 <0> d           1.288   1.957   2.140  0.00  0.00     0.030 H 
ATOM     27  H16 <0> d           2.265   3.147   1.247  0.00  0.00     0.030 H 
ATOM     28  H17 <0> d           0.491   3.286   1.264  0.00  0.00     0.030 H 
ENDBRANCH   1  25
TORSDOF 3
