REMARK  0 active torsions:
REMARK  status: ('A' for Active; 'I' for Inactive)
ROOT
ATOM      1  C1  <0> d          -1.215   1.750   0.017  0.00  0.00    -0.044 A 
ATOM      2  C2  <0> d          -0.013   1.076   0.008  0.00  0.00    -0.057 A 
ATOM      3  C3  <0> d           1.187   1.792   0.000  0.00  0.00     0.083 A 
ATOM      4  C4  <0> d           1.160   3.191   0.008  0.00  0.00     0.140 A 
ATOM      5  C5  <0> d          -0.052   3.854   0.023  0.00  0.00    -0.007 A 
ATOM      6  C6  <0> d          -1.237   3.136   0.031  0.00  0.00     0.119 A 
ATOM      7  F1  <0> d          -2.419   3.790   0.046  0.00  0.00    -0.206 F 
ATOM      8  F2  <0> d           2.315   3.891   0.001  0.00  0.00    -0.204 F 
ATOM      9  C7  <0> d           2.439   1.097  -0.016  0.00  0.00     0.102 C 
ATOM     10  N1  <0> d           3.432   0.546  -0.029  0.00  0.00    -0.191 NA
ATOM     11  H1  <0> d          -2.142   1.196   0.018  0.00  0.00     0.088 H 
ATOM     12  H2  <0> d           0.002  -0.004   0.002  0.00  0.00     0.086 H 
ATOM     13  H3  <0> d          -0.076   4.934   0.029  0.00  0.00     0.093 H 
ENDROOT
TORSDOF 0
