REMARK  1 active torsions:
REMARK  status: ('A' for Active; 'I' for Inactive)
REMARK    1  A    between atoms: C1_1  and  C2_2 
ROOT
ATOM      1  C2  <0> d          -1.029   2.287   0.019  0.00  0.00     0.053 A 
ATOM      2  C3  <0> d          -0.017   1.407   0.010  0.00  0.00     0.089 A 
ATOM      3  C4  <0> d           1.198   2.136   0.002  0.00  0.00     0.107 A 
ATOM      4  N1  <0> d           0.916   3.398   0.010  0.00  0.00    -0.175 NA
ATOM      5  N2  <0> d          -0.483   3.536   0.024  0.00  0.00    -0.280 N 
ATOM      6  H1  <0> d          -1.135   4.421   0.038  0.00  0.00     0.189 HD
ATOM      7  C5  <0> d           2.524   1.414  -0.011  0.00  0.00     0.074 C 
ATOM      8  O1  <0> d           2.301   0.088   0.550  0.00  0.00    -0.298 OA
ATOM      9  C6  <0> d           1.201  -0.599   0.209  0.00  0.00     0.365 C 
ATOM     10  O2  <0> d           1.283  -1.805   0.082  0.00  0.00    -0.238 OA
ATOM     11  N3  <0> d           0.002  -0.004   0.002  0.00  0.00    -0.299 N 
ATOM     12  H5  <0> d           2.891   1.339  -1.045  0.00  0.00     0.085 H 
ATOM     13  H6  <0> d           3.252   1.972   0.596  0.00  0.00     0.085 H 
ATOM     14  H7  <0> d          -0.928  -0.566  -0.167  0.00  0.00     0.171 HD
ENDROOT
BRANCH   1  15
ATOM     15  C1  <0> d          -2.499   1.956   0.024  0.00  0.00    -0.034 C 
ATOM     16  H2  <0> d          -2.629   0.863   0.017  0.00  0.00     0.035 H 
ATOM     17  H3  <0> d          -2.975   2.387  -0.869  0.00  0.00     0.035 H 
ATOM     18  H4  <0> d          -2.966   2.375   0.927  0.00  0.00     0.035 H 
ENDBRANCH   1  15
TORSDOF 1
