REMARK  2 active torsions:
REMARK  status: ('A' for Active; 'I' for Inactive)
REMARK    1  A    between atoms: C1_1  and  C2_2 
REMARK    2  A    between atoms: C3_3  and  C8_12 
ROOT
ATOM      1  C2  <0> d          -1.190   3.399   0.031  0.00  0.00     0.056 A 
ATOM      2  C3  <0> d           0.002   4.114   0.023  0.00  0.00     0.056 A 
ATOM      3  N1  <0> d           1.158   3.481   0.009  0.00  0.00    -0.238 NA
ATOM      4  C4  <0> d           1.189   2.151   0.002  0.00  0.00     0.176 A 
ATOM      5  C5  <0> d          -0.017   1.428   0.010  0.00  0.00     0.176 A 
ATOM      6  N2  <0> d          -1.176   2.081   0.019  0.00  0.00    -0.238 NA
ATOM      7  C6  <0> d           0.002  -0.004   0.002  0.00  0.00     0.123 C 
ATOM      8  N3  <0> d           0.018  -1.140  -0.004  0.00  0.00    -0.190 NA
ATOM      9  C7  <0> d           2.443   1.460  -0.013  0.00  0.00     0.123 C 
ATOM     10  N4  <0> d           3.438   0.912  -0.024  0.00  0.00    -0.190 NA
ENDROOT
BRANCH   1  11
ATOM     11  C1  <0> d          -2.505   4.135   0.047  0.00  0.00    -0.034 C 
ATOM     12  H1  <0> d          -2.832   4.318  -0.976  0.00  0.00     0.035 H 
ATOM     13  H2  <0> d          -3.252   3.533   0.565  0.00  0.00     0.035 H 
ATOM     14  H3  <0> d          -2.382   5.086   0.565  0.00  0.00     0.035 H 
ENDBRANCH   1  11
BRANCH   2  15
ATOM     15  C8  <0> d          -0.028   5.620   0.032  0.00  0.00    -0.034 C 
ATOM     16  H4  <0> d          -0.045   5.989  -0.994  0.00  0.00     0.035 H 
ATOM     17  H5  <0> d          -0.921   5.963   0.555  0.00  0.00     0.035 H 
ATOM     18  H6  <0> d           0.859   5.999   0.539  0.00  0.00     0.035 H 
ENDBRANCH   2  15
TORSDOF 2
