REMARK  4 active torsions:
REMARK  status: ('A' for Active; 'I' for Inactive)
REMARK    1  A    between atoms: C1_1  and  O1_2 
REMARK    2  A    between atoms: O1_2  and  C2_3 
REMARK       I    between atoms: C2_3  and  N1_5 
REMARK    3  A    between atoms: N1_5  and  C3_6 
REMARK    4  A    between atoms: C4_7  and  N4_11 
ROOT
ATOM      1  C2  <0> d           0.600  -0.602  -1.046  0.00  0.00     0.366 C 
ATOM      2  O2  <0> d           1.092   0.072  -1.929  0.00  0.00    -0.238 OA
ATOM      3  N1  <0> d           0.653  -1.946  -1.115  0.00  0.00    -0.282 N 
ATOM      4  H4  <0> d           0.260  -2.484  -0.409  0.00  0.00     0.173 HD
ENDROOT
BRANCH   3   5
ATOM      5  C3  <0> d           1.273  -2.565  -2.200  0.00  0.00     0.209 A 
ATOM      6  N3  <0> d           1.834  -1.957  -3.207  0.00  0.00    -0.083 NA
ATOM      7  O3  <0> d           2.343  -2.946  -4.084  0.00  0.00    -0.103 OA
ATOM      8  N2  <0> d           2.035  -4.212  -3.528  0.00  0.00    -0.083 NA
ATOM      9  C4  <0> d           1.398  -4.012  -2.407  0.00  0.00     0.199 A 
BRANCH   9  10
ATOM     10  N4  <0> d           0.920  -5.001  -1.554  0.00  0.00    -0.379 N 
ATOM     11  H5  <0> d           0.456  -4.755  -0.739  0.00  0.00     0.158 HD
ATOM     12  H6  <0> d           1.050  -5.936  -1.775  0.00  0.00     0.158 HD
ENDBRANCH   9  10
ENDBRANCH   3   5
BRANCH   1  13
ATOM     13  O1  <0> d           0.002  -0.004   0.002  0.00  0.00    -0.309 OA
BRANCH  13  14
ATOM     14  C1  <0> d          -0.017   1.425   0.010  0.00  0.00     0.015 C 
ATOM     15  H1  <0> d           1.005   1.802   0.002  0.00  0.00     0.067 H 
ATOM     16  H2  <0> d          -0.544   1.786  -0.873  0.00  0.00     0.067 H 
ATOM     17  H3  <0> d          -0.527   1.776   0.907  0.00  0.00     0.067 H 
ENDBRANCH  13  14
ENDBRANCH   1  13
TORSDOF 4
