REMARK  1 active torsions:
REMARK  status: ('A' for Active; 'I' for Inactive)
REMARK    1  A    between atoms: C1_1  and  C2_2 
ROOT
ATOM      1  C2  <0> d          -0.065   3.835   0.022  0.00  0.00     0.014 A 
ATOM      2  C3  <0> d           1.117   3.183   0.008  0.00  0.00    -0.061 A 
ATOM      3  C4  <0> d           1.152   1.779   0.001  0.00  0.00    -0.077 A 
ATOM      4  C5  <0> d          -0.013   1.076   0.008  0.00  0.00    -0.038 A 
ATOM      5  C6  <0> d          -1.238   1.771   0.018  0.00  0.00     0.133 A 
ATOM      6  N1  <0> d          -1.240   3.142   0.029  0.00  0.00    -0.310 N 
ATOM      7  C7  <0> d          -2.549   3.540   0.043  0.00  0.00     0.004 A 
ATOM      8  C8  <0> d          -3.307   2.421   0.045  0.00  0.00     0.020 A 
ATOM      9  N2  <0> d          -2.498   1.359   0.033  0.00  0.00    -0.241 NA
ATOM     10  H4  <0> d           2.040   3.744   0.002  0.00  0.00     0.086 H 
ATOM     11  H5  <0> d           2.099   1.260  -0.011  0.00  0.00     0.083 H 
ATOM     12  H6  <0> d           0.002  -0.004   0.002  0.00  0.00     0.089 H 
ATOM     13  H7  <0> d          -2.910   4.558   0.051  0.00  0.00     0.114 H 
ATOM     14  H8  <0> d          -4.386   2.391   0.055  0.00  0.00     0.117 H 
ENDROOT
BRANCH   1  15
ATOM     15  C1  <0> d          -0.086   5.342   0.030  0.00  0.00    -0.037 C 
ATOM     16  H1  <0> d          -0.100   5.710  -0.996  0.00  0.00     0.035 H 
ATOM     17  H2  <0> d          -0.976   5.690   0.553  0.00  0.00     0.035 H 
ATOM     18  H3  <0> d           0.803   5.715   0.537  0.00  0.00     0.035 H 
ENDBRANCH   1  15
TORSDOF 1
