REMARK  1 active torsions:
REMARK  status: ('A' for Active; 'I' for Inactive)
REMARK    1  A    between atoms: C4_4  and  C7_7 
ROOT
ATOM      1  C1  <0> d          -1.220   1.750   0.017  0.00  0.00    -0.083 A 
ATOM      2  C2  <0> d          -0.013   1.076   0.008  0.00  0.00    -0.082 A 
ATOM      3  C3  <0> d           1.174   1.781   0.000  0.00  0.00    -0.072 A 
ATOM      4  C4  <0> d           1.153   3.174   0.008  0.00  0.00    -0.025 A 
ATOM      5  C5  <0> d          -0.066   3.848   0.023  0.00  0.00    -0.072 A 
ATOM      6  C6  <0> d          -1.246   3.133   0.031  0.00  0.00    -0.082 A 
ATOM      7  H1  <0> d          -2.147   1.194   0.018  0.00  0.00     0.083 H 
ATOM      8  H2  <0> d           0.002  -0.004   0.002  0.00  0.00     0.083 H 
ATOM      9  H3  <0> d           2.116   1.254  -0.012  0.00  0.00     0.084 H 
ATOM     10  H4  <0> d          -0.087   4.928   0.030  0.00  0.00     0.084 H 
ATOM     11  H5  <0> d          -2.192   3.654   0.043  0.00  0.00     0.083 H 
ENDROOT
BRANCH   4  12
ATOM     12  C7  <0> d           2.426   3.938  -0.001  0.00  0.00    -0.008 A 
ATOM     13  C11 <0> d           3.650   3.273  -0.010  0.00  0.00     0.012 A 
ATOM     14  N1  <0> d           4.780   3.949  -0.023  0.00  0.00    -0.272 NA
ATOM     15  H9  <0> d           3.673   2.193  -0.012  0.00  0.00     0.116 H 
ATOM     16  C10 <0> d           4.803   5.268  -0.016  0.00  0.00     0.002 A 
ATOM     17  C9  <0> d           3.629   6.001  -0.001  0.00  0.00    -0.065 A 
ATOM     18  H8  <0> d           5.751   5.784  -0.022  0.00  0.00     0.114 H 
ATOM     19  C8  <0> d           2.416   5.335   0.007  0.00  0.00    -0.070 A 
ATOM     20  H7  <0> d           3.660   7.080   0.005  0.00  0.00     0.085 H 
ATOM     21  H6  <0> d           1.484   5.882   0.019  0.00  0.00     0.085 H 
ENDBRANCH   4  12
TORSDOF 1
