REMARK  2 active torsions:
REMARK  status: ('A' for Active; 'I' for Inactive)
REMARK    1  A    between atoms: C4_6  and  C5_8 
REMARK    2  A    between atoms: C5_8  and  O3_9 
ROOT
ATOM      1  C1  <0> d           2.259   0.731   0.421  0.00  0.00    -0.030 C 
ATOM      2  C2  <0> d           1.430  -0.505  -0.001  0.00  0.00     0.018 C 
ATOM      3  C3  <0> d           0.002  -0.004   0.002  0.00  0.00     0.259 C 
ATOM      4  O1  <0> d          -0.979  -0.710  -0.001  0.00  0.00    -0.265 OA
ATOM      5  O2  <0> d          -0.016   1.334   0.009  0.00  0.00    -0.314 OA
ATOM      6  C4  <0> d           1.328   1.889  -0.001  0.00  0.00     0.068 C 
ATOM      7  H1  <0> d           1.585   2.235  -1.002  0.00  0.00     0.087 H 
ATOM      8  H2  <0> d           2.429   0.738   1.498  0.00  0.00     0.037 H 
ATOM      9  H3  <0> d           3.204   0.771  -0.122  0.00  0.00     0.037 H 
ATOM     10  H4  <0> d           1.554  -1.312   0.721  0.00  0.00     0.048 H 
ATOM     11  H5  <0> d           1.716  -0.838  -0.999  0.00  0.00     0.048 H 
ENDROOT
BRANCH   6  12
ATOM     12  C5  <0> d           1.431   3.042   1.000  0.00  0.00     0.041 C 
ATOM     13  H6  <0> d           1.094   2.704   1.980  0.00  0.00     0.077 H 
ATOM     14  H7  <0> d           2.467   3.373   1.067  0.00  0.00     0.077 H 
BRANCH  12  15
ATOM     15  O3  <0> d           0.611   4.127   0.563  0.00  0.00    -0.398 OA
ATOM     16  H8  <0> d           0.628   4.895   1.151  0.00  0.00     0.209 HD
ENDBRANCH  12  15
ENDBRANCH   6  12
TORSDOF 2
