REMARK  2 active torsions:
REMARK  status: ('A' for Active; 'I' for Inactive)
REMARK    1  A    between atoms: C1_1  and  C2_2 
REMARK    2  A    between atoms: C7_7  and  N1_8 
ROOT
ATOM      1  C2  <0> d           1.157   3.436   0.009  0.00  0.00    -0.033 A 
ATOM      2  C3  <0> d           1.173   2.054   0.002  0.00  0.00    -0.035 A 
ATOM      3  C4  <0> d          -0.016   1.347   0.009  0.00  0.00     0.155 A 
ATOM      4  C5  <0> d          -1.227   2.023   0.019  0.00  0.00     0.157 A 
ATOM      5  C6  <0> d          -1.247   3.406   0.031  0.00  0.00    -0.017 A 
ATOM      6  C7  <0> d          -0.053   4.116   0.024  0.00  0.00     0.034 A 
ATOM      7  F1  <0> d          -2.387   1.331   0.021  0.00  0.00    -0.203 F 
ATOM      8  F2  <0> d           0.002  -0.004   0.002  0.00  0.00    -0.203 F 
ATOM      9  H4  <0> d           2.115   1.526  -0.009  0.00  0.00     0.089 H 
ATOM     10  H5  <0> d          -2.190   3.933   0.043  0.00  0.00     0.091 H 
ENDROOT
BRANCH   1  11
ATOM     11  C1  <0> d           2.453   4.205   0.001  0.00  0.00    -0.049 C 
ATOM     12  H1  <0> d           2.756   4.395  -1.028  0.00  0.00     0.033 H 
ATOM     13  H2  <0> d           2.316   5.153   0.521  0.00  0.00     0.033 H 
ATOM     14  H3  <0> d           3.224   3.622   0.505  0.00  0.00     0.033 H 
ENDBRANCH   1  11
BRANCH   6  15
ATOM     15  N1  <0> d          -0.071   5.514   0.031  0.00  0.00    -0.399 N 
ATOM     16  H6  <0> d           0.763   6.009   0.026  0.00  0.00     0.156 HD
ATOM     17  H7  <0> d          -0.917   5.988   0.042  0.00  0.00     0.156 HD
ENDBRANCH   6  15
TORSDOF 2
