REMARK  4 active torsions:
REMARK  status: ('A' for Active; 'I' for Inactive)
REMARK    1  A    between atoms: C1_1  and  C2_2 
REMARK    2  A    between atoms: C2_2  and  C4_4 
REMARK    3  A    between atoms: C4_4  and  C8_10 
REMARK    4  A    between atoms: C6_6  and  C7_8 
ROOT
ATOM      1  C4  <0> d          -1.139   1.788   0.878  0.00  0.00    -0.007 A 
ATOM      2  C5  <0> d          -0.039   1.161   0.018  0.00  0.00    -0.040 A 
ATOM      3  C6  <0> d          -1.276   1.770  -0.647  0.00  0.00     0.042 A 
ATOM      4  H1  <0> d          -1.149   2.715  -1.175  0.00  0.00     0.058 H 
ATOM      5  H7  <0> d           0.046   0.075   0.023  0.00  0.00     0.035 H 
ATOM      6  H8  <0> d           0.901   1.706  -0.073  0.00  0.00     0.035 H 
ENDROOT
BRANCH   1   7
ATOM      7  C2  <0> d          -2.021   0.855   1.667  0.00  0.00    -0.084 C 
ATOM      8  C3  <0> d          -1.756  -0.427   1.699  0.00  0.00    -0.119 C 
ATOM      9  H5  <0> d          -0.850  -0.803   1.246  0.00  0.00     0.067 H 
ATOM     10  H6  <0> d          -2.442  -1.109   2.179  0.00  0.00     0.067 H 
BRANCH   7  11
ATOM     11  C1  <0> d          -3.208   1.398   2.419  0.00  0.00    -0.054 C 
ATOM     12  H2  <0> d          -4.085   1.386   1.772  0.00  0.00     0.033 H 
ATOM     13  H3  <0> d          -3.397   0.780   3.297  0.00  0.00     0.033 H 
ATOM     14  H4  <0> d          -3.003   2.421   2.733  0.00  0.00     0.033 H 
ENDBRANCH   7  11
ENDBRANCH   1   7
BRANCH   1  15
ATOM     15  C8  <0> d          -0.835   3.131   1.544  0.00  0.00    -0.064 C 
ATOM     16  H9  <0> d           0.111   3.519   1.165  0.00  0.00     0.028 H 
ATOM     17  H10 <0> d          -1.634   3.837   1.318  0.00  0.00     0.028 H 
ATOM     18  H11 <0> d          -0.765   2.994   2.623  0.00  0.00     0.028 H 
ENDBRANCH   1  15
BRANCH   3  19
ATOM     19  C7  <0> d          -2.283   0.821  -1.244  0.00  0.00     0.178 C 
ATOM     20  O1  <0> d          -2.912   0.079  -0.528  0.00  0.00    -0.648 OA
ATOM     21  O2  <0> d          -2.480   0.801  -2.572  0.00  0.00    -0.648 OA
ENDBRANCH   3  19
TORSDOF 4
