REMARK  1 active torsions:
REMARK  status: ('A' for Active; 'I' for Inactive)
REMARK    1  A    between atoms: C3_3  and  C5_6 
ROOT
ATOM      1  C1  <0> d           1.333  -0.270  -0.012  0.00  0.00    -0.075 A 
ATOM      2  C2  <0> d           2.227   0.778  -0.015  0.00  0.00    -0.062 A 
ATOM      3  C3  <0> d           1.742   2.058  -0.004  0.00  0.00     0.056 A 
ATOM      4  S1  <0> d          -0.022   1.781   0.012  0.00  0.00    -0.098 SA
ATOM      5  C4  <0> d           0.002  -0.004   0.002  0.00  0.00    -0.044 A 
ATOM      6  H1  <0> d           1.687  -1.291  -0.021  0.00  0.00     0.084 H 
ATOM      7  H2  <0> d           3.292   0.594  -0.026  0.00  0.00     0.085 H 
ATOM      8  H3  <0> d          -0.829  -0.694   0.006  0.00  0.00     0.095 H 
ENDROOT
BRANCH   3   9
ATOM      9  C5  <0> d           2.485   3.337  -0.005  0.00  0.00     0.213 A 
ATOM     10  N3  <0> d           3.818   3.490  -0.017  0.00  0.00    -0.105 NA
ATOM     11  N2  <0> d           4.057   4.757  -0.014  0.00  0.00    -0.021 NA
ATOM     12  N4  <0> d           2.939   5.394  -0.000  0.00  0.00    -0.021 NA
ATOM     13  N1  <0> d           1.966   4.550   0.001  0.00  0.00    -0.105 NA
ENDBRANCH   3   9
TORSDOF 1
