REMARK  6 active torsions:
REMARK  status: ('A' for Active; 'I' for Inactive)
REMARK    1  A    between atoms: C1_1  and  C2_2 
REMARK    2  A    between atoms: C2_2  and  C3_3 
REMARK    3  A    between atoms: C2_2  and  C4_4 
REMARK    4  A    between atoms: C2_2  and  O2_7 
REMARK    5  A    between atoms: C4_4  and  C5_5 
REMARK    6  A    between atoms: C5_5  and  O1_6 
ROOT
ATOM      1  C2  <0> d           2.534   3.726  -0.002  0.00  0.00     0.052 C 
ENDROOT
BRANCH   1   2
ATOM      2  C1  <0> d           3.287   3.292  -1.261  0.00  0.00    -0.048 C 
ATOM      3  H1  <0> d           2.734   3.611  -2.144  0.00  0.00     0.031 H 
ATOM      4  H2  <0> d           4.277   3.749  -1.268  0.00  0.00     0.031 H 
ATOM      5  H3  <0> d           3.388   2.207  -1.268  0.00  0.00     0.031 H 
ENDBRANCH   1   2
BRANCH   1   6
ATOM      6  C3  <0> d           2.393   5.250   0.007  0.00  0.00    -0.048 C 
ATOM      7  H4  <0> d           1.856   5.559   0.904  0.00  0.00     0.031 H 
ATOM      8  H5  <0> d           3.382   5.707   0.000  0.00  0.00     0.031 H 
ATOM      9  H6  <0> d           1.839   5.569  -0.876  0.00  0.00     0.031 H 
ENDBRANCH   1   6
BRANCH   1  10
ATOM     10  C4  <0> d           1.145   3.085   0.008  0.00  0.00    -0.018 C 
ATOM     11  H7  <0> d           0.591   3.404  -0.875  0.00  0.00     0.040 H 
ATOM     12  H8  <0> d           0.608   3.395   0.904  0.00  0.00     0.040 H 
BRANCH  10  13
ATOM     13  C5  <0> d           1.286   1.562  -0.002  0.00  0.00     0.019 C 
ATOM     14  H9  <0> d           1.840   1.243   0.881  0.00  0.00     0.074 H 
ATOM     15  H10 <0> d           1.823   1.252  -0.899  0.00  0.00     0.074 H 
BRANCH  13  16
ATOM     16  O1  <0> d          -0.011   0.963   0.007  0.00  0.00    -0.401 OA
ATOM     17  H11 <0> d           0.002  -0.004   0.002  0.00  0.00     0.209 HD
ENDBRANCH  13  16
ENDBRANCH  10  13
ENDBRANCH   1  10
BRANCH   1  18
ATOM     18  O2  <0> d           3.260   3.308   1.155  0.00  0.00    -0.391 OA
ATOM     19  H12 <0> d           2.840   3.550   1.992  0.00  0.00     0.210 HD
ENDBRANCH   1  18
TORSDOF 6
