REMARK  2 active torsions:
REMARK  status: ('A' for Active; 'I' for Inactive)
REMARK    1  A    between atoms: C8_10  and  O1_11 
REMARK    2  A    between atoms: C8_10  and  O2_12 
ROOT
ATOM      1  C1  <0> d          -1.066   3.096  -1.008  0.00  0.00    -0.061 C 
ATOM      2  C2  <0> d          -2.425   3.128  -0.245  0.00  0.00    -0.057 C 
ATOM      3  C3  <0> d          -2.855   1.655  -0.057  0.00  0.00     0.000 C 
ATOM      4  H1  <0> d          -3.938   1.529  -0.068  0.00  0.00     0.048 H 
ATOM      5  C4  <0> d          -2.155   0.916  -1.228  0.00  0.00    -0.053 C 
ATOM      6  C5  <0> d          -0.761   1.597  -1.236  0.00  0.00    -0.053 C 
ATOM      7  H2  <0> d          -0.209   1.417  -2.158  0.00  0.00     0.040 H 
ATOM      8  C6  <0> d          -0.013   1.086   0.008  0.00  0.00    -0.057 C 
ATOM      9  C7  <0> d          -0.733   1.581   1.264  0.00  0.00    -0.012 C 
ATOM     10  C8  <0> d          -2.201   1.146   1.240  0.00  0.00     0.162 C 
ATOM     11  H3  <0> d          -0.277   3.553  -0.412  0.00  0.00     0.033 H 
ATOM     12  H4  <0> d          -1.158   3.609  -1.966  0.00  0.00     0.033 H 
ATOM     13  H5  <0> d          -3.170   3.664  -0.832  0.00  0.00     0.033 H 
ATOM     14  H6  <0> d          -2.295   3.607   0.725  0.00  0.00     0.033 H 
ATOM     15  H7  <0> d          -2.679   1.089  -2.168  0.00  0.00     0.034 H 
ATOM     16  H8  <0> d          -2.068  -0.150  -1.022  0.00  0.00     0.034 H 
ATOM     17  H9  <0> d           0.002  -0.004   0.002  0.00  0.00     0.033 H 
ATOM     18  H10 <0> d           1.009   1.464   0.000  0.00  0.00     0.033 H 
ATOM     19  H11 <0> d          -0.245   1.166   2.146  0.00  0.00     0.041 H 
ATOM     20  H12 <0> d          -0.680   2.669   1.304  0.00  0.00     0.041 H 
ENDROOT
BRANCH  10  21
ATOM     21  O1  <0> d          -2.882   1.699   2.367  0.00  0.00    -0.365 OA
ATOM     22  H13 <0> d          -2.522   1.420   3.220  0.00  0.00     0.213 HD
ENDBRANCH  10  21
BRANCH  10  23
ATOM     23  O2  <0> d          -2.279  -0.280   1.286  0.00  0.00    -0.365 OA
ATOM     24  H14 <0> d          -1.885  -0.670   2.079  0.00  0.00     0.213 HD
ENDBRANCH  10  23
TORSDOF 2
