REMARK  0 active torsions:
REMARK  status: ('A' for Active; 'I' for Inactive)
ROOT
ATOM      1  C1  <0> d           1.189   2.062   0.002  0.00  0.00    -0.043 A 
ATOM      2  C2  <0> d          -0.017   1.388   0.010  0.00  0.00    -0.052 A 
ATOM      3  C3  <0> d           0.002  -0.004   0.002  0.00  0.00     0.061 A 
ATOM      4  C4  <0> d           1.244  -0.674  -0.013  0.00  0.00     0.086 A 
ATOM      5  C5  <0> d           0.925  -2.104  -0.018  0.00  0.00    -0.038 A 
ATOM      6  C6  <0> d          -0.414  -2.209  -0.005  0.00  0.00    -0.020 A 
ATOM      7  N1  <0> d          -0.980  -0.965   0.007  0.00  0.00    -0.364 N 
ATOM      8  H1  <0> d          -1.934  -0.787   0.017  0.00  0.00     0.165 HD
ATOM      9  N2  <0> d           2.379   0.011  -0.021  0.00  0.00    -0.236 NA
ATOM     10  C7  <0> d           2.385   1.336  -0.014  0.00  0.00     0.137 A 
ATOM     11  C8  <0> d           3.634   2.037  -0.023  0.00  0.00     0.119 C 
ATOM     12  N3  <0> d           4.625   2.592  -0.030  0.00  0.00    -0.190 NA
ATOM     13  H2  <0> d           1.208   3.142   0.008  0.00  0.00     0.088 H 
ATOM     14  H3  <0> d          -0.952   1.929   0.017  0.00  0.00     0.087 H 
ATOM     15  H4  <0> d           1.633  -2.920  -0.029  0.00  0.00     0.089 H 
ATOM     16  H5  <0> d          -0.962  -3.139  -0.005  0.00  0.00     0.111 H 
ENDROOT
TORSDOF 0
