REMARK  0 active torsions:
REMARK  status: ('A' for Active; 'I' for Inactive)
ROOT
ATOM      1  C1  <0> d           2.381   1.431  -0.013  0.00  0.00    -0.022 A 
ATOM      2  C2  <0> d           1.170   2.095   0.002  0.00  0.00     0.120 A 
ATOM      3  C3  <0> d          -0.017   1.380   0.010  0.00  0.00    -0.005 A 
ATOM      4  C4  <0> d           0.002  -0.004   0.002  0.00  0.00     0.159 A 
ATOM      5  C5  <0> d           1.209  -0.682  -0.014  0.00  0.00     0.175 A 
ATOM      6  C6  <0> d           2.409   0.035  -0.021  0.00  0.00     0.089 A 
ATOM      7  C7  <0> d           3.662  -0.659  -0.038  0.00  0.00     0.102 C 
ATOM      8  N1  <0> d           4.655  -1.209  -0.051  0.00  0.00    -0.191 NA
ATOM      9  F1  <0> d           1.227  -2.033  -0.021  0.00  0.00    -0.201 F 
ATOM     10  F2  <0> d          -1.159  -0.694   0.009  0.00  0.00    -0.203 F 
ATOM     11  F3  <0> d           1.143   3.446   0.009  0.00  0.00    -0.206 F 
ATOM     12  H1  <0> d           3.305   1.991  -0.019  0.00  0.00     0.090 H 
ATOM     13  H2  <0> d          -0.961   1.905   0.017  0.00  0.00     0.093 H 
ENDROOT
TORSDOF 0
