REMARK  3 active torsions:
REMARK  status: ('A' for Active; 'I' for Inactive)
REMARK    1  A    between atoms: C1_1  and  C2_2 
REMARK    2  A    between atoms: C5_5  and  C7_8 
REMARK    3  A    between atoms: N1_6  and  C6_7 
REMARK       I    between atoms: C7_8  and  N2_10 
ROOT
ATOM      1  C2  <0> d           0.010   0.014  -0.005  0.00  0.00     0.008 A 
ATOM      2  C3  <0> d           0.012  -0.768  -1.111  0.00  0.00    -0.059 A 
ATOM      3  C4  <0> d           0.020  -2.103  -0.692  0.00  0.00    -0.050 A 
ATOM      4  C5  <0> d           0.023  -2.094   0.687  0.00  0.00     0.102 A 
ATOM      5  N1  <0> d           0.021  -0.779   1.094  0.00  0.00    -0.351 N 
ATOM      6  H4  <0> d           0.008  -0.423  -2.134  0.00  0.00     0.086 H 
ATOM      7  H5  <0> d           0.023  -2.975  -1.328  0.00  0.00     0.087 H 
ENDROOT
BRANCH   4   8
ATOM      8  C7  <0> d           0.030  -3.272   1.561  0.00  0.00     0.266 C 
ATOM      9  O1  <0> d           0.123  -3.135   2.767  0.00  0.00    -0.266 OA
ATOM     10  N2  <0> d          -0.066  -4.507   1.029  0.00  0.00    -0.365 N 
ATOM     11  H9  <0> d          -0.067  -4.621   0.066  0.00  0.00     0.159 HD
ATOM     12  H10 <0> d          -0.135  -5.281   1.610  0.00  0.00     0.159 HD
ENDBRANCH   4   8
BRANCH   5  13
ATOM     13  C6  <0> d           0.028  -0.315   2.483  0.00  0.00    -0.014 C 
ATOM     14  H6  <0> d          -0.992  -0.299   2.866  0.00  0.00     0.057 H 
ATOM     15  H7  <0> d           0.633  -0.989   3.089  0.00  0.00     0.057 H 
ATOM     16  H8  <0> d           0.449   0.690   2.528  0.00  0.00     0.057 H 
ENDBRANCH   5  13
BRANCH   1  17
ATOM     17  C1  <0> d           0.002   1.521   0.002  0.00  0.00    -0.037 C 
ATOM     18  H1  <0> d           1.028   1.890  -0.003  0.00  0.00     0.035 H 
ATOM     19  H2  <0> d          -0.520   1.886  -0.883  0.00  0.00     0.035 H 
ATOM     20  H3  <0> d          -0.507   1.878   0.897  0.00  0.00     0.035 H 
ENDBRANCH   1  17
TORSDOF 3
