REMARK  4 active torsions:
REMARK  status: ('A' for Active; 'I' for Inactive)
REMARK    1  A    between atoms: C1_1  and  C2_2 
REMARK    2  A    between atoms: C3_3  and  C5_8 
REMARK    3  A    between atoms: N3_6  and  C4_7 
REMARK    4  A    between atoms: C5_8  and  C6_10 
ROOT
ATOM      1  C2  <0> d           0.002  -0.004   0.002  0.00  0.00     0.062 A 
ATOM      2  C3  <0> d          -0.017   1.376   0.010  0.00  0.00     0.149 A 
ATOM      3  N1  <0> d           1.256   1.813  -0.000  0.00  0.00    -0.126 NA
ATOM      4  N2  <0> d           2.058   0.805  -0.013  0.00  0.00    -0.066 NA
ATOM      5  N3  <0> d           1.298  -0.372  -0.012  0.00  0.00    -0.258 N 
ENDROOT
BRANCH   2   6
ATOM      6  C5  <0> d          -1.217   2.220   0.020  0.00  0.00     0.177 C 
ATOM      7  O1  <0> d          -2.317   1.710   0.023  0.00  0.00    -0.291 OA
BRANCH   6   8
ATOM      8  C6  <0> d          -1.082   3.721   0.028  0.00  0.00    -0.015 C 
ATOM      9  H7  <0> d          -0.587   4.016  -0.790  0.00  0.00     0.038 H 
ATOM     10  H8  <0> d          -2.073   4.175   0.035  0.00  0.00     0.038 H 
ATOM     11  H9  <0> d          -0.533   4.032   0.917  0.00  0.00     0.038 H 
ENDBRANCH   6   8
ENDBRANCH   2   6
BRANCH   1  12
ATOM     12  C1  <0> d          -1.194  -0.920   0.009  0.00  0.00    -0.033 C 
ATOM     13  H1  <0> d          -1.493  -1.136  -1.017  0.00  0.00     0.035 H 
ATOM     14  H2  <0> d          -0.936  -1.851   0.515  0.00  0.00     0.035 H 
ATOM     15  H3  <0> d          -2.019  -0.438   0.534  0.00  0.00     0.035 H 
ENDBRANCH   1  12
BRANCH   5  16
ATOM     16  C4  <0> d           1.814  -1.743  -0.025  0.00  0.00     0.004 C 
ATOM     17  H4  <0> d           1.933  -2.078  -1.055  0.00  0.00     0.059 H 
ATOM     18  H5  <0> d           2.780  -1.772   0.480  0.00  0.00     0.059 H 
ATOM     19  H6  <0> d           1.115  -2.400   0.492  0.00  0.00     0.059 H 
ENDBRANCH   5  16
TORSDOF 4
