REMARK  1 active torsions:
REMARK  status: ('A' for Active; 'I' for Inactive)
REMARK    1  A    between atoms: C3_3  and  N2_10 
ROOT
ATOM      1  C1  <0> d           1.229  -2.065  -0.021  0.00  0.00    -0.043 A 
ATOM      2  C2  <0> d           1.212  -0.685  -0.013  0.00  0.00    -0.053 A 
ATOM      3  C3  <0> d           0.002  -0.004   0.002  0.00  0.00     0.046 A 
ATOM      4  C4  <0> d          -1.202  -0.726   0.015  0.00  0.00     0.073 A 
ATOM      5  C5  <0> d          -1.170  -2.122   0.002  0.00  0.00    -0.023 A 
ATOM      6  C6  <0> d           0.042  -2.782  -0.013  0.00  0.00     0.117 A 
ATOM      7  F1  <0> d           0.072  -4.133  -0.021  0.00  0.00    -0.206 F 
ATOM      8  C7  <0> d          -2.456  -0.034   0.038  0.00  0.00     0.102 C 
ATOM      9  N1  <0> d          -3.450   0.515   0.055  0.00  0.00    -0.191 NA
ATOM     10  H1  <0> d           2.173  -2.590  -0.032  0.00  0.00     0.088 H 
ATOM     11  H2  <0> d           2.140  -0.134  -0.019  0.00  0.00     0.087 H 
ATOM     12  H3  <0> d          -2.092  -2.684   0.007  0.00  0.00     0.090 H 
ENDROOT
BRANCH   3  13
ATOM     13  N2  <0> d          -0.017   1.387   0.010  0.00  0.00    -0.398 N 
ATOM     14  H4  <0> d           0.817   1.884   0.004  0.00  0.00     0.156 HD
ATOM     15  H5  <0> d          -0.863   1.861   0.016  0.00  0.00     0.156 HD
ENDBRANCH   3  13
TORSDOF 1
