REMARK  0 active torsions:
REMARK  status: ('A' for Active; 'I' for Inactive)
ROOT
ATOM      1  C1  <0> d          -0.019   1.541   0.011  0.00  0.00    -0.028 C 
ATOM      2  C2  <0> d           1.474   1.937  -0.002  0.00  0.00     0.021 C 
ATOM      3  O1  <0> d           2.163   0.795   0.553  0.00  0.00    -0.390 OA
ATOM      4  C3  <0> d           1.506  -0.359  -0.014  0.00  0.00     0.035 C 
ATOM      5  C4  <0> d           0.002  -0.004   0.002  0.00  0.00     0.052 C 
ATOM      6  H1  <0> d          -0.571  -0.455  -0.822  0.00  0.00     0.066 H 
ATOM      7  C5  <0> d          -0.643  -0.535   1.214  0.00  0.00     0.066 C 
ATOM      8  N1  <0> d          -1.141  -0.945   2.149  0.00  0.00    -0.197 NA
ATOM      9  H2  <0> d          -0.551   1.905  -0.881  0.00  0.00     0.038 H 
ATOM     10  H3  <0> d          -0.534   1.896   0.915  0.00  0.00     0.038 H 
ATOM     11  H4  <0> d           1.791   2.141  -1.035  0.00  0.00     0.074 H 
ATOM     12  H5  <0> d           1.620   2.838   0.612  0.00  0.00     0.074 H 
ATOM     13  H6  <0> d           1.874  -0.525  -1.037  0.00  0.00     0.076 H 
ATOM     14  H7  <0> d           1.722  -1.244   0.602  0.00  0.00     0.076 H 
ENDROOT
TORSDOF 0
