REMARK  4 active torsions:
REMARK  status: ('A' for Active; 'I' for Inactive)
REMARK    1  A    between atoms: C1_1  and  C2_2 
REMARK    2  A    between atoms: C2_2  and  C3_3 
REMARK    3  A    between atoms: C6_7  and  C7_10 
REMARK    4  A    between atoms: C7_10  and  C8_11 
ROOT
ATOM      1  C3  <0> d           1.485   1.897  -0.002  0.00  0.00     0.038 C 
ATOM      2  H1  <0> d           1.803   2.127  -1.019  0.00  0.00     0.083 H 
ATOM      3  C4  <0> d          -0.019   1.549   0.011  0.00  0.00    -0.039 C 
ATOM      4  C5  <0> d           0.002  -0.004   0.002  0.00  0.00    -0.039 C 
ATOM      5  C6  <0> d           1.273  -0.286   0.842  0.00  0.00     0.038 C 
ATOM      6  H2  <0> d           1.042  -0.235   1.906  0.00  0.00     0.083 H 
ATOM      7  O1  <0> d           2.198   0.753   0.482  0.00  0.00    -0.381 OA
ATOM      8  H8  <0> d          -0.514   1.935  -0.880  0.00  0.00     0.036 H 
ATOM      9  H9  <0> d          -0.497   1.925   0.915  0.00  0.00     0.036 H 
ATOM     10  H10 <0> d          -0.886  -0.412   0.485  0.00  0.00     0.036 H 
ATOM     11  H11 <0> d           0.107  -0.390  -1.012  0.00  0.00     0.036 H 
ENDROOT
BRANCH   1  12
ATOM     12  C2  <0> d           1.748   3.097   0.910  0.00  0.00    -0.044 C 
ATOM     13  H6  <0> d           1.110   3.928   0.610  0.00  0.00     0.036 H 
ATOM     14  H7  <0> d           1.526   2.824   1.942  0.00  0.00     0.036 H 
BRANCH  12  15
ATOM     15  C1  <0> d           3.216   3.513   0.796  0.00  0.00    -0.074 C 
ATOM     16  H3  <0> d           3.853   2.681   1.097  0.00  0.00     0.027 H 
ATOM     17  H4  <0> d           3.437   3.785  -0.236  0.00  0.00     0.027 H 
ATOM     18  H5  <0> d           3.403   4.367   1.446  0.00  0.00     0.027 H 
ENDBRANCH  12  15
ENDBRANCH   1  12
BRANCH   5  19
ATOM     19  C7  <0> d           1.851  -1.657   0.488  0.00  0.00    -0.044 C 
ATOM     20  H12 <0> d           1.081  -2.419   0.611  0.00  0.00     0.036 H 
ATOM     21  H13 <0> d           2.193  -1.651  -0.547  0.00  0.00     0.036 H 
BRANCH  19  22
ATOM     22  C8  <0> d           3.029  -1.969   1.413  0.00  0.00    -0.074 C 
ATOM     23  H14 <0> d           3.799  -1.208   1.290  0.00  0.00     0.027 H 
ATOM     24  H15 <0> d           2.687  -1.975   2.448  0.00  0.00     0.027 H 
ATOM     25  H16 <0> d           3.441  -2.946   1.160  0.00  0.00     0.027 H 
ENDBRANCH  19  22
ENDBRANCH   5  19
TORSDOF 4
