REMARK  3 active torsions:
REMARK  status: ('A' for Active; 'I' for Inactive)
REMARK    1  A    between atoms: C1_1  and  C2_2 
REMARK    2  A    between atoms: C6_6  and  C8_9 
REMARK    3  A    between atoms: C7_7  and  N1_8 
ROOT
ATOM      1  C2  <0> d          -1.213   1.749   0.017  0.00  0.00    -0.034 A 
ATOM      2  C3  <0> d          -0.013   1.076   0.008  0.00  0.00    -0.055 A 
ATOM      3  C4  <0> d           1.188   1.792   0.000  0.00  0.00     0.045 A 
ATOM      4  C5  <0> d           1.165   3.190   0.008  0.00  0.00    -0.055 A 
ATOM      5  C6  <0> d          -0.040   3.856   0.023  0.00  0.00    -0.034 A 
ATOM      6  C7  <0> d          -1.233   3.140   0.030  0.00  0.00     0.037 A 
ATOM      7  C9  <0> d           2.439   1.095  -0.015  0.00  0.00     0.099 C 
ATOM      8  N2  <0> d           3.432   0.543  -0.027  0.00  0.00    -0.191 NA
ATOM      9  H4  <0> d           0.002  -0.004   0.002  0.00  0.00     0.086 H 
ATOM     10  H5  <0> d           2.090   3.746   0.002  0.00  0.00     0.086 H 
ENDROOT
BRANCH   1  11
ATOM     11  C1  <0> d          -2.508   0.977   0.019  0.00  0.00    -0.049 C 
ATOM     12  H1  <0> d          -2.816   0.786   1.047  0.00  0.00     0.033 H 
ATOM     13  H2  <0> d          -3.278   1.559  -0.488  0.00  0.00     0.033 H 
ATOM     14  H3  <0> d          -2.367   0.030  -0.500  0.00  0.00     0.033 H 
ENDBRANCH   1  11
BRANCH   5  15
ATOM     15  C8  <0> d          -0.066   5.363   0.032  0.00  0.00    -0.049 C 
ATOM     16  H8  <0> d          -0.082   5.732  -0.994  0.00  0.00     0.033 H 
ATOM     17  H9  <0> d          -0.957   5.708   0.556  0.00  0.00     0.033 H 
ATOM     18  H10 <0> d           0.822   5.739   0.539  0.00  0.00     0.033 H 
ENDBRANCH   5  15
BRANCH   6  19
ATOM     19  N1  <0> d          -2.449   3.817   0.046  0.00  0.00    -0.398 N 
ATOM     20  H6  <0> d          -2.464   4.787   0.051  0.00  0.00     0.156 HD
ATOM     21  H7  <0> d          -3.282   3.319   0.051  0.00  0.00     0.156 HD
ENDBRANCH   6  19
TORSDOF 3
