REMARK  7 active torsions:
REMARK  status: ('A' for Active; 'I' for Inactive)
REMARK    1  A    between atoms: C1_1  and  C2_2 
REMARK    2  A    between atoms: C2_2  and  C3_3 
REMARK    3  A    between atoms: C2_2  and  C4_4 
REMARK    4  A    between atoms: C4_4  and  C5_5 
REMARK    5  A    between atoms: C5_5  and  O1_6 
REMARK    6  A    between atoms: O1_6  and  C6_7 
REMARK    7  A    between atoms: C6_7  and  C7_8 
ROOT
ATOM      1  C4  <0> d          -0.729   1.579   1.267  0.00  0.00    -0.043 C 
ATOM      2  H8  <0> d          -0.666   2.666   1.318  0.00  0.00     0.036 H 
ATOM      3  H9  <0> d          -1.776   1.277   1.232  0.00  0.00     0.036 H 
ENDROOT
BRANCH   1   4
ATOM      4  C2  <0> d          -0.013   1.086   0.008  0.00  0.00    -0.059 C 
ATOM      5  H4  <0> d           0.002  -0.004   0.002  0.00  0.00     0.038 H 
BRANCH   4   6
ATOM      6  C1  <0> d           1.423   1.615  -0.003  0.00  0.00    -0.073 C 
ATOM      7  H1  <0> d           1.933   1.264  -0.900  0.00  0.00     0.028 H 
ATOM      8  H2  <0> d           1.408   2.705   0.003  0.00  0.00     0.028 H 
ATOM      9  H3  <0> d           1.950   1.254   0.880  0.00  0.00     0.028 H 
ENDBRANCH   4   6
BRANCH   4  10
ATOM     10  C3  <0> d          -0.753   1.593  -1.232  0.00  0.00    -0.073 C 
ATOM     11  H5  <0> d          -0.242   1.241  -2.128  0.00  0.00     0.028 H 
ATOM     12  H6  <0> d          -1.775   1.215  -1.224  0.00  0.00     0.028 H 
ATOM     13  H7  <0> d          -0.767   2.683  -1.226  0.00  0.00     0.028 H 
ENDBRANCH   4  10
ENDBRANCH   1   4
BRANCH   1  14
ATOM     14  C5  <0> d          -0.064   0.971   2.503  0.00  0.00     0.021 C 
ATOM     15  H10 <0> d          -0.126  -0.116   2.452  0.00  0.00     0.074 H 
ATOM     16  H11 <0> d           0.983   1.274   2.539  0.00  0.00     0.074 H 
BRANCH  14  17
ATOM     17  O1  <0> d          -0.733   1.432   3.679  0.00  0.00    -0.381 OA
BRANCH  17  18
ATOM     18  C6  <0> d          -0.187   0.921   4.897  0.00  0.00     0.099 C 
ATOM     19  H12 <0> d          -0.252  -0.167   4.895  0.00  0.00     0.091 H 
ATOM     20  H13 <0> d           0.857   1.222   4.981  0.00  0.00     0.091 H 
BRANCH  18  21
ATOM     21  C7  <0> d          -0.965   1.469   6.065  0.00  0.00     0.197 C 
ATOM     22  O2  <0> d          -1.891   2.220   5.875  0.00  0.00    -0.646 OA
ATOM     23  O3  <0> d          -0.628   1.122   7.317  0.00  0.00    -0.646 OA
ENDBRANCH  18  21
ENDBRANCH  17  18
ENDBRANCH  14  17
ENDBRANCH   1  14
TORSDOF 7
