REMARK  1 active torsions:
REMARK  status: ('A' for Active; 'I' for Inactive)
REMARK    1  A    between atoms: C4_5  and  C6_7 
ROOT
ATOM      1  C1  <0> d          -2.124  -3.091   0.006  0.00  0.00    -0.079 A 
ATOM      2  C2  <0> d          -3.379  -2.497   0.022  0.00  0.00    -0.066 A 
ATOM      3  C3  <0> d          -3.478  -1.119   0.030  0.00  0.00     0.003 A 
ATOM      4  N1  <0> d          -2.399  -0.362   0.024  0.00  0.00    -0.259 NA
ATOM      5  C4  <0> d          -1.180  -0.890   0.009  0.00  0.00     0.083 A 
ATOM      6  C5  <0> d          -1.008  -2.276  -0.006  0.00  0.00    -0.053 A 
ATOM      7  H2  <0> d          -2.022  -4.166  -0.000  0.00  0.00     0.083 H 
ATOM      8  H3  <0> d          -4.271  -3.107   0.028  0.00  0.00     0.085 H 
ATOM      9  H4  <0> d          -4.454  -0.655   0.043  0.00  0.00     0.114 H 
ATOM     10  H5  <0> d          -0.016  -2.704  -0.022  0.00  0.00     0.087 H 
ENDROOT
BRANCH   5  11
ATOM     11  C6  <0> d           0.002  -0.004   0.002  0.00  0.00     0.061 A 
ATOM     12  N2  <0> d           1.314  -0.407  -0.013  0.00  0.00    -0.364 N 
ATOM     13  C9  <0> d           2.108   0.699  -0.014  0.00  0.00    -0.022 A 
ATOM     14  H1  <0> d           1.560  -1.479  -0.021  0.00  0.00     0.165 HD
ATOM     15  C8  <0> d           1.317   1.795  -0.001  0.00  0.00    -0.066 A 
ATOM     16  H8  <0> d           3.188   0.700  -0.024  0.00  0.00     0.111 H 
ATOM     17  C7  <0> d          -0.016   1.359   0.009  0.00  0.00    -0.054 A 
ATOM     18  H7  <0> d           1.652   2.822   0.001  0.00  0.00     0.085 H 
ATOM     19  H6  <0> d          -0.895   1.987   0.017  0.00  0.00     0.087 H 
ENDBRANCH   5  11
TORSDOF 1
