REMARK  2 active torsions:
REMARK  status: ('A' for Active; 'I' for Inactive)
REMARK    1  A    between atoms: C1_1  and  C2_2 
REMARK    2  A    between atoms: C2_2  and  C6_8 
ROOT
ATOM      1  C2  <0> d           0.002  -0.004   0.002  0.00  0.00     0.026 C 
ATOM      2  C3  <0> d           0.776  -0.521  -1.231  0.00  0.00    -0.035 C 
ATOM      3  C4  <0> d           1.472  -1.779  -0.661  0.00  0.00     0.011 C 
ATOM      4  C5  <0> d           1.567  -1.510   0.825  0.00  0.00     0.218 C 
ATOM      5  O1  <0> d           2.287  -2.110   1.595  0.00  0.00    -0.274 OA
ATOM      6  N1  <0> d           0.739  -0.508   1.167  0.00  0.00    -0.353 N 
ATOM      7  H4  <0> d           0.093  -0.785  -2.038  0.00  0.00     0.037 H 
ATOM      8  H5  <0> d           1.510   0.212  -1.566  0.00  0.00     0.037 H 
ATOM      9  H6  <0> d           0.868  -2.667  -0.849  0.00  0.00     0.047 H 
ATOM     10  H7  <0> d           2.466  -1.894  -1.093  0.00  0.00     0.047 H 
ATOM     11  H8  <0> d           0.640  -0.163   2.068  0.00  0.00     0.163 HD
ENDROOT
BRANCH   1  12
ATOM     12  C1  <0> d          -0.019   1.526   0.010  0.00  0.00    -0.053 C 
ATOM     13  H1  <0> d           1.004   1.903   0.003  0.00  0.00     0.030 H 
ATOM     14  H2  <0> d          -0.546   1.887  -0.873  0.00  0.00     0.030 H 
ATOM     15  H3  <0> d          -0.529   1.877   0.907  0.00  0.00     0.030 H 
ENDBRANCH   1  12
BRANCH   1  16
ATOM     16  C6  <0> d          -1.426  -0.552   0.001  0.00  0.00    -0.053 C 
ATOM     17  H9  <0> d          -1.947  -0.208  -0.893  0.00  0.00     0.030 H 
ATOM     18  H10 <0> d          -1.397  -1.642   0.007  0.00  0.00     0.030 H 
ATOM     19  H11 <0> d          -1.952  -0.197   0.887  0.00  0.00     0.030 H 
ENDBRANCH   1  16
TORSDOF 2
