REMARK  6 active torsions:
REMARK  status: ('A' for Active; 'I' for Inactive)
REMARK    1  A    between atoms: C1_1  and  C2_2 
REMARK    2  A    between atoms: C2_2  and  C3_3 
REMARK    3  A    between atoms: C3_3  and  C4_4 
REMARK    4  A    between atoms: C4_4  and  C5_5 
REMARK    5  A    between atoms: C5_5  and  C6_7 
REMARK    6  A    between atoms: C5_5  and  C7_8 
ROOT
ATOM      1  C4  <0> d           2.696   3.548  -0.005  0.00  0.00    -0.053 C 
ATOM      2  H9  <0> d           3.181   3.236   0.920  0.00  0.00     0.034 H 
ATOM      3  H10 <0> d           3.210   3.097  -0.854  0.00  0.00     0.034 H 
ENDROOT
BRANCH   1   4
ATOM      4  C3  <0> d           2.756   5.072  -0.123  0.00  0.00    -0.065 C 
ATOM      5  H7  <0> d           2.271   5.384  -1.048  0.00  0.00     0.033 H 
ATOM      6  H8  <0> d           2.242   5.523   0.726  0.00  0.00     0.033 H 
BRANCH   4   7
ATOM      7  C2  <0> d           4.217   5.526  -0.134  0.00  0.00    -0.069 C 
ATOM      8  H5  <0> d           4.702   5.214   0.791  0.00  0.00     0.032 H 
ATOM      9  H6  <0> d           4.731   5.075  -0.983  0.00  0.00     0.032 H 
BRANCH   7  10
ATOM     10  C1  <0> d           4.277   7.050  -0.252  0.00  0.00    -0.077 C 
ATOM     11  H2  <0> d           5.318   7.373  -0.261  0.00  0.00     0.027 H 
ATOM     12  H3  <0> d           3.792   7.362  -1.177  0.00  0.00     0.027 H 
ATOM     13  H4  <0> d           3.763   7.501   0.597  0.00  0.00     0.027 H 
ENDBRANCH   7  10
ENDBRANCH   4   7
ENDBRANCH   1   4
BRANCH   1  14
ATOM     14  C5  <0> d           1.235   3.094   0.007  0.00  0.00     0.027 C 
ATOM     15  H1  <0> d           0.727   3.482  -0.876  0.00  0.00     0.056 H 
BRANCH  14  16
ATOM     16  C6  <0> d           0.546   3.625   1.266  0.00  0.00    -0.064 C 
ATOM     17  H11 <0> d           1.054   3.237   2.149  0.00  0.00     0.028 H 
ATOM     18  H12 <0> d           0.588   4.714   1.271  0.00  0.00     0.028 H 
ATOM     19  H13 <0> d          -0.495   3.302   1.274  0.00  0.00     0.028 H 
ENDBRANCH  14  16
BRANCH  14  20
ATOM     20  C7  <0> d           1.177   1.588  -0.001  0.00  0.00     0.176 C 
ATOM     21  O1  <0> d           2.199   0.944  -0.014  0.00  0.00    -0.648 OA
ATOM     22  O2  <0> d          -0.011   0.963   0.007  0.00  0.00    -0.648 OA
ENDBRANCH  14  20
ENDBRANCH   1  14
TORSDOF 6
