REMARK  3 active torsions:
REMARK  status: ('A' for Active; 'I' for Inactive)
REMARK    1  A    between atoms: C1_1  and  C2_2 
REMARK    2  A    between atoms: C2_2  and  C3_3 
REMARK    3  A    between atoms: C6_6  and  C8_9 
ROOT
ATOM      1  C3  <0> d           0.707  -0.490  -1.238  0.00  0.00     0.034 A 
ATOM      2  C4  <0> d           1.777  -1.358  -1.120  0.00  0.00    -0.059 A 
ATOM      3  C5  <0> d           2.418  -1.799  -2.266  0.00  0.00    -0.074 A 
ATOM      4  C6  <0> d           1.959  -1.349  -3.495  0.00  0.00    -0.044 A 
ATOM      5  C7  <0> d           0.884  -0.481  -3.535  0.00  0.00     0.008 A 
ATOM      6  N1  <0> d           0.294  -0.086  -2.423  0.00  0.00    -0.265 NA
ATOM      7  H6  <0> d           2.108  -1.688  -0.146  0.00  0.00     0.086 H 
ATOM      8  H7  <0> d           3.257  -2.478  -2.205  0.00  0.00     0.084 H 
ATOM      9  H8  <0> d           0.520  -0.126  -4.487  0.00  0.00     0.115 H 
ENDROOT
BRANCH   1  10
ATOM     10  C2  <0> d           0.002  -0.004   0.002  0.00  0.00    -0.028 C 
ATOM     11  H4  <0> d           0.529  -0.365   0.885  0.00  0.00     0.041 H 
ATOM     12  H5  <0> d          -1.020  -0.381   0.010  0.00  0.00     0.041 H 
BRANCH  10  13
ATOM     13  C1  <0> d          -0.019   1.526   0.010  0.00  0.00    -0.071 C 
ATOM     14  H1  <0> d           1.004   1.903   0.003  0.00  0.00     0.028 H 
ATOM     15  H2  <0> d          -0.546   1.887  -0.873  0.00  0.00     0.028 H 
ATOM     16  H3  <0> d          -0.529   1.877   0.907  0.00  0.00     0.028 H 
ENDBRANCH  10  13
ENDBRANCH   1  10
BRANCH   4  17
ATOM     17  C8  <0> d           2.624  -1.799  -4.770  0.00  0.00    -0.050 C 
ATOM     18  H9  <0> d           2.141  -2.707  -5.130  0.00  0.00     0.033 H 
ATOM     19  H10 <0> d           2.533  -1.016  -5.523  0.00  0.00     0.033 H 
ATOM     20  H11 <0> d           3.678  -1.999  -4.579  0.00  0.00     0.033 H 
ENDBRANCH   4  17
TORSDOF 3
