REMARK  3 active torsions:
REMARK  status: ('A' for Active; 'I' for Inactive)
REMARK    1  A    between atoms: C1_1  and  C2_2 
REMARK    2  A    between atoms: C6_6  and  C9_9 
REMARK    3  A    between atoms: C7_7  and  C8_8 
ROOT
ATOM      1  C2  <0> d           2.432   0.128   0.251  0.00  0.00    -0.055 A 
ATOM      2  C3  <0> d           1.296  -0.662   0.211  0.00  0.00    -0.077 A 
ATOM      3  C4  <0> d           0.061  -0.095  -0.046  0.00  0.00    -0.081 A 
ATOM      4  C5  <0> d          -0.047   1.264  -0.263  0.00  0.00    -0.066 A 
ATOM      5  C6  <0> d           1.095   2.066  -0.224  0.00  0.00     0.047 A 
ATOM      6  C7  <0> d           2.339   1.487   0.035  0.00  0.00    -0.039 A 
ATOM      7  H4  <0> d           1.374  -1.726   0.380  0.00  0.00     0.084 H 
ATOM      8  H5  <0> d          -0.822  -0.716  -0.076  0.00  0.00     0.083 H 
ATOM      9  H6  <0> d          -1.011   1.704  -0.468  0.00  0.00     0.085 H 
ENDROOT
BRANCH   1  10
ATOM     10  C1  <0> d           3.774  -0.499   0.531  0.00  0.00    -0.051 C 
ATOM     11  H1  <0> d           4.237  -0.801  -0.409  0.00  0.00     0.033 H 
ATOM     12  H2  <0> d           4.414   0.224   1.036  0.00  0.00     0.033 H 
ATOM     13  H3  <0> d           3.640  -1.374   1.167  0.00  0.00     0.033 H 
ENDBRANCH   1  10
BRANCH   6  14
ATOM     14  C8  <0> d           3.577   2.345   0.080  0.00  0.00    -0.050 C 
ATOM     15  H7  <0> d           3.951   2.497  -0.932  0.00  0.00     0.033 H 
ATOM     16  H8  <0> d           3.335   3.309   0.527  0.00  0.00     0.033 H 
ATOM     17  H9  <0> d           4.341   1.849   0.679  0.00  0.00     0.033 H 
ENDBRANCH   6  14
BRANCH   5  18
ATOM     18  C9  <0> d           0.988   3.521  -0.456  0.00  0.00     0.209 C 
ATOM     19  O1  <0> d           1.993   4.199  -0.531  0.00  0.00    -0.644 OA
ATOM     20  O2  <0> d          -0.224   4.095  -0.584  0.00  0.00    -0.644 OA
ENDBRANCH   5  18
TORSDOF 3
