REMARK  0 active torsions:
REMARK  status: ('A' for Active; 'I' for Inactive)
ROOT
ATOM      1  C1  <0> d           1.625  -2.652   2.125  0.00  0.00    -0.063 C 
ATOM      2  C2  <0> d           3.070  -2.178   1.960  0.00  0.00    -0.063 C 
ATOM      3  C3  <0> d           3.119  -0.648   1.985  0.00  0.00    -0.038 C 
ATOM      4  C4  <0> d           2.263  -0.101   0.843  0.00  0.00     0.073 C 
ATOM      5  H1  <0> d           2.640  -0.476  -0.108  0.00  0.00     0.088 H 
ATOM      6  C5  <0> d           0.814  -0.561   1.037  0.00  0.00     0.064 C 
ATOM      7  H2  <0> d           0.454  -0.214   2.006  0.00  0.00     0.087 H 
ATOM      8  C6  <0> d           0.763  -2.088   0.993  0.00  0.00    -0.038 C 
ATOM      9  O1  <0> d           0.002  -0.004   0.002  0.00  0.00    -0.374 OA
ATOM     10  C7  <0> d          -0.017   1.430   0.010  0.00  0.00     0.100 C 
ATOM     11  C8  <0> d           1.409   1.933  -0.001  0.00  0.00     0.283 C 
ATOM     12  O2  <0> d           1.750   2.824  -0.743  0.00  0.00    -0.263 OA
ATOM     13  O3  <0> d           2.292   1.354   0.847  0.00  0.00    -0.312 OA
ATOM     14  H3  <0> d           1.238  -2.306   3.083  0.00  0.00     0.033 H 
ATOM     15  H4  <0> d           1.597  -3.741   2.094  0.00  0.00     0.033 H 
ATOM     16  H5  <0> d           3.676  -2.574   2.775  0.00  0.00     0.033 H 
ATOM     17  H6  <0> d           3.463  -2.537   1.009  0.00  0.00     0.033 H 
ATOM     18  H7  <0> d           2.731  -0.287   2.937  0.00  0.00     0.036 H 
ATOM     19  H8  <0> d           4.149  -0.315   1.860  0.00  0.00     0.036 H 
ATOM     20  H9  <0> d          -0.267  -2.422   1.119  0.00  0.00     0.036 H 
ATOM     21  H10 <0> d           1.146  -2.438   0.034  0.00  0.00     0.036 H 
ATOM     22  H11 <0> d          -0.540   1.794  -0.875  0.00  0.00     0.089 H 
ATOM     23  H12 <0> d          -0.523   1.784   0.908  0.00  0.00     0.089 H 
ENDROOT
TORSDOF 0
