REMARK  1 active torsions:
REMARK  status: ('A' for Active; 'I' for Inactive)
REMARK    1  A    between atoms: C1_1  and  N1_2 
ROOT
ATOM      1  N1  <0> d          -0.768   1.594   1.174  0.00  0.00    -0.287 NA
ATOM      2  C2  <0> d          -0.013   1.086   0.008  0.00  0.00    -0.013 C 
ATOM      3  C3  <0> d          -0.825   1.630  -1.190  0.00  0.00    -0.028 C 
ATOM      4  C4  <0> d          -1.506   2.852  -0.607  0.00  0.00    -0.036 A 
ATOM      5  C5  <0> d          -1.427   2.768   0.778  0.00  0.00     0.016 A 
ATOM      6  C6  <0> d          -1.978   3.787   1.552  0.00  0.00    -0.062 A 
ATOM      7  C7  <0> d          -2.597   4.861   0.946  0.00  0.00    -0.081 A 
ATOM      8  C8  <0> d          -2.675   4.933  -0.433  0.00  0.00    -0.082 A 
ATOM      9  C9  <0> d          -2.128   3.926  -1.208  0.00  0.00    -0.075 A 
ATOM     10  H4  <0> d           1.015   1.478   0.037  0.00  0.00     0.056 H 
ATOM     11  H5  <0> d           0.013  -0.013   0.039  0.00  0.00     0.056 H 
ATOM     12  H6  <0> d          -0.141   1.878  -2.014  0.00  0.00     0.042 H 
ATOM     13  H7  <0> d          -1.541   0.865  -1.525  0.00  0.00     0.042 H 
ATOM     14  H8  <0> d          -1.921   3.736   2.629  0.00  0.00     0.086 H 
ATOM     15  H9  <0> d          -3.023   5.647   1.551  0.00  0.00     0.083 H 
ATOM     16  H10 <0> d          -3.163   5.774  -0.903  0.00  0.00     0.083 H 
ATOM     17  H11 <0> d          -2.188   3.981  -2.285  0.00  0.00     0.084 H 
ENDROOT
BRANCH   1  18
ATOM     18  C1  <0> d           0.127   1.845   2.312  0.00  0.00    -0.029 C 
ATOM     19  H1  <0> d           0.628   0.908   2.598  0.00  0.00     0.048 H 
ATOM     20  H2  <0> d          -0.459   2.222   3.163  0.00  0.00     0.048 H 
ATOM     21  H3  <0> d           0.882   2.592   2.026  0.00  0.00     0.048 H 
ENDBRANCH   1  18
TORSDOF 1
