REMARK  1 active torsions:
REMARK  status: ('A' for Active; 'I' for Inactive)
REMARK    1  A    between atoms: C4_4  and  O1_9 
ROOT
ATOM      1  C1  <0> d          -1.235   2.112   0.019  0.00  0.00    -0.060 A 
ATOM      2  C2  <0> d          -1.250   3.491   0.034  0.00  0.00    -0.041 A 
ATOM      3  C3  <0> d          -0.061   4.201   0.026  0.00  0.00     0.149 A 
ATOM      4  C4  <0> d           1.156   3.527   0.010  0.00  0.00     0.105 A 
ATOM      5  C5  <0> d           1.181   2.145   0.002  0.00  0.00    -0.028 A 
ATOM      6  C6  <0> d          -0.017   1.428   0.010  0.00  0.00     0.047 A 
ATOM      7  C7  <0> d           0.002  -0.004   0.002  0.00  0.00     0.099 C 
ATOM      8  N1  <0> d           0.018  -1.140  -0.004  0.00  0.00    -0.191 NA
ATOM      9  F1  <0> d          -0.084   5.552   0.034  0.00  0.00    -0.203 F 
ATOM     10  H1  <0> d          -2.164   1.561   0.020  0.00  0.00     0.086 H 
ATOM     11  H2  <0> d          -2.193   4.019   0.046  0.00  0.00     0.088 H 
ATOM     12  H3  <0> d           2.126   1.621  -0.010  0.00  0.00     0.090 H 
ENDROOT
BRANCH   4  13
ATOM     13  O1  <0> d           2.320   4.229   0.003  0.00  0.00    -0.358 OA
ATOM     14  H4  <0> d           2.649   4.436  -0.883  0.00  0.00     0.217 HD
ENDBRANCH   4  13
TORSDOF 1
