REMARK  2 active torsions:
REMARK  status: ('A' for Active; 'I' for Inactive)
REMARK    1  A    between atoms: C3_3  and  C7_10 
REMARK    2  A    between atoms: C5_6  and  C6_8 
ROOT
ATOM      1  C1  <0> d           0.002  -0.004   0.002  0.00  0.00    -0.052 C 
ATOM      2  C2  <0> d          -0.019   1.538   0.011  0.00  0.00    -0.052 C 
ATOM      3  C3  <0> d           1.477   1.939  -0.002  0.00  0.00     0.031 C 
ATOM      4  H1  <0> d           1.904   1.868   0.999  0.00  0.00     0.056 H 
ATOM      5  C4  <0> d           2.107   0.881  -0.942  0.00  0.00    -0.040 C 
ATOM      6  C5  <0> d           1.353  -0.422  -0.604  0.00  0.00     0.031 C 
ATOM      7  H2  <0> d           1.923  -1.005   0.120  0.00  0.00     0.056 H 
ATOM      8  H3  <0> d          -0.084  -0.384   1.020  0.00  0.00     0.034 H 
ATOM      9  H4  <0> d          -0.816  -0.385  -0.609  0.00  0.00     0.034 H 
ATOM     10  H5  <0> d          -0.522   1.918  -0.878  0.00  0.00     0.034 H 
ATOM     11  H6  <0> d          -0.505   1.908   0.913  0.00  0.00     0.034 H 
ATOM     12  H7  <0> d           3.171   0.771  -0.735  0.00  0.00     0.035 H 
ATOM     13  H8  <0> d           1.946   1.155  -1.985  0.00  0.00     0.035 H 
ENDROOT
BRANCH   3  14
ATOM     14  C7  <0> d           1.655   3.326  -0.563  0.00  0.00     0.177 C 
ATOM     15  O2  <0> d           2.308   3.493  -1.566  0.00  0.00    -0.648 OA
ATOM     16  O4  <0> d           1.087   4.376   0.051  0.00  0.00    -0.648 OA
ENDBRANCH   3  14
BRANCH   6  17
ATOM     17  C6  <0> d           1.130  -1.229  -1.857  0.00  0.00     0.177 C 
ATOM     18  O1  <0> d           1.549  -0.829  -2.916  0.00  0.00    -0.648 OA
ATOM     19  O3  <0> d           0.465  -2.394  -1.795  0.00  0.00    -0.648 OA
ENDBRANCH   6  17
TORSDOF 2
