REMARK  1 active torsions:
REMARK  status: ('A' for Active; 'I' for Inactive)
REMARK    1  A    between atoms: C1_1  and  N1_2 
ROOT
ATOM      1  N1  <0> d           0.002  -0.004   0.002  0.00  0.00     0.098 N 
ATOM      2  C2  <0> d           1.120  -0.513  -0.815  0.00  0.00     0.169 C 
ATOM      3  C3  <0> d           1.998  -0.369   0.409  0.00  0.00     0.183 C 
ATOM      4  O1  <0> d           3.169  -0.204   0.651  0.00  0.00    -0.294 OA
ATOM      5  C4  <0> d           0.709  -0.530   1.185  0.00  0.00     0.169 C 
ATOM      6  H4  <0> d           0.989  -1.546  -1.136  0.00  0.00     0.091 H 
ATOM      7  H5  <0> d           1.400   0.152  -1.632  0.00  0.00     0.091 H 
ATOM      8  H6  <0> d           0.642   0.121   2.057  0.00  0.00     0.091 H 
ATOM      9  H7  <0> d           0.465  -1.567   1.413  0.00  0.00     0.091 H 
ENDROOT
BRANCH   1  10
ATOM     10  C1  <0> d          -0.018   1.465   0.010  0.00  0.00     0.096 C 
ATOM     11  H1  <0> d           1.005   1.842   0.002  0.00  0.00     0.071 H 
ATOM     12  H2  <0> d          -0.545   1.826  -0.873  0.00  0.00     0.071 H 
ATOM     13  H3  <0> d          -0.528   1.816   0.907  0.00  0.00     0.071 H 
ENDBRANCH   1  10
TORSDOF 1
