REMARK  3 active torsions:
REMARK  status: ('A' for Active; 'I' for Inactive)
REMARK    1  A    between atoms: C1_1  and  O1_2 
REMARK    2  A    between atoms: O1_2  and  C2_3 
REMARK    3  A    between atoms: C5_6  and  C8_9 
ROOT
ATOM      1  C2  <0> d          -0.254   5.470  -2.706  0.00  0.00     0.068 A 
ATOM      2  C3  <0> d          -0.717   4.387  -3.439  0.00  0.00    -0.050 A 
ATOM      3  C4  <0> d          -1.006   3.195  -2.802  0.00  0.00    -0.074 A 
ATOM      4  C5  <0> d          -0.834   3.082  -1.435  0.00  0.00    -0.054 A 
ATOM      5  C6  <0> d          -0.379   4.161  -0.701  0.00  0.00    -0.074 A 
ATOM      6  C7  <0> d          -0.083   5.353  -1.334  0.00  0.00    -0.050 A 
ATOM      7  H4  <0> d          -0.850   4.475  -4.507  0.00  0.00     0.087 H 
ATOM      8  H5  <0> d          -1.365   2.352  -3.373  0.00  0.00     0.084 H 
ATOM      9  H6  <0> d          -0.250   4.072   0.368  0.00  0.00     0.084 H 
ATOM     10  H7  <0> d           0.277   6.195  -0.761  0.00  0.00     0.087 H 
ENDROOT
BRANCH   4  11
ATOM     11  C8  <0> d          -1.150   1.781  -0.743  0.00  0.00    -0.029 A 
ATOM     12  C10 <0> d          -1.136   1.773   0.788  0.00  0.00    -0.057 A 
ATOM     13  C9  <0> d          -0.013   1.086   0.008  0.00  0.00    -0.057 A 
ATOM     14  H11 <0> d          -1.859   1.135   1.295  0.00  0.00     0.034 H 
ATOM     15  H12 <0> d          -0.897   2.708   1.294  0.00  0.00     0.034 H 
ATOM     16  H9  <0> d           0.002  -0.004   0.002  0.00  0.00     0.034 H 
ATOM     17  H10 <0> d           0.964   1.569   0.001  0.00  0.00     0.034 H 
ATOM     18  H8  <0> d          -1.884   1.149  -1.243  0.00  0.00     0.047 H 
ENDBRANCH   4  11
BRANCH   1  19
ATOM     19  O1  <0> d           0.031   6.643  -3.330  0.00  0.00    -0.356 OA
BRANCH  19  20
ATOM     20  C1  <0> d           0.503   7.715  -2.512  0.00  0.00     0.010 C 
ATOM     21  H1  <0> d          -0.249   7.958  -1.762  0.00  0.00     0.066 H 
ATOM     22  H2  <0> d           1.427   7.415  -2.017  0.00  0.00     0.066 H 
ATOM     23  H3  <0> d           0.693   8.590  -3.134  0.00  0.00     0.066 H 
ENDBRANCH  19  20
ENDBRANCH   1  19
TORSDOF 3
