REMARK  4 active torsions:
REMARK  status: ('A' for Active; 'I' for Inactive)
REMARK    1  A    between atoms: C1_1  and  O1_2 
REMARK    2  A    between atoms: O1_2  and  C2_3 
REMARK    3  A    between atoms: C2_3  and  C3_4 
REMARK    4  A    between atoms: C7_8  and  N1_10 
ROOT
ATOM      1  C3  <0> d          -0.049   3.845   0.021  0.00  0.00    -0.033 A 
ATOM      2  C4  <0> d           1.156   3.166   0.007  0.00  0.00    -0.075 A 
ATOM      3  C5  <0> d           1.174   1.783   0.000  0.00  0.00    -0.080 A 
ATOM      4  C6  <0> d          -0.013   1.076   0.008  0.00  0.00    -0.058 A 
ATOM      5  C7  <0> d          -1.224   1.755   0.017  0.00  0.00     0.026 A 
ATOM      6  C8  <0> d          -1.238   3.144   0.029  0.00  0.00    -0.050 A 
ATOM      7  H6  <0> d           2.085   3.717   0.001  0.00  0.00     0.084 H 
ATOM      8  H7  <0> d           2.116   1.256  -0.011  0.00  0.00     0.083 H 
ATOM      9  H8  <0> d           0.002  -0.004   0.002  0.00  0.00     0.086 H 
ATOM     10  H9  <0> d          -2.179   3.675   0.040  0.00  0.00     0.087 H 
ENDROOT
BRANCH   1  11
ATOM     11  C2  <0> d          -0.064   5.352   0.029  0.00  0.00     0.043 C 
ATOM     12  H4  <0> d           0.836   5.725   0.541  0.00  0.00     0.081 H 
ATOM     13  H5  <0> d          -0.961   5.707   0.557  0.00  0.00     0.081 H 
BRANCH  11  14
ATOM     14  O1  <0> d          -0.081   5.835  -1.316  0.00  0.00    -0.391 OA
BRANCH  14  15
ATOM     15  C1  <0> d          -0.095   7.260  -1.422  0.00  0.00     0.004 C 
ATOM     16  H1  <0> d          -0.108   7.548  -2.484  0.00  0.00     0.066 H 
ATOM     17  H2  <0> d           0.803   7.672  -0.941  0.00  0.00     0.066 H 
ATOM     18  H3  <0> d          -0.993   7.655  -0.924  0.00  0.00     0.066 H 
ENDBRANCH  14  15
ENDBRANCH  11  14
ENDBRANCH   1  11
BRANCH   5  19
ATOM     19  N1  <0> d          -2.426   1.042   0.020  0.00  0.00    -0.399 N 
ATOM     20  H10 <0> d          -3.385   1.581   0.027  0.00  0.00     0.156 HD
ATOM     21  H11 <0> d          -2.413  -0.058   0.014  0.00  0.00     0.156 HD
ENDBRANCH   5  19
TORSDOF 4
