REMARK  2 active torsions:
REMARK  status: ('A' for Active; 'I' for Inactive)
REMARK    1  A    between atoms: C1_1  and  C2_2 
REMARK    2  A    between atoms: C4_7  and  N3_10 
ROOT
ATOM      1  C2  <0> d           0.002  -0.004   0.002  0.00  0.00     0.102 A 
ATOM      2  N1  <0> d          -1.167  -0.678   0.004  0.00  0.00    -0.310 N 
ATOM      3  H1  <0> d          -2.007  -0.193   0.011  0.00  0.00     0.170 HD
ATOM      4  C3  <0> d          -1.166  -2.029  -0.004  0.00  0.00     0.274 A 
ATOM      5  O1  <0> d          -2.215  -2.653  -0.003  0.00  0.00    -0.266 OA
ATOM      6  C4  <0> d           0.079  -2.704  -0.014  0.00  0.00     0.112 A 
ATOM      7  C5  <0> d           1.224  -1.959  -0.015  0.00  0.00     0.035 A 
ATOM      8  N2  <0> d           1.150  -0.625  -0.012  0.00  0.00    -0.245 NA
ATOM      9  H5  <0> d           2.187  -2.447  -0.023  0.00  0.00     0.118 H 
ENDROOT
BRANCH   1  10
ATOM     10  C1  <0> d          -0.018   1.503   0.010  0.00  0.00    -0.021 C 
ATOM     11  H2  <0> d           1.004   1.880   0.003  0.00  0.00     0.037 H 
ATOM     12  H3  <0> d          -0.545   1.864  -0.873  0.00  0.00     0.037 H 
ATOM     13  H4  <0> d          -0.529   1.854   0.907  0.00  0.00     0.037 H 
ENDBRANCH   1  10
BRANCH   6  14
ATOM     14  N3  <0> d           0.135  -4.104  -0.022  0.00  0.00    -0.394 N 
ATOM     15  H6  <0> d          -0.685  -4.622  -0.020  0.00  0.00     0.156 HD
ATOM     16  H7  <0> d           0.994  -4.555  -0.029  0.00  0.00     0.156 HD
ENDBRANCH   6  14
TORSDOF 2
