REMARK  0 active torsions:
REMARK  status: ('A' for Active; 'I' for Inactive)
ROOT
ATOM      1  C1  <0> d          -1.237   1.756   0.018  0.00  0.00    -0.048 A 
ATOM      2  C2  <0> d          -0.013   1.076   0.008  0.00  0.00     0.022 A 
ATOM      3  N1  <0> d           1.118   1.745   0.001  0.00  0.00    -0.073 NA
ATOM      4  C3  <0> d           1.123   3.083   0.008  0.00  0.00     0.750 A 
ATOM      5  N2  <0> d           2.106   3.976   0.003  0.00  0.00    -0.052 NA
ATOM      6  C4  <0> d           1.599   5.202   0.015  0.00  0.00     0.125 A 
ATOM      7  N3  <0> d           0.289   5.136   0.027  0.00  0.00    -0.146 NA
ATOM      8  N4  <0> d          -0.054   3.777   0.023  0.00  0.00    -0.070 N 
ATOM      9  C5  <0> d          -1.241   3.114   0.030  0.00  0.00     0.023 A 
ATOM     10  H1  <0> d          -2.167   1.207   0.018  0.00  0.00     0.087 H 
ATOM     11  H2  <0> d           0.002  -0.004   0.002  0.00  0.00     0.115 H 
ATOM     12  H3  <0> d           2.176   6.114   0.015  0.00  0.00     0.150 H 
ATOM     13  H4  <0> d          -2.173   3.659   0.042  0.00  0.00     0.115 H 
ENDROOT
TORSDOF 0
