REMARK  2 active torsions:
REMARK  status: ('A' for Active; 'I' for Inactive)
REMARK    1  A    between atoms: C1_1  and  S1_2 
REMARK    2  A    between atoms: S1_2  and  C2_3 
ROOT
ATOM      1  C2  <0> d           0.877  -0.427   1.472  0.00  0.00     0.017 A 
ATOM      2  C3  <0> d           1.101  -1.762   1.803  0.00  0.00    -0.064 A 
ATOM      3  C4  <0> d           1.794  -2.043   2.968  0.00  0.00    -0.065 A 
ATOM      4  C5  <0> d           2.237  -1.000   3.760  0.00  0.00     0.002 A 
ATOM      5  N1  <0> d           2.009   0.254   3.419  0.00  0.00    -0.272 NA
ATOM      6  C6  <0> d           1.358   0.567   2.316  0.00  0.00     0.018 A 
ATOM      7  H4  <0> d           0.743  -2.557   1.166  0.00  0.00     0.085 H 
ATOM      8  H5  <0> d           1.986  -3.067   3.256  0.00  0.00     0.085 H 
ATOM      9  H6  <0> d           2.777  -1.214   4.670  0.00  0.00     0.114 H 
ATOM     10  H7  <0> d           1.194   1.605   2.068  0.00  0.00     0.116 H 
ENDROOT
BRANCH   1  11
ATOM     11  S1  <0> d           0.002  -0.004   0.002  0.00  0.00    -0.133 SA
BRANCH  11  12
ATOM     12  C1  <0> d          -0.022   1.810   0.012  0.00  0.00    -0.030 C 
ATOM     13  H1  <0> d           1.000   2.187   0.004  0.00  0.00     0.042 H 
ATOM     14  H2  <0> d          -0.550   2.171  -0.871  0.00  0.00     0.042 H 
ATOM     15  H3  <0> d          -0.533   2.161   0.909  0.00  0.00     0.042 H 
ENDBRANCH  11  12
ENDBRANCH   1  11
TORSDOF 2
