REMARK  3 active torsions:
REMARK  status: ('A' for Active; 'I' for Inactive)
REMARK    1  A    between atoms: C1_1  and  C2_2 
REMARK    2  A    between atoms: C2_2  and  C3_4 
REMARK    3  A    between atoms: C2_2  and  O1_11 
ROOT
ATOM      1  C3  <0> d           1.158   3.165   0.007  0.00  0.00     0.009 A 
ATOM      2  C4  <0> d           1.175   1.783   0.000  0.00  0.00    -0.071 A 
ATOM      3  C5  <0> d          -0.013   1.076   0.008  0.00  0.00    -0.082 A 
ATOM      4  C6  <0> d          -1.220   1.750   0.017  0.00  0.00    -0.080 A 
ATOM      5  C7  <0> d          -1.240   3.132   0.031  0.00  0.00    -0.045 A 
ATOM      6  C8  <0> d          -0.050   3.841   0.023  0.00  0.00     0.125 A 
ATOM      7  F1  <0> d          -0.068   5.192   0.029  0.00  0.00    -0.205 F 
ATOM      8  H5  <0> d           2.117   1.255  -0.011  0.00  0.00     0.084 H 
ATOM      9  H6  <0> d           0.002  -0.004   0.002  0.00  0.00     0.083 H 
ATOM     10  H7  <0> d          -2.147   1.197   0.019  0.00  0.00     0.083 H 
ATOM     11  H8  <0> d          -2.182   3.658   0.043  0.00  0.00     0.088 H 
ENDROOT
BRANCH   1  12
ATOM     12  C2  <0> d           2.453   3.935  -0.001  0.00  0.00     0.060 C 
ATOM     13  H1  <0> d           2.341   4.841   0.594  0.00  0.00     0.090 H 
BRANCH  12  14
ATOM     14  C1  <0> d           2.814   4.311  -1.439  0.00  0.00    -0.049 C 
ATOM     15  H2  <0> d           3.750   4.868  -1.445  0.00  0.00     0.031 H 
ATOM     16  H3  <0> d           2.926   3.405  -2.034  0.00  0.00     0.031 H 
ATOM     17  H4  <0> d           2.021   4.928  -1.863  0.00  0.00     0.031 H 
ENDBRANCH  12  14
BRANCH  12  18
ATOM     18  O1  <0> d           3.492   3.126   0.555  0.00  0.00    -0.391 OA
ATOM     19  H9  <0> d           4.356   3.559   0.581  0.00  0.00     0.210 HD
ENDBRANCH  12  18
ENDBRANCH   1  12
TORSDOF 3
