REMARK  1 active torsions:
REMARK  status: ('A' for Active; 'I' for Inactive)
REMARK    1  A    between atoms: C2_3  and  C3_7 
ROOT
ATOM      1  C1  <0> d          -0.016   1.306   0.009  0.00  0.00     0.108 A 
ATOM      2  N1  <0> d           1.238   1.745  -0.000  0.00  0.00    -0.215 NA
ATOM      3  C2  <0> d           2.027   0.684  -0.014  0.00  0.00     0.223 A 
ATOM      4  N2  <0> d           1.226  -0.407  -0.012  0.00  0.00    -0.254 N 
ATOM      5  H1  <0> d           1.522  -1.331  -0.020  0.00  0.00     0.191 HD
ATOM      6  N3  <0> d           0.002  -0.004   0.002  0.00  0.00    -0.166 NA
ATOM      7  H2  <0> d          -0.901   1.925   0.025  0.00  0.00     0.149 H 
ENDROOT
BRANCH   3   8
ATOM      8  C3  <0> d           3.502   0.688  -0.028  0.00  0.00     0.248 C 
ATOM      9  O1  <0> d           4.110   1.749  -0.028  0.00  0.00    -0.642 OA
ATOM     10  O2  <0> d           4.116  -0.369  -0.040  0.00  0.00    -0.642 OA
ENDBRANCH   3   8
TORSDOF 1
