REMARK  2 active torsions:
REMARK  status: ('A' for Active; 'I' for Inactive)
REMARK    1  A    between atoms: C1_1  and  C2_2 
REMARK    2  A    between atoms: C5_5  and  C6_7 
ROOT
ATOM      1  C2  <0> d           0.002  -0.004   0.002  0.00  0.00     0.050 A 
ATOM      2  C3  <0> d          -1.083  -0.805   0.003  0.00  0.00    -0.052 A 
ATOM      3  C4  <0> d          -0.617  -2.132  -0.007  0.00  0.00    -0.044 A 
ATOM      4  C5  <0> d           0.744  -2.070  -0.013  0.00  0.00     0.127 A 
ATOM      5  O1  <0> d           1.103  -0.771  -0.013  0.00  0.00    -0.311 OA
ATOM      6  H4  <0> d          -2.115  -0.487   0.009  0.00  0.00     0.087 H 
ATOM      7  H5  <0> d          -1.221  -3.028  -0.009  0.00  0.00     0.088 H 
ENDROOT
BRANCH   4   8
ATOM      8  C6  <0> d           1.662  -3.221  -0.023  0.00  0.00     0.230 A 
ATOM      9  N4  <0> d           2.998  -3.179  -0.029  0.00  0.00    -0.104 NA
ATOM     10  N3  <0> d           3.423  -4.397  -0.035  0.00  0.00    -0.021 NA
ATOM     11  N2  <0> d           2.417  -5.199  -0.042  0.00  0.00    -0.021 NA
ATOM     12  N1  <0> d           1.324  -4.514  -0.035  0.00  0.00    -0.104 NA
ENDBRANCH   4   8
BRANCH   1  13
ATOM     13  C1  <0> d          -0.018   1.503   0.010  0.00  0.00    -0.031 C 
ATOM     14  H1  <0> d           1.004   1.880   0.003  0.00  0.00     0.036 H 
ATOM     15  H2  <0> d          -0.545   1.864  -0.873  0.00  0.00     0.036 H 
ATOM     16  H3  <0> d          -0.529   1.854   0.907  0.00  0.00     0.036 H 
ENDBRANCH   1  13
TORSDOF 2
