REMARK  4 active torsions:
REMARK  status: ('A' for Active; 'I' for Inactive)
REMARK    1  A    between atoms: C1_1  and  C2_2 
REMARK    2  A    between atoms: C2_2  and  N1_3 
REMARK    3  A    between atoms: N1_3  and  C3_4 
REMARK    4  A    between atoms: C4_6  and  C6_9 
ROOT
ATOM      1  C3  <0> d          -2.647   2.204   2.327  0.00  0.00     0.166 A 
ATOM      2  N2  <0> d          -2.021   1.784   1.244  0.00  0.00    -0.229 NA
ATOM      3  C4  <0> d          -0.718   1.572   1.248  0.00  0.00     0.040 A 
ATOM      4  C5  <0> d          -0.029   1.806   2.390  0.00  0.00    -0.018 A 
ATOM      5  S1  <0> d          -1.348   2.341   3.470  0.00  0.00    -0.062 SA
ATOM      6  H7  <0> d           1.026   1.698   2.592  0.00  0.00     0.098 H 
ENDROOT
BRANCH   1   7
ATOM      7  N1  <0> d          -3.995   2.473   2.504  0.00  0.00    -0.369 N 
ATOM      8  H6  <0> d          -4.698   2.335   1.669  0.00  0.00     0.161 HD
BRANCH   7   9
ATOM      9  C2  <0> d          -4.484   2.942   3.803  0.00  0.00    -0.009 C 
ATOM     10  H4  <0> d          -3.988   3.890   4.061  0.00  0.00     0.063 H 
ATOM     11  H5  <0> d          -4.260   2.189   4.573  0.00  0.00     0.063 H 
BRANCH   9  12
ATOM     12  C1  <0> d          -5.996   3.162   3.729  0.00  0.00    -0.061 C 
ATOM     13  H1  <0> d          -6.364   3.514   4.705  0.00  0.00     0.029 H 
ATOM     14  H2  <0> d          -6.492   2.215   3.471  0.00  0.00     0.029 H 
ATOM     15  H3  <0> d          -6.221   3.915   2.959  0.00  0.00     0.029 H 
ENDBRANCH   9  12
ENDBRANCH   7   9
ENDBRANCH   1   7
BRANCH   3  16
ATOM     16  C6  <0> d          -0.013   1.086   0.008  0.00  0.00    -0.035 C 
ATOM     17  H8  <0> d           1.061   0.972   0.218  0.00  0.00     0.035 H 
ATOM     18  H9  <0> d          -0.153   1.815  -0.803  0.00  0.00     0.035 H 
ATOM     19  H10 <0> d          -0.432   0.115  -0.295  0.00  0.00     0.035 H 
ENDBRANCH   3  16
TORSDOF 4
