REMARK  6 active torsions:
REMARK  status: ('A' for Active; 'I' for Inactive)
REMARK    1  A    between atoms: C1_1  and  C2_2 
REMARK    2  A    between atoms: C2_2  and  C3_3 
REMARK    3  A    between atoms: C2_2  and  C4_4 
REMARK    4  A    between atoms: C4_4  and  C5_5 
REMARK    5  A    between atoms: C4_4  and  C6_6 
REMARK    6  A    between atoms: C4_4  and  O1_8 
ROOT
ATOM      1  C6  <0> d          -1.379  -0.514   0.013  0.00  0.00    -0.079 C 
ATOM      2  C7  <0> d          -2.480  -0.920   0.021  0.00  0.00    -0.151 C 
ATOM      3  H11 <0> d          -3.465  -1.283   0.028  0.00  0.00     0.166 H 
ENDROOT
BRANCH   1   4
ATOM      4  C4  <0> d           0.002  -0.004   0.002  0.00  0.00     0.119 C 
BRANCH   4   5
ATOM      5  C2  <0> d           0.718  -0.497  -1.257  0.00  0.00    -0.021 C 
ATOM      6  H4  <0> d           0.733  -1.587  -1.263  0.00  0.00     0.044 H 
BRANCH   5   7
ATOM      7  C1  <0> d          -0.022   0.009  -2.496  0.00  0.00    -0.070 C 
ATOM      8  H1  <0> d           0.488  -0.342  -3.393  0.00  0.00     0.028 H 
ATOM      9  H2  <0> d          -1.044  -0.368  -2.489  0.00  0.00     0.028 H 
ATOM     10  H3  <0> d          -0.037   1.099  -2.490  0.00  0.00     0.028 H 
ENDBRANCH   5   7
BRANCH   5  11
ATOM     11  C3  <0> d           2.154   0.032  -1.268  0.00  0.00    -0.070 C 
ATOM     12  H5  <0> d           2.681  -0.329  -0.385  0.00  0.00     0.028 H 
ATOM     13  H6  <0> d           2.664  -0.319  -2.164  0.00  0.00     0.028 H 
ATOM     14  H7  <0> d           2.139   1.122  -1.262  0.00  0.00     0.028 H 
ENDBRANCH   5  11
ENDBRANCH   4   5
BRANCH   4  15
ATOM     15  C5  <0> d          -0.019   1.526   0.010  0.00  0.00    -0.037 C 
ATOM     16  H8  <0> d           1.004   1.903   0.003  0.00  0.00     0.033 H 
ATOM     17  H9  <0> d          -0.546   1.887  -0.873  0.00  0.00     0.033 H 
ATOM     18  H10 <0> d          -0.529   1.877   0.907  0.00  0.00     0.033 H 
ENDBRANCH   4  15
BRANCH   4  19
ATOM     19  O1  <0> d           0.693  -0.477   1.160  0.00  0.00    -0.378 OA
ATOM     20  H12 <0> d           0.745  -1.441   1.220  0.00  0.00     0.211 HD
ENDBRANCH   4  19
ENDBRANCH   1   4
TORSDOF 6
