REMARK  2 active torsions:
REMARK  status: ('A' for Active; 'I' for Inactive)
REMARK    1  A    between atoms: C1_1  and  C2_2 
REMARK    2  A    between atoms: C4_4  and  N3_8 
ROOT
ATOM      1  C2  <0> d          -0.718   1.572   1.248  0.00  0.00     0.056 A 
ATOM      2  C3  <0> d          -0.002   1.812   2.424  0.00  0.00     0.114 A 
ATOM      3  C4  <0> d          -0.715   2.265   3.553  0.00  0.00     0.145 A 
ATOM      4  N1  <0> d          -2.028   2.444   3.450  0.00  0.00    -0.223 NA
ATOM      5  C5  <0> d          -2.656   2.203   2.317  0.00  0.00     0.089 A 
ATOM      6  N2  <0> d          -2.023   1.783   1.238  0.00  0.00    -0.245 NA
ATOM      7  C6  <0> d           1.414   1.603   2.480  0.00  0.00     0.105 C 
ATOM      8  N4  <0> d           2.537   1.438   2.525  0.00  0.00    -0.191 NA
ATOM      9  H4  <0> d          -3.723   2.359   2.269  0.00  0.00     0.146 H 
ENDROOT
BRANCH   1  10
ATOM     10  C1  <0> d          -0.013   1.086   0.008  0.00  0.00    -0.034 C 
ATOM     11  H1  <0> d           0.002  -0.004   0.002  0.00  0.00     0.035 H 
ATOM     12  H2  <0> d           1.010   1.463   0.000  0.00  0.00     0.035 H 
ATOM     13  H3  <0> d          -0.540   1.447  -0.875  0.00  0.00     0.035 H 
ENDBRANCH   1  10
BRANCH   3  14
ATOM     14  N3  <0> d          -0.061   2.520   4.742  0.00  0.00    -0.383 N 
ATOM     15  H5  <0> d           0.897   2.386   4.806  0.00  0.00     0.157 HD
ATOM     16  H6  <0> d          -0.561   2.831   5.513  0.00  0.00     0.157 HD
ENDBRANCH   3  14
TORSDOF 2
