REMARK  2 active torsions:
REMARK  status: ('A' for Active; 'I' for Inactive)
REMARK    1  A    between atoms: C1_1  and  S1_2 
REMARK    2  A    between atoms: S1_2  and  C2_4 
ROOT
ATOM      1  C2  <0> d           2.377   1.412  -0.013  0.00  0.00     0.031 A 
ATOM      2  C3  <0> d           1.171   2.087   0.002  0.00  0.00    -0.061 A 
ATOM      3  C4  <0> d          -0.017   1.380   0.010  0.00  0.00    -0.044 A 
ATOM      4  C5  <0> d           0.002  -0.004   0.002  0.00  0.00     0.116 A 
ATOM      5  C6  <0> d           1.211  -0.679  -0.013  0.00  0.00    -0.044 A 
ATOM      6  C7  <0> d           2.397   0.030  -0.021  0.00  0.00    -0.061 A 
ATOM      7  F1  <0> d          -1.158  -0.696   0.010  0.00  0.00    -0.206 F 
ATOM      8  H4  <0> d           1.157   3.167   0.008  0.00  0.00     0.085 H 
ATOM      9  H5  <0> d          -0.959   1.908   0.017  0.00  0.00     0.088 H 
ATOM     10  H6  <0> d           1.227  -1.759  -0.019  0.00  0.00     0.088 H 
ATOM     11  H7  <0> d           3.340  -0.496  -0.032  0.00  0.00     0.085 H 
ENDROOT
BRANCH   1  12
ATOM     12  S1  <0> d           3.891   2.314  -0.023  0.00  0.00     0.045 S 
ATOM     13  O1  <0> d           4.834   1.411   0.536  0.00  0.00    -0.253 OA
BRANCH  12  14
ATOM     14  C1  <0> d           4.250   2.549  -1.786  0.00  0.00    -0.004 C 
ATOM     15  H1  <0> d           3.520   3.248  -2.219  0.00  0.00     0.045 H 
ATOM     16  H2  <0> d           4.184   1.581  -2.305  0.00  0.00     0.045 H 
ATOM     17  H3  <0> d           5.264   2.958  -1.902  0.00  0.00     0.045 H 
ENDBRANCH  12  14
ENDBRANCH   1  12
TORSDOF 2
