REMARK  1 active torsions:
REMARK  status: ('A' for Active; 'I' for Inactive)
REMARK    1  A    between atoms: C1_1  and  N1_2 
ROOT
ATOM      1  N1  <0> d           0.002  -0.004   0.002  0.00  0.00    -0.284 N 
ATOM      2  C2  <0> d           0.007  -0.769  -1.101  0.00  0.00     0.012 A 
ATOM      3  C3  <0> d           0.027  -2.086  -0.703  0.00  0.00     0.032 A 
ATOM      4  C4  <0> d           0.041  -3.379  -1.394  0.00  0.00     0.058 A 
ATOM      5  C5  <0> d           0.060  -4.536  -0.632  0.00  0.00    -0.062 A 
ATOM      6  C6  <0> d           0.065  -4.485   0.758  0.00  0.00    -0.079 A 
ATOM      7  C7  <0> d           0.052  -3.317   1.448  0.00  0.00    -0.052 A 
ATOM      8  C8  <0> d           0.034  -2.081   0.768  0.00  0.00     0.090 A 
ATOM      9  N2  <0> d           0.024  -0.814   1.143  0.00  0.00    -0.173 NA
ATOM     10  C9  <0> d           0.035  -3.445  -2.824  0.00  0.00     0.100 C 
ATOM     11  N3  <0> d           0.030  -3.497  -3.959  0.00  0.00    -0.191 NA
ATOM     12  H4  <0> d          -0.002  -0.414  -2.121  0.00  0.00     0.115 H 
ATOM     13  H5  <0> d           0.070  -5.495  -1.127  0.00  0.00     0.085 H 
ATOM     14  H6  <0> d           0.080  -5.413   1.310  0.00  0.00     0.083 H 
ATOM     15  H7  <0> d           0.057  -3.334   2.528  0.00  0.00     0.087 H 
ENDROOT
BRANCH   1  16
ATOM     16  C1  <0> d          -0.018   1.461   0.010  0.00  0.00     0.002 C 
ATOM     17  H1  <0> d           1.005   1.838   0.002  0.00  0.00     0.059 H 
ATOM     18  H2  <0> d          -0.545   1.822  -0.873  0.00  0.00     0.059 H 
ATOM     19  H3  <0> d          -0.528   1.812   0.907  0.00  0.00     0.059 H 
ENDBRANCH   1  16
TORSDOF 1
