REMARK  6 active torsions:
REMARK  status: ('A' for Active; 'I' for Inactive)
REMARK    1  A    between atoms: C3_3  and  C4_4 
REMARK    2  A    between atoms: C3_3  and  O2_11 
REMARK    3  A    between atoms: C4_4  and  C5_5 
REMARK    4  A    between atoms: C5_5  and  C6_6 
REMARK    5  A    between atoms: C6_6  and  C7_7 
REMARK    6  A    between atoms: C7_7  and  O1_10 
ROOT
ATOM      1  C5  <0> d           3.350  -0.101  -1.161  0.00  0.00    -0.060 C 
ATOM      2  H7  <0> d           3.972   0.266  -0.345  0.00  0.00     0.033 H 
ATOM      3  H8  <0> d           3.031  -1.121  -0.945  0.00  0.00     0.033 H 
ENDROOT
BRANCH   1   4
ATOM      4  C4  <0> d           2.120   0.797  -1.308  0.00  0.00    -0.036 C 
ATOM      5  H5  <0> d           1.497   0.430  -2.124  0.00  0.00     0.037 H 
ATOM      6  H6  <0> d           2.438   1.817  -1.525  0.00  0.00     0.037 H 
BRANCH   4   7
ATOM      7  C3  <0> d           1.317   0.779  -0.006  0.00  0.00     0.058 A 
ATOM      8  C1  <0> d          -0.019   1.526   0.010  0.00  0.00    -0.034 A 
ATOM      9  C2  <0> d           0.002  -0.004   0.002  0.00  0.00    -0.034 A 
ATOM     10  H1  <0> d          -0.325   2.030  -0.906  0.00  0.00     0.037 H 
ATOM     11  H2  <0> d          -0.307   2.020   0.938  0.00  0.00     0.037 H 
ATOM     12  H3  <0> d          -0.273  -0.516   0.924  0.00  0.00     0.037 H 
ATOM     13  H4  <0> d          -0.290  -0.506  -0.920  0.00  0.00     0.037 H 
BRANCH   7  14
ATOM     14  O2  <0> d           2.090   0.783   1.195  0.00  0.00    -0.390 OA
ATOM     15  H16 <0> d           2.923   0.296   1.129  0.00  0.00     0.210 HD
ENDBRANCH   7  14
ENDBRANCH   4   7
ENDBRANCH   1   4
BRANCH   1  16
ATOM     16  C6  <0> d           4.153  -0.083  -2.463  0.00  0.00    -0.036 C 
ATOM     17  H9  <0> d           3.530  -0.450  -3.279  0.00  0.00     0.037 H 
ATOM     18  H10 <0> d           4.471   0.937  -2.680  0.00  0.00     0.037 H 
BRANCH  16  19
ATOM     19  C7  <0> d           5.383  -0.981  -2.316  0.00  0.00     0.058 A 
ATOM     20  C9  <0> d           6.382  -1.006  -3.475  0.00  0.00    -0.034 A 
ATOM     21  C8  <0> d           6.744  -0.297  -2.168  0.00  0.00    -0.034 A 
ATOM     22  H13 <0> d           6.880  -1.952  -3.689  0.00  0.00     0.037 H 
ATOM     23  H14 <0> d           6.163  -0.383  -4.342  0.00  0.00     0.037 H 
ATOM     24  H11 <0> d           6.762   0.793  -2.175  0.00  0.00     0.037 H 
ATOM     25  H12 <0> d           7.480  -0.776  -1.523  0.00  0.00     0.037 H 
BRANCH  19  26
ATOM     26  O1  <0> d           5.175  -2.199  -1.598  0.00  0.00    -0.390 OA
ATOM     27  H15 <0> d           4.535  -2.126  -0.877  0.00  0.00     0.210 HD
ENDBRANCH  19  26
ENDBRANCH  16  19
ENDBRANCH   1  16
TORSDOF 6
