REMARK  3 active torsions:
REMARK  status: ('A' for Active; 'I' for Inactive)
REMARK    1  A    between atoms: N1_5  and  C5_9 
REMARK    2  A    between atoms: C5_9  and  C6_10 
REMARK    3  A    between atoms: C6_10  and  O3_11 
ROOT
ATOM      1  C1  <0> d          -0.017   1.403   0.010  0.00  0.00    -0.022 A 
ATOM      2  C2  <0> d           1.155   2.094   0.002  0.00  0.00    -0.012 A 
ATOM      3  C3  <0> d           2.373   1.385  -0.013  0.00  0.00     0.263 A 
ATOM      4  O1  <0> d           3.435   1.987  -0.020  0.00  0.00    -0.267 OA
ATOM      5  N1  <0> d           2.357   0.037  -0.021  0.00  0.00    -0.230 N 
ATOM      6  N2  <0> d           1.139  -0.653  -0.013  0.00  0.00    -0.141 NA
ATOM      7  C4  <0> d           0.002  -0.004   0.002  0.00  0.00     0.219 A 
ATOM      8  O2  <0> d          -1.168  -0.694   0.009  0.00  0.00    -0.169 OA
ATOM      9  H1  <0> d          -0.958   1.932   0.017  0.00  0.00     0.090 H 
ATOM     10  H2  <0> d           1.152   3.174   0.008  0.00  0.00     0.092 H 
ENDROOT
BRANCH   5  11
ATOM     11  C5  <0> d           3.618  -0.709  -0.037  0.00  0.00     0.040 C 
ATOM     12  H3  <0> d           3.472  -1.665  -0.559  0.00  0.00     0.070 H 
ATOM     13  H4  <0> d           4.386  -0.119  -0.559  0.00  0.00     0.070 H 
BRANCH  11  14
ATOM     14  C6  <0> d           4.071  -0.976   1.400  0.00  0.00     0.033 C 
ATOM     15  H5  <0> d           5.061  -1.455   1.389  0.00  0.00     0.076 H 
ATOM     16  H6  <0> d           4.131  -0.024   1.949  0.00  0.00     0.076 H 
BRANCH  14  17
ATOM     17  O3  <0> d           3.131  -1.838   2.043  0.00  0.00    -0.399 OA
ATOM     18  H7  <0> d           3.289  -2.143   3.088  0.00  0.00     0.209 HD
ENDBRANCH  14  17
ENDBRANCH  11  14
ENDBRANCH   5  11
TORSDOF 3
