REMARK  4 active torsions:
REMARK  status: ('A' for Active; 'I' for Inactive)
REMARK    1  A    between atoms: C1_1  and  N1_2 
REMARK    2  A    between atoms: N1_2  and  C2_3 
REMARK    3  A    between atoms: N1_2  and  C3_4 
REMARK    4  A    between atoms: C4_5  and  C5_6 
ROOT
ATOM      1  C5  <0> d          -3.739  -1.500  -0.230  0.00  0.00     0.019 A 
ATOM      2  C6  <0> d          -4.837  -0.638  -0.296  0.00  0.00    -0.065 A 
ATOM      3  C7  <0> d          -6.112  -1.157  -0.375  0.00  0.00    -0.082 A 
ATOM      4  C8  <0> d          -6.307  -2.527  -0.389  0.00  0.00    -0.083 A 
ATOM      5  C9  <0> d          -5.224  -3.386  -0.325  0.00  0.00    -0.082 A 
ATOM      6  C10 <0> d          -3.942  -2.882  -0.251  0.00  0.00    -0.065 A 
ATOM      7  H7  <0> d          -4.686   0.431  -0.284  0.00  0.00     0.085 H 
ATOM      8  H8  <0> d          -6.962  -0.492  -0.425  0.00  0.00     0.083 H 
ATOM      9  H9  <0> d          -7.308  -2.927  -0.451  0.00  0.00     0.083 H 
ATOM     10  H10 <0> d          -5.383  -4.454  -0.336  0.00  0.00     0.083 H 
ATOM     11  H11 <0> d          -3.098  -3.554  -0.205  0.00  0.00     0.085 H 
ENDROOT
BRANCH   1  12
ATOM     12  C4  <0> d          -2.412  -0.969  -0.148  0.00  0.00    -0.050 C 
ATOM     13  C3  <0> d          -1.323  -0.534  -0.080  0.00  0.00    -0.013 C 
BRANCH  13  14
ATOM     14  N1  <0> d           0.002  -0.004   0.002  0.00  0.00    -0.252 NA
BRANCH  14  15
ATOM     15  C1  <0> d          -0.018   1.465   0.010  0.00  0.00    -0.022 C 
ATOM     16  H1  <0> d           1.005   1.842   0.002  0.00  0.00     0.049 H 
ATOM     17  H2  <0> d          -0.545   1.826  -0.873  0.00  0.00     0.049 H 
ATOM     18  H3  <0> d          -0.528   1.816   0.907  0.00  0.00     0.049 H 
ENDBRANCH  14  15
BRANCH  14  19
ATOM     19  C2  <0> d           0.706  -0.527   1.180  0.00  0.00    -0.022 C 
ATOM     20  H4  <0> d           0.162  -0.249   2.082  0.00  0.00     0.049 H 
ATOM     21  H5  <0> d           0.768  -1.614   1.114  0.00  0.00     0.049 H 
ATOM     22  H6  <0> d           1.712  -0.108   1.219  0.00  0.00     0.049 H 
ENDBRANCH  14  19
ENDBRANCH  13  14
ENDBRANCH   1  12
TORSDOF 4
