REMARK  0 active torsions:
REMARK  status: ('A' for Active; 'I' for Inactive)
ROOT
ATOM      1  C1  <0> d          -0.018   1.499   0.010  0.00  0.00    -0.050 C 
ATOM      2  C2  <0> d           1.419   2.019  -0.001  0.00  0.00    -0.056 C 
ATOM      3  C3  <0> d           2.182   1.409  -1.166  0.00  0.00    -0.025 C 
ATOM      4  H1  <0> d           3.178   1.845  -1.245  0.00  0.00     0.044 H 
ATOM      5  C4  <0> d           1.399   1.585  -2.484  0.00  0.00     0.024 C 
ATOM      6  O1  <0> d           1.837   0.505  -3.325  0.00  0.00    -0.390 OA
ATOM      7  C5  <0> d           2.339  -0.569  -2.522  0.00  0.00     0.026 C 
ATOM      8  C6  <0> d           2.265  -0.125  -1.033  0.00  0.00    -0.012 C 
ATOM      9  H2  <0> d           3.152  -0.427  -0.476  0.00  0.00     0.050 H 
ATOM     10  C7  <0> d           1.015  -0.696  -0.441  0.00  0.00    -0.100 C 
ATOM     11  C8  <0> d           0.002  -0.004   0.002  0.00  0.00    -0.106 C 
ATOM     12  H3  <0> d          -0.527   1.851   0.908  0.00  0.00     0.038 H 
ATOM     13  H4  <0> d          -0.544   1.861  -0.874  0.00  0.00     0.038 H 
ATOM     14  H5  <0> d           1.411   3.104  -0.102  0.00  0.00     0.034 H 
ATOM     15  H6  <0> d           1.910   1.748   0.934  0.00  0.00     0.034 H 
ATOM     16  H7  <0> d           0.327   1.511  -2.300  0.00  0.00     0.074 H 
ATOM     17  H8  <0> d           1.640   2.544  -2.942  0.00  0.00     0.074 H 
ATOM     18  H9  <0> d           1.733  -1.462  -2.677  0.00  0.00     0.075 H 
ATOM     19  H10 <0> d           3.377  -0.774  -2.786  0.00  0.00     0.075 H 
ATOM     20  H11 <0> d           0.939  -1.772  -0.394  0.00  0.00     0.077 H 
ATOM     21  H12 <0> d          -0.852  -0.534   0.398  0.00  0.00     0.076 H 
ENDROOT
TORSDOF 0
