REMARK  7 active torsions:
REMARK  status: ('A' for Active; 'I' for Inactive)
REMARK    1  A    between atoms: C1_1  and  C2_2 
REMARK    2  A    between atoms: C2_2  and  C3_3 
REMARK    3  A    between atoms: C3_3  and  C4_4 
REMARK    4  A    between atoms: C3_3  and  C6_6 
REMARK    5  A    between atoms: C4_4  and  C5_5 
REMARK    6  A    between atoms: C6_6  and  C7_7 
REMARK    7  A    between atoms: C7_7  and  O1_8 
ROOT
ATOM      1  C3  <0> d           0.103   0.908  -0.077  0.00  0.00    -0.053 C 
ATOM      2  H6  <0> d           0.079  -0.191  -0.036  0.00  0.00     0.040 H 
ENDROOT
BRANCH   1   3
ATOM      3  C2  <0> d           1.556   1.386  -0.114  0.00  0.00    -0.065 C 
ATOM      4  H4  <0> d           1.582   2.484  -0.049  0.00  0.00     0.033 H 
ATOM      5  H5  <0> d           2.025   1.063  -1.055  0.00  0.00     0.033 H 
BRANCH   3   6
ATOM      6  C1  <0> d           2.319   0.786   1.069  0.00  0.00    -0.076 C 
ATOM      7  H1  <0> d           3.364   1.130   1.043  0.00  0.00     0.027 H 
ATOM      8  H2  <0> d           2.293  -0.311   1.004  0.00  0.00     0.027 H 
ATOM      9  H3  <0> d           1.850   1.110   2.010  0.00  0.00     0.027 H 
ENDBRANCH   3   6
ENDBRANCH   1   3
BRANCH   1  10
ATOM     10  C4  <0> d          -0.624   1.387  -1.336  0.00  0.00    -0.065 C 
ATOM     11  H7  <0> d          -1.688   1.120  -1.269  0.00  0.00     0.033 H 
ATOM     12  H8  <0> d          -0.525   2.479  -1.423  0.00  0.00     0.033 H 
BRANCH  10  13
ATOM     13  C5  <0> d          -0.006   0.720  -2.566  0.00  0.00    -0.076 C 
ATOM     14  H9  <0> d          -0.528   1.065  -3.471  0.00  0.00     0.027 H 
ATOM     15  H10 <0> d          -0.105  -0.372  -2.479  0.00  0.00     0.027 H 
ATOM     16  H11 <0> d           1.059   0.987  -2.633  0.00  0.00     0.027 H 
ENDBRANCH  10  13
ENDBRANCH   1  10
BRANCH   1  17
ATOM     17  C6  <0> d          -0.591   1.479   1.161  0.00  0.00    -0.042 C 
ATOM     18  H12 <0> d          -0.018   1.209   2.060  0.00  0.00     0.036 H 
ATOM     19  H13 <0> d          -0.647   2.575   1.077  0.00  0.00     0.036 H 
BRANCH  17  20
ATOM     20  C7  <0> d          -2.005   0.903   1.265  0.00  0.00     0.017 C 
ATOM     21  H14 <0> d          -2.578   1.173   0.366  0.00  0.00     0.073 H 
ATOM     22  H15 <0> d          -1.949  -0.193   1.348  0.00  0.00     0.073 H 
BRANCH  20  23
ATOM     23  O1  <0> d          -2.653   1.436   2.421  0.00  0.00    -0.401 OA
ATOM     24  H16 <0> d          -3.683   1.135   2.662  0.00  0.00     0.209 HD
ENDBRANCH  20  23
ENDBRANCH  17  20
ENDBRANCH   1  17
TORSDOF 7
