REMARK  6 active torsions:
REMARK  status: ('A' for Active; 'I' for Inactive)
REMARK    1  A    between atoms: C1_1  and  C2_2 
REMARK    2  A    between atoms: C2_2  and  C3_3 
REMARK    3  A    between atoms: C3_3  and  C4_4 
REMARK    4  A    between atoms: C4_4  and  C5_6 
REMARK    5  A    between atoms: C4_4  and  O1_9 
REMARK    6  A    between atoms: C5_6  and  C6_7 
ROOT
ATOM      1  C6  <0> d          -2.816  -4.058  -0.239  0.00  0.00    -0.115 C 
ATOM      2  C7  <0> d          -2.794  -5.228  -0.342  0.00  0.00    -0.154 C 
ATOM      3  H11 <0> d          -2.775  -6.274  -0.434  0.00  0.00     0.166 H 
ENDROOT
BRANCH   1   4
ATOM      4  C5  <0> d          -2.844  -2.592  -0.110  0.00  0.00     0.014 C 
ATOM      5  H9  <0> d          -3.406  -2.317   0.782  0.00  0.00     0.055 H 
ATOM      6  H10 <0> d          -3.322  -2.159  -0.989  0.00  0.00     0.055 H 
BRANCH   4   7
ATOM      7  C4  <0> d          -1.413  -2.063   0.004  0.00  0.00     0.045 C 
ATOM      8  H1  <0> d          -0.826  -2.414  -0.845  0.00  0.00     0.084 H 
BRANCH   7   9
ATOM      9  C3  <0> d          -1.433  -0.534   0.013  0.00  0.00    -0.041 C 
ATOM     10  H7  <0> d          -1.944  -0.182   0.910  0.00  0.00     0.036 H 
ATOM     11  H8  <0> d          -1.960  -0.173  -0.870  0.00  0.00     0.036 H 
BRANCH   9  12
ATOM     12  C2  <0> d           0.002  -0.004   0.002  0.00  0.00    -0.066 C 
ATOM     13  H5  <0> d           0.512  -0.356  -0.895  0.00  0.00     0.032 H 
ATOM     14  H6  <0> d           0.529  -0.365   0.885  0.00  0.00     0.032 H 
BRANCH  12  15
ATOM     15  C1  <0> d          -0.019   1.526   0.010  0.00  0.00    -0.076 C 
ATOM     16  H2  <0> d           1.004   1.903   0.003  0.00  0.00     0.027 H 
ATOM     17  H3  <0> d          -0.546   1.887  -0.873  0.00  0.00     0.027 H 
ATOM     18  H4  <0> d          -0.529   1.877   0.907  0.00  0.00     0.027 H 
ENDBRANCH  12  15
ENDBRANCH   9  12
ENDBRANCH   7   9
BRANCH   7  19
ATOM     19  O1  <0> d          -0.825  -2.539   1.217  0.00  0.00    -0.395 OA
ATOM     20  H12 <0> d          -1.296  -2.264   2.016  0.00  0.00     0.210 HD
ENDBRANCH   7  19
ENDBRANCH   4   7
ENDBRANCH   1   4
TORSDOF 6
