REMARK  3 active torsions:
REMARK  status: ('A' for Active; 'I' for Inactive)
REMARK    1  A    between atoms: C3_5  and  C4_7 
REMARK    2  A    between atoms: C4_7  and  C5_8 
REMARK    3  A    between atoms: C5_8  and  O1_9 
ROOT
ATOM      1  C1  <0> d           0.311  -0.521   4.096  0.00  0.00     0.089 A 
ATOM      2  N1  <0> d           1.279   0.204   4.630  0.00  0.00    -0.235 NA
ATOM      3  C2  <0> d           1.608   1.367   4.093  0.00  0.00     0.089 A 
ATOM      4  N2  <0> d           0.968   1.805   3.022  0.00  0.00    -0.227 NA
ATOM      5  C3  <0> d           0.000   1.080   2.488  0.00  0.00     0.130 A 
ATOM      6  N3  <0> d          -0.332  -0.080   3.028  0.00  0.00    -0.227 NA
ATOM      7  H1  <0> d           0.042  -1.470   4.535  0.00  0.00     0.146 H 
ATOM      8  H2  <0> d           2.398   1.959   4.530  0.00  0.00     0.146 H 
ENDROOT
BRANCH   5   9
ATOM      9  C4  <0> d          -0.729   1.579   1.267  0.00  0.00     0.011 C 
ATOM     10  H3  <0> d          -0.744   2.669   1.273  0.00  0.00     0.047 H 
ATOM     11  H4  <0> d          -1.751   1.202   1.275  0.00  0.00     0.047 H 
BRANCH   9  12
ATOM     12  C5  <0> d          -0.013   1.086   0.008  0.00  0.00     0.023 C 
ATOM     13  H5  <0> d           0.002  -0.004   0.002  0.00  0.00     0.074 H 
ATOM     14  H6  <0> d           1.010   1.463   0.000  0.00  0.00     0.074 H 
BRANCH  12  15
ATOM     15  O1  <0> d          -0.704   1.559  -1.150  0.00  0.00    -0.400 OA
ATOM     16  H7  <0> d          -0.304   1.284  -1.986  0.00  0.00     0.209 HD
ENDBRANCH  12  15
ENDBRANCH   9  12
ENDBRANCH   5   9
TORSDOF 3
