REMARK  3 active torsions:
REMARK  status: ('A' for Active; 'I' for Inactive)
REMARK    1  A    between atoms: C1_1  and  C2_2 
REMARK    2  A    between atoms: C2_2  and  C3_3 
REMARK    3  A    between atoms: C5_6  and  N3_9 
ROOT
ATOM      1  C3  <0> d          -0.724   2.012   1.250  0.00  0.00    -0.022 A 
ATOM      2  C4  <0> d          -2.092   2.235   1.245  0.00  0.00     0.028 A 
ATOM      3  N1  <0> d          -2.681   2.657   2.352  0.00  0.00    -0.075 NA
ATOM      4  C5  <0> d          -1.977   2.876   3.453  0.00  0.00     0.719 A 
ATOM      5  N2  <0> d          -0.667   2.678   3.489  0.00  0.00    -0.075 NA
ATOM      6  C6  <0> d          -0.018   2.251   2.419  0.00  0.00     0.028 A 
ATOM      7  H6  <0> d          -2.671   2.062   0.350  0.00  0.00     0.116 H 
ATOM      8  H7  <0> d           1.049   2.091   2.455  0.00  0.00     0.116 H 
ENDROOT
BRANCH   1   9
ATOM      9  C2  <0> d          -0.019   1.526   0.010  0.00  0.00    -0.042 C 
ATOM     10  H4  <0> d           1.013   1.907   0.003  0.00  0.00     0.039 H 
ATOM     11  H5  <0> d          -0.551   1.890  -0.881  0.00  0.00     0.039 H 
BRANCH   9  12
ATOM     12  C1  <0> d           0.002  -0.004   0.002  0.00  0.00    -0.073 C 
ATOM     13  H1  <0> d           0.517  -0.359  -0.903  0.00  0.00     0.028 H 
ATOM     14  H2  <0> d          -1.030  -0.385   0.010  0.00  0.00     0.028 H 
ATOM     15  H3  <0> d           0.534  -0.368   0.893  0.00  0.00     0.028 H 
ENDBRANCH   9  12
ENDBRANCH   1   9
BRANCH   4  16
ATOM     16  N3  <0> d          -2.625   3.323   4.591  0.00  0.00    -0.231 N 
ATOM     17  H8  <0> d          -2.053   3.509   5.512  0.00  0.00     0.174 HD
ATOM     18  H9  <0> d          -3.712   3.492   4.575  0.00  0.00     0.174 HD
ENDBRANCH   4  16
TORSDOF 3
