REMARK  3 active torsions:
REMARK  status: ('A' for Active; 'I' for Inactive)
REMARK    1  A    between atoms: C1_1  and  C2_2 
REMARK    2  A    between atoms: C4_5  and  C7_9 
REMARK    3  A    between atoms: C5_6  and  C6_8 
ROOT
ATOM      1  C2  <0> d          -0.017   1.380   0.010  0.00  0.00     0.048 A 
ATOM      2  C3  <0> d           0.002  -0.004   0.002  0.00  0.00     0.026 A 
ATOM      3  N1  <0> d           1.155  -0.649  -0.013  0.00  0.00    -0.262 NA
ATOM      4  C4  <0> d           2.291   0.027  -0.020  0.00  0.00     0.054 A 
ATOM      5  C5  <0> d           2.272   1.411  -0.012  0.00  0.00     0.055 A 
ATOM      6  N2  <0> d           1.118   2.056   0.002  0.00  0.00    -0.255 NA
ATOM      7  H4  <0> d          -0.926  -0.557   0.008  0.00  0.00     0.117 H 
ENDROOT
BRANCH   1   8
ATOM      8  C1  <0> d          -1.332   2.115   0.020  0.00  0.00    -0.034 C 
ATOM      9  H1  <0> d          -1.644   2.287   1.050  0.00  0.00     0.035 H 
ATOM     10  H2  <0> d          -1.217   3.072  -0.489  0.00  0.00     0.035 H 
ATOM     11  H3  <0> d          -2.086   1.519  -0.494  0.00  0.00     0.035 H 
ENDBRANCH   1   8
BRANCH   5  12
ATOM     12  C6  <0> d           3.566   2.182  -0.020  0.00  0.00    -0.034 C 
ATOM     13  H5  <0> d           3.869   2.373  -1.050  0.00  0.00     0.035 H 
ATOM     14  H6  <0> d           3.428   3.130   0.500  0.00  0.00     0.035 H 
ATOM     15  H7  <0> d           4.339   1.600   0.483  0.00  0.00     0.035 H 
ENDBRANCH   5  12
BRANCH   4  16
ATOM     16  C7  <0> d           3.606  -0.708  -0.036  0.00  0.00    -0.034 C 
ATOM     17  H8  <0> d           3.913  -0.880  -1.067  0.00  0.00     0.035 H 
ATOM     18  H9  <0> d           4.362  -0.112   0.474  0.00  0.00     0.035 H 
ATOM     19  H10 <0> d           3.493  -1.665   0.474  0.00  0.00     0.035 H 
ENDBRANCH   4  16
TORSDOF 3
