REMARK  3 active torsions:
REMARK  status: ('A' for Active; 'I' for Inactive)
REMARK    1  A    between atoms: N1_4  and  C5_6 
REMARK    2  A    between atoms: C5_6  and  C6_7 
REMARK    3  A    between atoms: C6_7  and  O1_8 
ROOT
ATOM      1  C1  <0> d           0.587  -0.176   4.140  0.00  0.00    -0.067 A 
ATOM      2  C2  <0> d           1.385   0.985   4.139  0.00  0.00    -0.067 A 
ATOM      3  C3  <0> d           0.991   1.744   3.096  0.00  0.00    -0.021 A 
ATOM      4  N1  <0> d          -0.020   1.094   2.454  0.00  0.00    -0.364 N 
ATOM      5  C4  <0> d          -0.267  -0.080   3.102  0.00  0.00    -0.021 A 
ATOM      6  H1  <0> d           0.646  -0.991   4.846  0.00  0.00     0.085 H 
ATOM      7  H2  <0> d           2.168   1.224   4.843  0.00  0.00     0.085 H 
ATOM      8  H3  <0> d           1.406   2.702   2.818  0.00  0.00     0.111 H 
ATOM      9  H4  <0> d          -1.017  -0.808   2.829  0.00  0.00     0.111 H 
ENDROOT
BRANCH   4  10
ATOM     10  C5  <0> d          -0.729   1.579   1.267  0.00  0.00     0.018 C 
ATOM     11  H5  <0> d          -0.744   2.669   1.273  0.00  0.00     0.068 H 
ATOM     12  H6  <0> d          -1.751   1.202   1.275  0.00  0.00     0.068 H 
BRANCH  10  13
ATOM     13  C6  <0> d          -0.013   1.086   0.008  0.00  0.00     0.032 C 
ATOM     14  H7  <0> d           0.002  -0.004   0.002  0.00  0.00     0.076 H 
ATOM     15  H8  <0> d           1.010   1.463   0.000  0.00  0.00     0.076 H 
BRANCH  13  16
ATOM     16  O1  <0> d          -0.704   1.559  -1.150  0.00  0.00    -0.399 OA
ATOM     17  H9  <0> d          -0.304   1.284  -1.986  0.00  0.00     0.209 HD
ENDBRANCH  13  16
ENDBRANCH  10  13
ENDBRANCH   4  10
TORSDOF 3
