REMARK  3 active torsions:
REMARK  status: ('A' for Active; 'I' for Inactive)
REMARK    1  A    between atoms: C1_1  and  C2_2 
REMARK    2  A    between atoms: C1_1  and  O3_10 
REMARK    3  A    between atoms: C3_4  and  C4_7 
REMARK       I    between atoms: C4_7  and  N3_9 
ROOT
ATOM      1  C2  <0> d           0.002  -0.004   0.002  0.00  0.00     0.196 A 
ATOM      2  N1  <0> d           0.017  -0.771   1.054  0.00  0.00    -0.198 NA
ATOM      3  C3  <0> d           0.032  -2.063   0.682  0.00  0.00     0.246 A 
ATOM      4  N2  <0> d           0.027  -2.123  -0.625  0.00  0.00    -0.100 NA
ATOM      5  O1  <0> d           0.002  -0.781  -1.089  0.00  0.00    -0.193 OA
ENDROOT
BRANCH   1   6
ATOM      6  C1  <0> d          -0.018   1.503   0.010  0.00  0.00     0.080 C 
ATOM      7  H1  <0> d          -0.545   1.864  -0.873  0.00  0.00     0.086 H 
ATOM      8  H2  <0> d          -0.529   1.854   0.907  0.00  0.00     0.086 H 
BRANCH   6   9
ATOM      9  O3  <0> d           1.322   1.997   0.000  0.00  0.00    -0.393 OA
ATOM     10  H5  <0> d           1.385   2.962   0.005  0.00  0.00     0.210 HD
ENDBRANCH   6   9
ENDBRANCH   1   6
BRANCH   3  11
ATOM     11  C4  <0> d           0.052  -3.229   1.602  0.00  0.00     0.289 C 
ATOM     12  O2  <0> d           0.057  -3.054   2.804  0.00  0.00    -0.264 OA
ATOM     13  N3  <0> d           0.066  -4.481   1.103  0.00  0.00    -0.363 N 
ATOM     14  H3  <0> d           0.063  -4.620   0.143  0.00  0.00     0.159 HD
ATOM     15  H4  <0> d           0.080  -5.242   1.704  0.00  0.00     0.159 HD
ENDBRANCH   3  11
TORSDOF 3
