REMARK  4 active torsions:
REMARK  status: ('A' for Active; 'I' for Inactive)
REMARK    1  A    between atoms: C1_1  and  C2_2 
REMARK    2  A    between atoms: C6_7  and  C7_8 
REMARK    3  A    between atoms: C6_7  and  C8_9 
REMARK    4  A    between atoms: C10_11  and  O1_13 
ROOT
ATOM      1  C2  <0> d           0.002  -0.004   0.002  0.00  0.00    -0.011 C 
ATOM      2  C3  <0> d           0.744  -0.669  -1.197  0.00  0.00    -0.055 C 
ATOM      3  C4  <0> d           1.062  -2.103  -0.714  0.00  0.00    -0.060 C 
ATOM      4  C5  <0> d           0.481  -2.169   0.732  0.00  0.00    -0.044 C 
ATOM      5  H1  <0> d           0.882  -2.956   1.371  0.00  0.00     0.041 H 
ATOM      6  C6  <0> d           0.727  -0.695   1.211  0.00  0.00    -0.034 C 
ATOM      7  C9  <0> d          -1.065  -2.175   0.532  0.00  0.00    -0.036 C 
ATOM      8  C10 <0> d          -1.389  -0.705   0.062  0.00  0.00     0.043 C 
ATOM      9  H2  <0> d          -1.845  -0.731  -0.928  0.00  0.00     0.084 H 
ATOM     10  H6  <0> d           0.099  -0.698  -2.075  0.00  0.00     0.034 H 
ATOM     11  H7  <0> d           1.665  -0.131  -1.420  0.00  0.00     0.034 H 
ATOM     12  H8  <0> d           0.572  -2.837  -1.354  0.00  0.00     0.033 H 
ATOM     13  H9  <0> d           2.139  -2.269  -0.699  0.00  0.00     0.033 H 
ATOM     14  H16 <0> d          -1.348  -2.912  -0.220  0.00  0.00     0.037 H 
ATOM     15  H17 <0> d          -1.570  -2.380   1.476  0.00  0.00     0.037 H 
ENDROOT
BRANCH   6  16
ATOM     16  C7  <0> d           0.031  -0.400   2.541  0.00  0.00    -0.068 C 
ATOM     17  H10 <0> d          -0.994  -0.768   2.505  0.00  0.00     0.028 H 
ATOM     18  H11 <0> d           0.567  -0.898   3.349  0.00  0.00     0.028 H 
ATOM     19  H12 <0> d           0.025   0.676   2.718  0.00  0.00     0.028 H 
ENDBRANCH   6  16
BRANCH   6  20
ATOM     20  C8  <0> d           2.216  -0.348   1.260  0.00  0.00    -0.068 C 
ATOM     21  H13 <0> d           2.335   0.731   1.364  0.00  0.00     0.028 H 
ATOM     22  H14 <0> d           2.677  -0.848   2.113  0.00  0.00     0.028 H 
ATOM     23  H15 <0> d           2.698  -0.680   0.341  0.00  0.00     0.028 H 
ENDBRANCH   6  20
BRANCH   1  24
ATOM     24  C1  <0> d          -0.019   1.526   0.010  0.00  0.00    -0.066 C 
ATOM     25  H3  <0> d           1.004   1.903   0.003  0.00  0.00     0.028 H 
ATOM     26  H4  <0> d          -0.546   1.887  -0.873  0.00  0.00     0.028 H 
ATOM     27  H5  <0> d          -0.529   1.877   0.907  0.00  0.00     0.028 H 
ENDBRANCH   1  24
BRANCH   8  28
ATOM     28  O1  <0> d          -2.246  -0.034   0.988  0.00  0.00    -0.395 OA
ATOM     29  H18 <0> d          -3.126  -0.427   1.066  0.00  0.00     0.210 HD
ENDBRANCH   8  28
TORSDOF 4
