REMARK  2 active torsions:
REMARK  status: ('A' for Active; 'I' for Inactive)
REMARK    1  A    between atoms: C3_3  and  C6_8 
REMARK    2  A    between atoms: C5_6  and  N2_7 
REMARK       I    between atoms: C6_8  and  N3_10 
ROOT
ATOM      1  C1  <0> d          -2.428   0.940   0.019  0.00  0.00    -0.054 A 
ATOM      2  C2  <0> d          -3.610   1.656   0.029  0.00  0.00    -0.048 A 
ATOM      3  C3  <0> d          -3.561   3.050   0.036  0.00  0.00     0.123 A 
ATOM      4  N1  <0> d          -2.395   3.688   0.034  0.00  0.00    -0.253 NA
ATOM      5  C4  <0> d          -1.254   3.039   0.030  0.00  0.00     0.028 A 
ATOM      6  C5  <0> d          -1.225   1.645   0.017  0.00  0.00     0.043 A 
ATOM      7  H1  <0> d          -2.435  -0.140   0.013  0.00  0.00     0.087 H 
ATOM      8  H2  <0> d          -4.560   1.142   0.030  0.00  0.00     0.087 H 
ATOM      9  H3  <0> d          -0.326   3.592   0.033  0.00  0.00     0.118 H 
ENDROOT
BRANCH   3  10
ATOM     10  C6  <0> d          -4.819   3.826   0.048  0.00  0.00     0.268 C 
ATOM     11  O1  <0> d          -5.889   3.249   0.050  0.00  0.00    -0.266 OA
ATOM     12  N3  <0> d          -4.779   5.173   0.055  0.00  0.00    -0.365 N 
ATOM     13  H6  <0> d          -5.716   5.751   0.064  0.00  0.00     0.159 HD
ATOM     14  H7  <0> d          -3.811   5.695   0.053  0.00  0.00     0.159 HD
ENDBRANCH   3  10
BRANCH   6  15
ATOM     15  N2  <0> d          -0.011   0.966   0.007  0.00  0.00    -0.398 N 
ATOM     16  H4  <0> d           0.934   1.529   0.006  0.00  0.00     0.156 HD
ATOM     17  H5  <0> d           0.004  -0.134   0.001  0.00  0.00     0.156 HD
ENDBRANCH   6  15
TORSDOF 2
