REMARK  0 active torsions:
REMARK  status: ('A' for Active; 'I' for Inactive)
ROOT
ATOM      1  C1  <0> d           3.415   2.234  -0.018  0.00  0.00    -0.053 A 
ATOM      2  C2  <0> d           2.780   3.436  -0.006  0.00  0.00    -0.020 A 
ATOM      3  N1  <0> d           1.457   3.279   0.006  0.00  0.00    -0.350 N 
ATOM      4  C3  <0> d           1.134   1.996   0.002  0.00  0.00     0.140 A 
ATOM      5  N2  <0> d          -0.016   1.299   0.009  0.00  0.00    -0.224 NA
ATOM      6  C4  <0> d           0.002  -0.004   0.002  0.00  0.00     0.088 A 
ATOM      7  N3  <0> d           1.147  -0.728  -0.014  0.00  0.00    -0.253 NA
ATOM      8  H1  <0> d           0.668   4.045   0.018  0.00  0.00     0.166 HD
ATOM      9  C5  <0> d           2.355  -0.132  -0.022  0.00  0.00     0.017 A 
ATOM     10  C6  <0> d           2.405   1.247  -0.014  0.00  0.00     0.029 A 
ATOM     11  H2  <0> d           4.414   2.197  -0.028  0.00  0.00     0.087 H 
ATOM     12  H3  <0> d           3.313   4.282  -0.007  0.00  0.00     0.111 H 
ATOM     13  H4  <0> d          -0.857  -0.516   0.007  0.00  0.00     0.146 H 
ATOM     14  H5  <0> d           3.187  -0.687  -0.033  0.00  0.00     0.116 H 
ENDROOT
TORSDOF 0
