REMARK  6 active torsions:
REMARK  status: ('A' for Active; 'I' for Inactive)
REMARK    1  A    between atoms: C1_1  and  N1_2 
REMARK    2  A    between atoms: N1_2  and  C2_3 
REMARK    3  A    between atoms: N1_2  and  C4_6 
REMARK    4  A    between atoms: C2_3  and  C3_4 
REMARK    5  A    between atoms: C3_4  and  O1_5 
REMARK    6  A    between atoms: C4_6  and  C5_7 
ROOT
ATOM      1  N1  <0> d           0.053  -0.674   0.010  0.00  0.00     0.095 N 
ENDROOT
BRANCH   1   2
ATOM      2  C1  <0> d           0.097   0.704  -0.496  0.00  0.00     0.096 C 
ATOM      3  H1  <0> d           1.134   1.027  -0.584  0.00  0.00     0.071 H 
ATOM      4  H2  <0> d          -0.381   0.748  -1.475  0.00  0.00     0.071 H 
ATOM      5  H3  <0> d          -0.431   1.362   0.195  0.00  0.00     0.071 H 
ENDBRANCH   1   2
BRANCH   1   6
ATOM      6  C2  <0> d           0.846  -0.809   1.239  0.00  0.00     0.132 C 
ATOM      7  H4  <0> d           1.803  -0.303   1.111  0.00  0.00     0.083 H 
ATOM      8  H5  <0> d           0.305  -0.359   2.071  0.00  0.00     0.083 H 
BRANCH   6   9
ATOM      9  C3  <0> d           1.088  -2.292   1.529  0.00  0.00     0.042 C 
ATOM     10  H6  <0> d           1.585  -2.397   2.494  0.00  0.00     0.076 H 
ATOM     11  H7  <0> d           0.133  -2.818   1.553  0.00  0.00     0.076 H 
BRANCH   9  12
ATOM     12  O1  <0> d           1.913  -2.850   0.505  0.00  0.00    -0.399 OA
ATOM     13  H8  <0> d           2.108  -3.789   0.625  0.00  0.00     0.209 HD
ENDBRANCH   9  12
ENDBRANCH   6   9
ENDBRANCH   1   6
BRANCH   1  14
ATOM     14  C4  <0> d          -1.333  -1.112   0.226  0.00  0.00     0.201 C 
ATOM     15  H9  <0> d          -1.337  -2.013   0.840  0.00  0.00     0.093 H 
ATOM     16  H10 <0> d          -1.887  -0.324   0.735  0.00  0.00     0.093 H 
BRANCH  14  17
ATOM     17  C5  <0> d          -1.990  -1.410  -1.123  0.00  0.00     0.413 C 
ATOM     18  F1  <0> d          -1.203  -2.323  -1.834  0.00  0.00    -0.169 F 
ATOM     19  F2  <0> d          -3.261  -1.955  -0.912  0.00  0.00    -0.169 F 
ATOM     20  F3  <0> d          -2.107  -0.224  -1.857  0.00  0.00    -0.169 F 
ENDBRANCH  14  17
ENDBRANCH   1  14
TORSDOF 6
