REMARK  1 active torsions:
REMARK  status: ('A' for Active; 'I' for Inactive)
REMARK    1  A    between atoms: C1_1  and  C2_2 
ROOT
ATOM      1  C2  <0> d           1.102   2.019   0.002  0.00  0.00     0.122 A 
ATOM      2  N1  <0> d           2.282   1.431  -0.010  0.00  0.00    -0.245 NA
ATOM      3  C3  <0> d           2.377   0.113  -0.018  0.00  0.00     0.012 A 
ATOM      4  C4  <0> d           1.217  -0.653  -0.015  0.00  0.00    -0.016 A 
ATOM      5  C5  <0> d           0.002  -0.004   0.002  0.00  0.00     0.044 A 
ATOM      6  N2  <0> d          -0.016   1.325   0.009  0.00  0.00    -0.238 NA
ATOM      7  C6  <0> d          -1.310  -0.741   0.017  0.00  0.00    -0.024 C 
ATOM      8  C7  <0> d          -1.113  -2.190  -0.424  0.00  0.00    -0.060 C 
ATOM      9  C8  <0> d           0.026  -2.800   0.402  0.00  0.00    -0.061 C 
ATOM     10  C9  <0> d           1.340  -2.151  -0.032  0.00  0.00    -0.038 C 
ATOM     11  H4  <0> d           3.346  -0.364  -0.029  0.00  0.00     0.115 H 
ATOM     12  H5  <0> d          -1.721  -0.723   1.026  0.00  0.00     0.042 H 
ATOM     13  H6  <0> d          -2.007  -0.249  -0.662  0.00  0.00     0.042 H 
ATOM     14  H7  <0> d          -2.031  -2.753  -0.253  0.00  0.00     0.033 H 
ATOM     15  H8  <0> d          -0.857  -2.220  -1.483  0.00  0.00     0.033 H 
ATOM     16  H9  <0> d          -0.146  -2.607   1.461  0.00  0.00     0.033 H 
ATOM     17  H10 <0> d           0.070  -3.875   0.229  0.00  0.00     0.033 H 
ATOM     18  H11 <0> d           2.135  -2.456   0.649  0.00  0.00     0.040 H 
ATOM     19  H12 <0> d           1.589  -2.481  -1.041  0.00  0.00     0.040 H 
ENDROOT
BRANCH   1  20
ATOM     20  C1  <0> d           1.032   3.524   0.009  0.00  0.00    -0.019 C 
ATOM     21  H1  <0> d           1.024   3.883   1.038  0.00  0.00     0.037 H 
ATOM     22  H2  <0> d           1.899   3.931  -0.511  0.00  0.00     0.037 H 
ATOM     23  H3  <0> d           0.121   3.848  -0.496  0.00  0.00     0.037 H 
ENDBRANCH   1  20
TORSDOF 1
