REMARK  3 active torsions:
REMARK  status: ('A' for Active; 'I' for Inactive)
REMARK    1  A    between atoms: C1_1  and  C2_2 
REMARK    2  A    between atoms: C5_6  and  O3_11 
REMARK    3  A    between atoms: C6_7  and  C7_8 
ROOT
ATOM      1  C2  <0> d          -0.001  -0.004   0.002  0.00  0.00    -0.039 A 
ATOM      2  C3  <0> d          -0.100  -0.708  -1.184  0.00  0.00    -0.059 A 
ATOM      3  C4  <0> d          -0.075  -2.091  -1.160  0.00  0.00     0.005 A 
ATOM      4  N1  <0> d           0.042  -2.753  -0.025  0.00  0.00    -0.236 NA
ATOM      5  C5  <0> d           0.141  -2.131   1.138  0.00  0.00     0.179 A 
ATOM      6  C6  <0> d           0.128  -0.727   1.196  0.00  0.00     0.099 A 
ATOM      7  H4  <0> d          -0.197  -0.182  -2.122  0.00  0.00     0.086 H 
ATOM      8  H5  <0> d          -0.153  -2.639  -2.087  0.00  0.00     0.114 H 
ENDROOT
BRANCH   1   9
ATOM      9  C1  <0> d          -0.025   1.503   0.011  0.00  0.00    -0.050 C 
ATOM     10  H1  <0> d           0.997   1.882   0.008  0.00  0.00     0.033 H 
ATOM     11  H2  <0> d          -0.549   1.863  -0.874  0.00  0.00     0.033 H 
ATOM     12  H3  <0> d          -0.539   1.853   0.906  0.00  0.00     0.033 H 
ENDBRANCH   1   9
BRANCH   6  13
ATOM     13  C7  <0> d           0.243  -0.029   2.486  0.00  0.00     0.214 C 
ATOM     14  O1  <0> d          -0.754   0.164   3.168  0.00  0.00    -0.644 OA
ATOM     15  O2  <0> d           1.336   0.357   2.877  0.00  0.00    -0.644 OA
ENDBRANCH   6  13
BRANCH   5  16
ATOM     16  O3  <0> d           0.259  -2.850   2.278  0.00  0.00    -0.344 OA
ATOM     17  H6  <0> d           1.173  -3.045   2.527  0.00  0.00     0.219 HD
ENDBRANCH   5  16
TORSDOF 3
