REMARK  0 active torsions:
REMARK  status: ('A' for Active; 'I' for Inactive)
ROOT
ATOM      1  C1  <0> d           1.160   2.039   0.002  0.00  0.00    -0.029 A 
ATOM      2  C2  <0> d          -0.016   1.315   0.009  0.00  0.00     0.008 A 
ATOM      3  N1  <0> d           0.002  -0.004   0.002  0.00  0.00    -0.233 NA
ATOM      4  C3  <0> d           1.135  -0.684  -0.013  0.00  0.00     0.212 A 
ATOM      5  C4  <0> d           2.353  -0.028  -0.020  0.00  0.00     0.010 A 
ATOM      6  C5  <0> d           2.373   1.360  -0.013  0.00  0.00     0.122 A 
ATOM      7  F1  <0> d           3.543   2.036  -0.020  0.00  0.00    -0.206 F 
ATOM      8  F2  <0> d           1.103  -2.034  -0.019  0.00  0.00    -0.184 F 
ATOM      9  H1  <0> d           1.137   3.118   0.008  0.00  0.00     0.090 H 
ATOM     10  H2  <0> d          -0.962   1.836   0.017  0.00  0.00     0.115 H 
ATOM     11  H3  <0> d           3.276  -0.588  -0.032  0.00  0.00     0.095 H 
ENDROOT
TORSDOF 0
