REMARK  2 active torsions:
REMARK  status: ('A' for Active; 'I' for Inactive)
REMARK    1  A    between atoms: C1_1  and  C2_2 
REMARK    2  A    between atoms: C6_10  and  C7_11 
ROOT
ATOM      1  C2  <0> d           1.803   3.025   0.001  0.00  0.00     0.004 A 
ATOM      2  C3  <0> d           3.159   3.121  -0.011  0.00  0.00     0.013 A 
ATOM      3  N1  <0> d           3.918   2.020  -0.025  0.00  0.00    -0.255 NA
ATOM      4  C4  <0> d           3.401   0.823  -0.026  0.00  0.00     0.073 A 
ATOM      5  N2  <0> d           2.054   0.643  -0.014  0.00  0.00    -0.275 N 
ATOM      6  C5  <0> d           1.221   1.740  -0.000  0.00  0.00     0.166 A 
ATOM      7  N3  <0> d          -0.015   1.283   0.009  0.00  0.00    -0.129 NA
ATOM      8  N4  <0> d           0.002  -0.004   0.002  0.00  0.00    -0.135 NA
ATOM      9  C6  <0> d           1.234  -0.442  -0.012  0.00  0.00     0.131 A 
ATOM     10  H4  <0> d           3.627   4.094  -0.010  0.00  0.00     0.115 H 
ATOM     11  H5  <0> d           4.052  -0.038  -0.037  0.00  0.00     0.144 H 
ENDROOT
BRANCH   1  12
ATOM     12  C1  <0> d           0.942   4.262   0.016  0.00  0.00    -0.046 C 
ATOM     13  H1  <0> d           0.725   4.566  -1.008  0.00  0.00     0.033 H 
ATOM     14  H2  <0> d           0.009   4.049   0.538  0.00  0.00     0.033 H 
ATOM     15  H3  <0> d           1.470   5.066   0.530  0.00  0.00     0.033 H 
ENDBRANCH   1  12
BRANCH   9  16
ATOM     16  C7  <0> d           1.667  -1.886  -0.024  0.00  0.00    -0.019 C 
ATOM     17  H6  <0> d           1.762  -2.228  -1.054  0.00  0.00     0.037 H 
ATOM     18  H7  <0> d           2.629  -1.981   0.481  0.00  0.00     0.037 H 
ATOM     19  H8  <0> d           0.924  -2.492   0.494  0.00  0.00     0.037 H 
ENDBRANCH   9  16
TORSDOF 2
