REMARK  5 active torsions:
REMARK  status: ('A' for Active; 'I' for Inactive)
REMARK    1  A    between atoms: C1_1  and  C2_2 
REMARK    2  A    between atoms: C2_2  and  O1_3 
REMARK    3  A    between atoms: O1_3  and  C3_4 
REMARK    4  A    between atoms: C4_6  and  C7_12 
REMARK    5  A    between atoms: C5_8  and  C6_11 
ROOT
ATOM      1  C3  <0> d           1.351   1.876  -0.001  0.00  0.00     0.234 C 
ATOM      2  O2  <0> d          -0.017   1.435   0.010  0.00  0.00    -0.331 OA
ATOM      3  C4  <0> d           0.002  -0.004   0.002  0.00  0.00     0.065 C 
ATOM      4  H1  <0> d          -0.506  -0.394   0.884  0.00  0.00     0.086 H 
ATOM      5  C5  <0> d           1.498  -0.386   0.030  0.00  0.00     0.065 C 
ATOM      6  H2  <0> d           1.864  -0.588  -0.977  0.00  0.00     0.086 H 
ATOM      7  O3  <0> d           2.125   0.801   0.574  0.00  0.00    -0.331 OA
ATOM      8  H8  <0> d           1.675   2.066  -1.024  0.00  0.00     0.179 H 
ENDROOT
BRANCH   1   9
ATOM      9  O1  <0> d           1.492   3.059   0.788  0.00  0.00    -0.339 OA
BRANCH   9  10
ATOM     10  C2  <0> d           1.122   2.892   2.158  0.00  0.00     0.021 C 
ATOM     11  H6  <0> d           0.077   2.588   2.218  0.00  0.00     0.074 H 
ATOM     12  H7  <0> d           1.750   2.126   2.613  0.00  0.00     0.074 H 
BRANCH  10  13
ATOM     13  C1  <0> d           1.312   4.215   2.903  0.00  0.00    -0.056 C 
ATOM     14  H3  <0> d           2.357   4.519   2.843  0.00  0.00     0.030 H 
ATOM     15  H4  <0> d           0.684   4.981   2.449  0.00  0.00     0.030 H 
ATOM     16  H5  <0> d           1.030   4.087   3.948  0.00  0.00     0.030 H 
ENDBRANCH  10  13
ENDBRANCH   9  10
ENDBRANCH   1   9
BRANCH   5  17
ATOM     17  C6  <0> d           1.733  -1.589   0.945  0.00  0.00    -0.050 C 
ATOM     18  H9  <0> d           1.159  -2.441   0.580  0.00  0.00     0.031 H 
ATOM     19  H10 <0> d           2.794  -1.841   0.950  0.00  0.00     0.031 H 
ATOM     20  H11 <0> d           1.413  -1.344   1.958  0.00  0.00     0.031 H 
ENDBRANCH   5  17
BRANCH   3  21
ATOM     21  C7  <0> d          -0.658  -0.537  -1.271  0.00  0.00    -0.050 C 
ATOM     22  H12 <0> d          -0.133  -0.149  -2.143  0.00  0.00     0.031 H 
ATOM     23  H13 <0> d          -0.613  -1.626  -1.275  0.00  0.00     0.031 H 
ATOM     24  H14 <0> d          -1.700  -0.217  -1.301  0.00  0.00     0.031 H 
ENDBRANCH   3  21
TORSDOF 5
