REMARK  2 active torsions:
REMARK  status: ('A' for Active; 'I' for Inactive)
REMARK    1  A    between atoms: C1_1  and  C2_2 
REMARK    2  A    between atoms: C6_6  and  C8_9 
ROOT
ATOM      1  C2  <0> d           2.518   5.103   0.005  0.00  0.00    -0.022 A 
ATOM      2  C3  <0> d           1.345   5.835   0.021  0.00  0.00    -0.074 A 
ATOM      3  C4  <0> d           0.119   5.191   0.029  0.00  0.00    -0.081 A 
ATOM      4  C5  <0> d           0.059   3.813   0.022  0.00  0.00    -0.063 A 
ATOM      5  C6  <0> d           1.238   3.065   0.007  0.00  0.00     0.079 A 
ATOM      6  C7  <0> d           2.474   3.721   0.004  0.00  0.00     0.139 A 
ATOM      7  F1  <0> d           3.621   3.006  -0.004  0.00  0.00    -0.204 F 
ATOM      8  H4  <0> d           1.385   6.914   0.026  0.00  0.00     0.084 H 
ATOM      9  H5  <0> d          -0.792   5.770   0.040  0.00  0.00     0.083 H 
ATOM     10  H6  <0> d          -0.899   3.314   0.028  0.00  0.00     0.085 H 
ENDROOT
BRANCH   1  11
ATOM     11  C1  <0> d           3.847   5.813  -0.004  0.00  0.00    -0.048 C 
ATOM     12  H1  <0> d           4.178   5.979   1.022  0.00  0.00     0.033 H 
ATOM     13  H2  <0> d           4.582   5.202  -0.528  0.00  0.00     0.033 H 
ATOM     14  H3  <0> d           3.743   6.772  -0.511  0.00  0.00     0.033 H 
ENDBRANCH   1  11
BRANCH   5  15
ATOM     15  C8  <0> d           1.181   1.591  -0.001  0.00  0.00     0.212 C 
ATOM     16  O1  <0> d           2.209   0.943  -0.014  0.00  0.00    -0.644 OA
ATOM     17  O2  <0> d          -0.011   0.963   0.007  0.00  0.00    -0.644 OA
ENDBRANCH   5  15
TORSDOF 2
