REMARK  3 active torsions:
REMARK  status: ('A' for Active; 'I' for Inactive)
REMARK    1  A    between atoms: C1_1  and  C2_2 
REMARK    2  A    between atoms: C5_5  and  O1_9 
REMARK    3  A    between atoms: C6_6  and  C8_8 
ROOT
ATOM      1  C2  <0> d           0.002  -0.004   0.002  0.00  0.00    -0.061 A 
ATOM      2  C3  <0> d           0.006  -0.688  -1.200  0.00  0.00    -0.075 A 
ATOM      3  C4  <0> d           0.024  -2.069  -1.210  0.00  0.00    -0.050 A 
ATOM      4  C5  <0> d           0.039  -2.770  -0.013  0.00  0.00     0.071 A 
ATOM      5  C6  <0> d           0.036  -2.082   1.191  0.00  0.00    -0.028 A 
ATOM      6  C7  <0> d           0.023  -0.701   1.196  0.00  0.00    -0.069 A 
ATOM      7  H4  <0> d          -0.006  -0.141  -2.131  0.00  0.00     0.084 H 
ATOM      8  H5  <0> d           0.026  -2.602  -2.149  0.00  0.00     0.087 H 
ATOM      9  H6  <0> d           0.025  -0.164   2.134  0.00  0.00     0.085 H 
ENDROOT
BRANCH   1  10
ATOM     10  C1  <0> d          -0.018   1.503   0.010  0.00  0.00    -0.051 C 
ATOM     11  H1  <0> d           1.004   1.880   0.003  0.00  0.00     0.033 H 
ATOM     12  H2  <0> d          -0.545   1.864  -0.873  0.00  0.00     0.033 H 
ATOM     13  H3  <0> d          -0.529   1.854   0.907  0.00  0.00     0.033 H 
ENDBRANCH   1  10
BRANCH   5  14
ATOM     14  C8  <0> d           0.052  -2.841   2.493  0.00  0.00    -0.049 C 
ATOM     15  H7  <0> d           1.084  -3.010   2.802  0.00  0.00     0.033 H 
ATOM     16  H8  <0> d          -0.466  -2.261   3.258  0.00  0.00     0.033 H 
ATOM     17  H9  <0> d          -0.450  -3.799   2.361  0.00  0.00     0.033 H 
ENDBRANCH   5  14
BRANCH   4  18
ATOM     18  O1  <0> d           0.057  -4.129  -0.021  0.00  0.00    -0.360 OA
ATOM     19  H10 <0> d           0.945  -4.511  -0.027  0.00  0.00     0.217 HD
ENDBRANCH   4  18
TORSDOF 3
