REMARK  4 active torsions:
REMARK  status: ('A' for Active; 'I' for Inactive)
REMARK    1  A    between atoms: C1_1  and  C2_2 
REMARK    2  A    between atoms: C2_2  and  C3_3 
REMARK    3  A    between atoms: C2_2  and  C4_4 
REMARK    4  A    between atoms: C2_2  and  O1_10 
ROOT
ATOM      1  C2  <0> d           2.367   4.004   0.001  0.00  0.00     0.079 C 
ENDROOT
BRANCH   1   2
ATOM      2  C1  <0> d           2.103   5.332  -0.711  0.00  0.00    -0.044 C 
ATOM      3  H1  <0> d           1.787   5.137  -1.747  0.00  0.00     0.032 H 
ATOM      4  H2  <0> d           3.024   5.934  -0.717  0.00  0.00     0.032 H 
ATOM      5  H3  <0> d           1.310   5.880  -0.183  0.00  0.00     0.032 H 
ENDBRANCH   1   2
BRANCH   1   6
ATOM      6  C3  <0> d           2.807   4.276   1.441  0.00  0.00    -0.044 C 
ATOM      7  H4  <0> d           2.996   3.321   1.953  0.00  0.00     0.032 H 
ATOM      8  H5  <0> d           2.013   4.824   1.969  0.00  0.00     0.032 H 
ATOM      9  H6  <0> d           3.727   4.878   1.436  0.00  0.00     0.032 H 
ENDBRANCH   1   6
BRANCH   1  10
ATOM     10  C4  <0> d           1.106   3.179   0.008  0.00  0.00    -0.007 A 
ATOM     11  C8  <0> d          -0.132   3.793   0.023  0.00  0.00     0.011 A 
ATOM     12  N1  <0> d          -1.240   3.078   0.030  0.00  0.00    -0.272 NA
ATOM     13  H10 <0> d          -0.193   4.871   0.029  0.00  0.00     0.115 H 
ATOM     14  C7  <0> d          -1.214   1.759   0.017  0.00  0.00     0.002 A 
ATOM     15  C6  <0> d          -0.013   1.076   0.008  0.00  0.00    -0.065 A 
ATOM     16  H9  <0> d          -2.142   1.207   0.019  0.00  0.00     0.114 H 
ATOM     17  C5  <0> d           1.173   1.794   0.001  0.00  0.00    -0.071 A 
ATOM     18  H8  <0> d           0.002  -0.004   0.002  0.00  0.00     0.085 H 
ATOM     19  H7  <0> d           2.127   1.287  -0.011  0.00  0.00     0.084 H 
ENDBRANCH   1  10
BRANCH   1  20
ATOM     20  O1  <0> d           3.398   3.292  -0.686  0.00  0.00    -0.386 OA
ATOM     21  H11 <0> d           3.726   2.309  -0.318  0.00  0.00     0.211 HD
ENDBRANCH   1  20
TORSDOF 4
