REMARK  3 active torsions:
REMARK  status: ('A' for Active; 'I' for Inactive)
REMARK    1  A    between atoms: C1_1  and  C2_2 
REMARK    2  A    between atoms: C2_2  and  C4_5 
REMARK    3  A    between atoms: C2_2  and  N2_11 
ROOT
ATOM      1  C2  <0> d           0.002  -0.004   0.002  0.00  0.00     0.242 C 
ATOM      2  C3  <0> d           0.714  -0.492   1.195  0.00  0.00     0.101 C 
ATOM      3  N1  <0> d           1.263  -0.868   2.115  0.00  0.00    -0.195 NA
ENDROOT
BRANCH   1   4
ATOM      4  C1  <0> d          -0.019   1.526   0.010  0.00  0.00    -0.030 C 
ATOM      5  H1  <0> d           1.004   1.903   0.003  0.00  0.00     0.032 H 
ATOM      6  H2  <0> d          -0.546   1.887  -0.873  0.00  0.00     0.032 H 
ATOM      7  H3  <0> d          -0.529   1.877   0.907  0.00  0.00     0.032 H 
ENDBRANCH   1   4
BRANCH   1   8
ATOM      8  C4  <0> d          -1.433  -0.534   0.013  0.00  0.00    -0.007 C 
ATOM      9  C9  <0> d          -1.413  -2.063   0.004  0.00  0.00    -0.058 C 
ATOM     10  C8  <0> d          -2.848  -2.593   0.015  0.00  0.00    -0.065 C 
ATOM     11  H13 <0> d          -0.902  -2.415  -0.892  0.00  0.00     0.033 H 
ATOM     12  H14 <0> d          -0.885  -2.425   0.887  0.00  0.00     0.033 H 
ATOM     13  C7  <0> d          -3.588  -2.086  -1.224  0.00  0.00    -0.065 C 
ATOM     14  H11 <0> d          -3.358  -2.241   0.912  0.00  0.00     0.033 H 
ATOM     15  H12 <0> d          -2.833  -3.683   0.009  0.00  0.00     0.033 H 
ATOM     16  C6  <0> d          -3.609  -0.556  -1.216  0.00  0.00    -0.065 C 
ATOM     17  H9  <0> d          -4.611  -2.463  -1.216  0.00  0.00     0.033 H 
ATOM     18  H10 <0> d          -3.078  -2.438  -2.121  0.00  0.00     0.033 H 
ATOM     19  C5  <0> d          -2.173  -0.027  -1.227  0.00  0.00    -0.058 C 
ATOM     20  H7  <0> d          -4.119  -0.205  -0.319  0.00  0.00     0.033 H 
ATOM     21  H8  <0> d          -4.136  -0.195  -2.099  0.00  0.00     0.033 H 
ATOM     22  H5  <0> d          -2.188   1.063  -1.221  0.00  0.00     0.033 H 
ATOM     23  H6  <0> d          -1.663  -0.378  -2.123  0.00  0.00     0.033 H 
ATOM     24  H4  <0> d          -1.944  -0.182   0.910  0.00  0.00     0.045 H 
ENDBRANCH   1   8
BRANCH   1  25
ATOM     25  N2  <0> d           0.690  -0.478  -1.207  0.00  0.00     0.102 N 
ATOM     26  H15 <0> d           1.619  -0.089  -1.270  0.00  0.00     0.315 HD
ATOM     27  H16 <0> d           0.717  -1.486  -1.236  0.00  0.00     0.315 HD
ENDBRANCH   1  25
TORSDOF 3
