REMARK  5 active torsions:
REMARK  status: ('A' for Active; 'I' for Inactive)
REMARK    1  A    between atoms: C1_1  and  C2_2 
REMARK    2  A    between atoms: C2_2  and  O1_3 
REMARK    3  A    between atoms: O1_3  and  C3_4 
REMARK    4  A    between atoms: C3_4  and  C7_8 
REMARK    5  A    between atoms: C4_5  and  C5_6 
ROOT
ATOM      1  C5  <0> d          -0.595  -4.066  -0.014  0.00  0.00    -0.087 C 
ATOM      2  C6  <0> d          -0.733  -5.231  -0.019  0.00  0.00    -0.149 C 
ATOM      3  H7  <0> d          -0.857  -6.274  -0.024  0.00  0.00     0.166 H 
ENDROOT
BRANCH   1   4
ATOM      4  C4  <0> d          -0.427  -2.644  -0.008  0.00  0.00    -0.006 C 
ATOM      5  C3  <0> d          -1.498  -1.844   0.006  0.00  0.00     0.050 C 
ATOM      6  H6  <0> d           0.566  -2.217  -0.015  0.00  0.00     0.101 H 
BRANCH   5   7
ATOM      7  O1  <0> d          -1.339  -0.499   0.012  0.00  0.00    -0.356 OA
BRANCH   7   8
ATOM      8  C2  <0> d           0.002  -0.004   0.002  0.00  0.00     0.022 C 
ATOM      9  H4  <0> d           0.512  -0.356  -0.895  0.00  0.00     0.074 H 
ATOM     10  H5  <0> d           0.529  -0.365   0.885  0.00  0.00     0.074 H 
BRANCH   8  11
ATOM     11  C1  <0> d          -0.019   1.526   0.010  0.00  0.00    -0.056 C 
ATOM     12  H1  <0> d           1.004   1.903   0.003  0.00  0.00     0.030 H 
ATOM     13  H2  <0> d          -0.546   1.887  -0.873  0.00  0.00     0.030 H 
ATOM     14  H3  <0> d          -0.529   1.877   0.907  0.00  0.00     0.030 H 
ENDBRANCH   8  11
ENDBRANCH   7   8
ENDBRANCH   5   7
BRANCH   5  15
ATOM     15  C7  <0> d          -2.882  -2.439   0.017  0.00  0.00    -0.031 C 
ATOM     16  H8  <0> d          -3.226  -2.576  -1.009  0.00  0.00     0.036 H 
ATOM     17  H9  <0> d          -2.860  -3.402   0.525  0.00  0.00     0.036 H 
ATOM     18  H10 <0> d          -3.562  -1.767   0.540  0.00  0.00     0.036 H 
ENDBRANCH   5  15
ENDBRANCH   1   4
TORSDOF 5
