REMARK  5 active torsions:
REMARK  status: ('A' for Active; 'I' for Inactive)
REMARK    1  A    between atoms: C1_1  and  C2_2 
REMARK    2  A    between atoms: C2_2  and  C3_3 
REMARK    3  A    between atoms: C2_2  and  C4_4 
REMARK    4  A    between atoms: C2_2  and  O2_11 
REMARK    5  A    between atoms: C4_4  and  O1_10 
ROOT
ATOM      1  C4  <0> d           1.286   1.562  -0.002  0.00  0.00     0.088 C 
ATOM      2  C5  <0> d           2.040   1.127  -1.261  0.00  0.00    -0.034 C 
ATOM      3  C6  <0> d           2.181  -0.396  -1.270  0.00  0.00    -0.062 C 
ATOM      4  C7  <0> d           2.958  -0.844  -0.031  0.00  0.00    -0.065 C 
ATOM      5  C8  <0> d           2.205  -0.409   1.228  0.00  0.00    -0.062 C 
ATOM      6  C9  <0> d           2.064   1.114   1.238  0.00  0.00    -0.034 C 
ATOM      7  H7  <0> d           1.486   1.446  -2.144  0.00  0.00     0.037 H 
ATOM      8  H8  <0> d           3.029   1.584  -1.268  0.00  0.00     0.037 H 
ATOM      9  H9  <0> d           2.718  -0.706  -2.167  0.00  0.00     0.033 H 
ATOM     10  H10 <0> d           1.192  -0.853  -1.263  0.00  0.00     0.033 H 
ATOM     11  H11 <0> d           3.948  -0.387  -0.038  0.00  0.00     0.033 H 
ATOM     12  H12 <0> d           3.059  -1.929  -0.037  0.00  0.00     0.033 H 
ATOM     13  H13 <0> d           2.759  -0.728   2.111  0.00  0.00     0.033 H 
ATOM     14  H14 <0> d           1.215  -0.866   1.235  0.00  0.00     0.033 H 
ATOM     15  H15 <0> d           3.053   1.571   1.231  0.00  0.00     0.037 H 
ATOM     16  H16 <0> d           1.527   1.423   2.135  0.00  0.00     0.037 H 
ENDROOT
BRANCH   1  17
ATOM     17  C2  <0> d           1.145   3.085   0.008  0.00  0.00     0.081 C 
BRANCH  17  18
ATOM     18  C1  <0> d           0.368   3.533  -1.232  0.00  0.00    -0.045 C 
ATOM     19  H1  <0> d          -0.622   3.076  -1.225  0.00  0.00     0.031 H 
ATOM     20  H2  <0> d           0.267   4.618  -1.225  0.00  0.00     0.031 H 
ATOM     21  H3  <0> d           0.904   3.224  -2.129  0.00  0.00     0.031 H 
ENDBRANCH  17  18
BRANCH  17  22
ATOM     22  C3  <0> d           0.392   3.519   1.266  0.00  0.00    -0.045 C 
ATOM     23  H4  <0> d           0.945   3.200   2.150  0.00  0.00     0.031 H 
ATOM     24  H5  <0> d           0.291   4.605   1.273  0.00  0.00     0.031 H 
ATOM     25  H6  <0> d          -0.598   3.063   1.274  0.00  0.00     0.031 H 
ENDBRANCH  17  22
BRANCH  17  26
ATOM     26  O2  <0> d           2.442   3.684  -0.002  0.00  0.00    -0.388 OA
ATOM     27  H18 <0> d           2.992   3.444   0.757  0.00  0.00     0.210 HD
ENDBRANCH  17  26
ENDBRANCH   1  17
BRANCH   1  28
ATOM     28  O1  <0> d          -0.011   0.963   0.007  0.00  0.00    -0.387 OA
ATOM     29  H17 <0> d           0.002  -0.004   0.002  0.00  0.00     0.210 HD
ENDBRANCH   1  28
TORSDOF 5
