REMARK  4 active torsions:
REMARK  status: ('A' for Active; 'I' for Inactive)
REMARK    1  A    between atoms: C1_1  and  C2_2 
REMARK    2  A    between atoms: C3_3  and  C4_8 
REMARK    3  A    between atoms: C4_8  and  O2_10 
REMARK    4  A    between atoms: O2_10  and  C5_11 
ROOT
ATOM      1  C2  <0> d           0.002  -0.004   0.002  0.00  0.00     0.089 A 
ATOM      2  C3  <0> d           0.009  -0.849  -1.127  0.00  0.00     0.179 A 
ATOM      3  N1  <0> d           0.027  -2.083  -0.646  0.00  0.00    -0.149 NA
ATOM      4  N2  <0> d           0.032  -2.021   0.638  0.00  0.00    -0.196 N 
ATOM      5  H1  <0> d           0.045  -2.793   1.225  0.00  0.00     0.213 HD
ATOM      6  N3  <0> d           0.023  -0.801   1.043  0.00  0.00    -0.160 NA
ENDROOT
BRANCH   2   7
ATOM      7  C4  <0> d          -0.004  -0.443  -2.547  0.00  0.00     0.315 C 
ATOM      8  O1  <0> d          -0.021   0.736  -2.841  0.00  0.00    -0.257 OA
BRANCH   7   9
ATOM      9  O2  <0> d           0.005  -1.379  -3.515  0.00  0.00    -0.321 OA
BRANCH   9  10
ATOM     10  C5  <0> d          -0.008  -0.915  -4.867  0.00  0.00     0.013 C 
ATOM     11  H5  <0> d          -0.907  -0.323  -5.039  0.00  0.00     0.067 H 
ATOM     12  H6  <0> d           0.873  -0.299  -5.047  0.00  0.00     0.067 H 
ATOM     13  H7  <0> d           0.001  -1.769  -5.544  0.00  0.00     0.067 H 
ENDBRANCH   9  10
ENDBRANCH   7   9
ENDBRANCH   2   7
BRANCH   1  14
ATOM     14  C1  <0> d          -0.018   1.503   0.010  0.00  0.00    -0.031 C 
ATOM     15  H2  <0> d           1.004   1.880   0.003  0.00  0.00     0.035 H 
ATOM     16  H3  <0> d          -0.545   1.864  -0.873  0.00  0.00     0.035 H 
ATOM     17  H4  <0> d          -0.529   1.854   0.907  0.00  0.00     0.035 H 
ENDBRANCH   1  14
TORSDOF 4
