REMARK  3 active torsions:
REMARK  status: ('A' for Active; 'I' for Inactive)
REMARK    1  A    between atoms: C1_1  and  C2_2 
REMARK    2  A    between atoms: C2_2  and  C3_4 
REMARK    3  A    between atoms: C2_2  and  O1_12 
ROOT
ATOM      1  C3  <0> d           1.177   1.782   0.000  0.00  0.00    -0.030 A 
ATOM      2  C4  <0> d          -0.013   1.076   0.008  0.00  0.00    -0.073 A 
ATOM      3  C5  <0> d          -1.217   1.748   0.017  0.00  0.00    -0.062 A 
ATOM      4  C6  <0> d          -1.234   3.144   0.029  0.00  0.00     0.044 A 
ATOM      5  C7  <0> d          -0.030   3.850   0.022  0.00  0.00    -0.062 A 
ATOM      6  C8  <0> d           1.167   3.166   0.007  0.00  0.00    -0.073 A 
ATOM      7  C9  <0> d          -2.481   3.848   0.044  0.00  0.00     0.099 C 
ATOM      8  N1  <0> d          -3.470   4.406   0.055  0.00  0.00    -0.191 NA
ATOM      9  H5  <0> d           0.002  -0.004   0.002  0.00  0.00     0.084 H 
ATOM     10  H6  <0> d          -2.145   1.195   0.019  0.00  0.00     0.085 H 
ATOM     11  H7  <0> d          -0.036   4.930   0.026  0.00  0.00     0.085 H 
ATOM     12  H8  <0> d           2.100   3.711   0.002  0.00  0.00     0.084 H 
ENDROOT
BRANCH   1  13
ATOM     13  C2  <0> d           2.489   1.041  -0.015  0.00  0.00     0.057 C 
ATOM     14  H1  <0> d           2.373   0.065  -0.509  0.00  0.00     0.089 H 
BRANCH  13  15
ATOM     15  C1  <0> d           3.008   0.893   1.417  0.00  0.00    -0.049 C 
ATOM     16  H2  <0> d           3.966   0.353   1.405  0.00  0.00     0.031 H 
ATOM     17  H3  <0> d           2.277   0.331   2.015  0.00  0.00     0.031 H 
ATOM     18  H4  <0> d           3.155   1.890   1.858  0.00  0.00     0.031 H 
ENDBRANCH  13  15
BRANCH  13  19
ATOM     19  O1  <0> d           3.440   1.772  -0.793  0.00  0.00    -0.391 OA
ATOM     20  H9  <0> d           3.239   1.979  -1.855  0.00  0.00     0.210 HD
ENDBRANCH  13  19
ENDBRANCH   1  13
TORSDOF 3
