REMARK  3 active torsions:
REMARK  status: ('A' for Active; 'I' for Inactive)
REMARK    1  A    between atoms: C2_2  and  C3_3 
REMARK    2  A    between atoms: C4_5  and  N5_10 
REMARK    3  A    between atoms: C5_7  and  N4_9 
ROOT
ATOM      1  C3  <0> d          -1.301   1.797   0.018  0.00  0.00     0.186 A 
ATOM      2  N1  <0> d          -1.320   3.128   0.031  0.00  0.00    -0.042 NA
ATOM      3  C4  <0> d          -2.481   3.776   0.034  0.00  0.00     0.738 A 
ATOM      4  N2  <0> d          -3.622   3.095   0.036  0.00  0.00     0.129 NA
ATOM      5  C5  <0> d          -3.605   1.766   0.029  0.00  0.00     0.738 A 
ATOM      6  N3  <0> d          -2.446   1.116   0.020  0.00  0.00    -0.042 NA
ENDROOT
BRANCH   1   7
ATOM      7  C2  <0> d          -0.013   1.076   0.008  0.00  0.00    -0.044 C 
ATOM      8  C1  <0> d           1.127   1.755   0.001  0.00  0.00    -0.118 C 
ATOM      9  H1  <0> d           2.070   1.228  -0.011  0.00  0.00     0.066 H 
ATOM     10  H2  <0> d           1.113   2.835   0.007  0.00  0.00     0.066 H 
ATOM     11  H3  <0> d           0.002  -0.004   0.002  0.00  0.00     0.088 H 
ENDBRANCH   1   7
BRANCH   5  12
ATOM     12  N4  <0> d          -4.791   1.060   0.031  0.00  0.00    -0.230 N 
ATOM     13  H4  <0> d          -4.779   0.090   0.026  0.00  0.00     0.174 HD
ATOM     14  H5  <0> d          -5.637   1.534   0.037  0.00  0.00     0.174 HD
ENDBRANCH   5  12
BRANCH   3  15
ATOM     15  N5  <0> d          -2.500   5.156   0.041  0.00  0.00    -0.230 N 
ATOM     16  H6  <0> d          -3.347   5.629   0.048  0.00  0.00     0.174 HD
ATOM     17  H7  <0> d          -1.667   5.653   0.040  0.00  0.00     0.174 HD
ENDBRANCH   3  15
TORSDOF 3
