REMARK  1 active torsions:
REMARK  status: ('A' for Active; 'I' for Inactive)
REMARK    1  A    between atoms: C1_1  and  C4_9 
ROOT
ATOM      1  C1  <0> d          -0.016   1.305   0.009  0.00  0.00     0.214 A 
ATOM      2  N1  <0> d           1.157   2.010   0.002  0.00  0.00    -0.287 N 
ATOM      3  C2  <0> d           2.333   1.351  -0.013  0.00  0.00     0.330 A 
ATOM      4  N2  <0> d           2.338   0.002  -0.020  0.00  0.00    -0.259 N 
ATOM      5  C3  <0> d           1.171  -0.672  -0.013  0.00  0.00     0.352 A 
ATOM      6  N3  <0> d           0.002  -0.004   0.002  0.00  0.00    -0.169 NA
ATOM      7  O1  <0> d           1.174  -1.889  -0.020  0.00  0.00    -0.244 OA
ATOM      8  O2  <0> d           3.381   1.967  -0.020  0.00  0.00    -0.246 OA
ATOM      9  H1  <0> d           3.179  -0.482  -0.031  0.00  0.00     0.175 HD
ATOM     10  H2  <0> d           1.142   2.980   0.007  0.00  0.00     0.172 HD
ENDROOT
BRANCH   1  11
ATOM     11  C4  <0> d          -1.319   2.031   0.032  0.00  0.00     0.247 C 
ATOM     12  O3  <0> d          -2.366   1.404   0.043  0.00  0.00    -0.642 OA
ATOM     13  O4  <0> d          -1.338   3.252   0.039  0.00  0.00    -0.642 OA
ENDBRANCH   1  11
TORSDOF 1
