REMARK  0 active torsions:
REMARK  status: ('A' for Active; 'I' for Inactive)
ROOT
ATOM      1  C1  <0> d          -0.016   1.343   0.009  0.00  0.00     0.036 A 
ATOM      2  C2  <0> d           0.002  -0.004   0.002  0.00  0.00     0.014 A 
ATOM      3  N1  <0> d           1.317  -0.382  -0.013  0.00  0.00    -0.190 N 
ATOM      4  C3  <0> d           2.064   0.763  -0.012  0.00  0.00     0.702 A 
ATOM      5  N2  <0> d           1.256   1.785  -0.000  0.00  0.00    -0.076 NA
ATOM      6  N3  <0> d           3.455   0.740  -0.021  0.00  0.00    -0.224 N 
ATOM      7  C4  <0> d           4.086  -0.563   0.264  0.00  0.00     0.011 C 
ATOM      8  C5  <0> d           3.337  -1.650  -0.515  0.00  0.00    -0.034 C 
ATOM      9  C6  <0> d           1.885  -1.731  -0.029  0.00  0.00     0.018 C 
ATOM     10  H1  <0> d          -0.901   1.962   0.017  0.00  0.00     0.117 H 
ATOM     11  H2  <0> d          -0.856  -0.660   0.006  0.00  0.00     0.114 H 
ATOM     12  H3  <0> d           3.980   1.535  -0.203  0.00  0.00     0.177 HD
ATOM     13  H4  <0> d           5.130  -0.541  -0.050  0.00  0.00     0.064 H 
ATOM     14  H5  <0> d           4.031  -0.771   1.333  0.00  0.00     0.064 H 
ATOM     15  H6  <0> d           3.351  -1.409  -1.578  0.00  0.00     0.037 H 
ATOM     16  H7  <0> d           3.826  -2.612  -0.355  0.00  0.00     0.037 H 
ATOM     17  H8  <0> d           1.860  -2.150   0.977  0.00  0.00     0.065 H 
ATOM     18  H9  <0> d           1.308  -2.362  -0.705  0.00  0.00     0.065 H 
ENDROOT
TORSDOF 0
