REMARK  1 active torsions:
REMARK  status: ('A' for Active; 'I' for Inactive)
REMARK    1  A    between atoms: C1_1  and  C2_2 
ROOT
ATOM      1  C2  <0> d           0.002  -0.004   0.002  0.00  0.00     0.055 C 
ATOM      2  H1  <0> d          -1.020  -0.382   0.010  0.00  0.00     0.086 H 
ATOM      3  C3  <0> d           0.722  -0.499  -1.256  0.00  0.00     0.043 C 
ATOM      4  O1  <0> d           0.835  -1.925  -1.201  0.00  0.00    -0.387 OA
ATOM      5  C4  <0> d           1.531  -2.400  -0.045  0.00  0.00     0.039 C 
ATOM      6  C5  <0> d           0.811  -1.904   1.213  0.00  0.00     0.040 C 
ATOM      7  O2  <0> d           0.697  -0.479   1.159  0.00  0.00    -0.382 OA
ATOM      8  H5  <0> d           0.150  -0.213  -2.139  0.00  0.00     0.078 H 
ATOM      9  H6  <0> d           1.716  -0.056  -1.305  0.00  0.00     0.078 H 
ATOM     10  H7  <0> d           1.546  -3.490  -0.051  0.00  0.00     0.077 H 
ATOM     11  H8  <0> d           2.553  -2.020  -0.053  0.00  0.00     0.077 H 
ATOM     12  H9  <0> d          -0.183  -2.348   1.262  0.00  0.00     0.077 H 
ATOM     13  H10 <0> d           1.383  -2.191   2.096  0.00  0.00     0.077 H 
ENDROOT
BRANCH   1  14
ATOM     14  C1  <0> d          -0.019   1.526   0.010  0.00  0.00    -0.050 C 
ATOM     15  H2  <0> d           1.004   1.903   0.003  0.00  0.00     0.031 H 
ATOM     16  H3  <0> d          -0.546   1.887  -0.873  0.00  0.00     0.031 H 
ATOM     17  H4  <0> d          -0.529   1.877   0.907  0.00  0.00     0.031 H 
ENDBRANCH   1  14
TORSDOF 1
