REMARK  3 active torsions:
REMARK  status: ('A' for Active; 'I' for Inactive)
REMARK    1  A    between atoms: C1_1  and  N1_2 
REMARK    2  A    between atoms: N1_2  and  C2_3 
REMARK    3  A    between atoms: N1_2  and  C3_4 
ROOT
ATOM      1  C3  <0> d           0.000  -0.682  -1.188  0.00  0.00     0.721 A 
ATOM      2  N2  <0> d           0.013  -2.040  -1.181  0.00  0.00    -0.107 N 
ATOM      3  H1  <0> d           0.024  -2.516  -0.336  0.00  0.00     0.208 HD
ATOM      4  N3  <0> d           0.011  -2.758  -2.384  0.00  0.00    -0.167 NA
ATOM      5  C4  <0> d          -0.004  -2.110  -3.518  0.00  0.00     0.090 A 
ATOM      6  C5  <0> d          -0.017  -0.645  -3.495  0.00  0.00     0.302 A 
ATOM      7  O1  <0> d          -0.031  -0.013  -4.540  0.00  0.00    -0.264 OA
ATOM      8  N4  <0> d          -0.020  -0.005  -2.319  0.00  0.00    -0.021 NA
ATOM      9  H8  <0> d          -0.005  -2.644  -4.456  0.00  0.00     0.126 H 
ENDROOT
BRANCH   1  10
ATOM     10  N1  <0> d           0.002  -0.004   0.002  0.00  0.00    -0.223 N 
BRANCH  10  11
ATOM     11  C1  <0> d          -0.018   1.461   0.010  0.00  0.00    -0.003 C 
ATOM     12  H2  <0> d           1.005   1.838   0.002  0.00  0.00     0.057 H 
ATOM     13  H3  <0> d          -0.545   1.822  -0.873  0.00  0.00     0.057 H 
ATOM     14  H4  <0> d          -0.528   1.812   0.907  0.00  0.00     0.057 H 
ENDBRANCH  10  11
BRANCH  10  15
ATOM     15  C2  <0> d           0.024  -0.743   1.267  0.00  0.00    -0.003 C 
ATOM     16  H5  <0> d          -0.998  -0.941   1.590  0.00  0.00     0.057 H 
ATOM     17  H6  <0> d           0.550  -1.688   1.126  0.00  0.00     0.057 H 
ATOM     18  H7  <0> d           0.537  -0.151   2.025  0.00  0.00     0.057 H 
ENDBRANCH  10  15
ENDBRANCH   1  10
TORSDOF 3
