REMARK  4 active torsions:
REMARK  status: ('A' for Active; 'I' for Inactive)
REMARK    1  A    between atoms: C1_1  and  N1_2 
REMARK       I    between atoms: N1_2  and  C2_3 
REMARK    2  A    between atoms: C2_3  and  C3_5 
REMARK    3  A    between atoms: C5_7  and  C6_10 
REMARK    4  A    between atoms: C6_10  and  O3_11 
ROOT
ATOM      1  C3  <0> d          -1.136  -2.177   0.001  0.00  0.00     0.154 A 
ATOM      2  C4  <0> d          -2.268  -3.026   0.002  0.00  0.00    -0.015 A 
ATOM      3  C5  <0> d          -1.833  -4.300  -0.008  0.00  0.00     0.104 A 
ATOM      4  O2  <0> d          -0.492  -4.285  -0.014  0.00  0.00    -0.215 OA
ATOM      5  N2  <0> d          -0.066  -2.935  -0.013  0.00  0.00    -0.123 NA
ATOM      6  H5  <0> d          -3.300  -2.708   0.009  0.00  0.00     0.091 H 
ENDROOT
BRANCH   1   7
ATOM      7  C2  <0> d          -1.156  -0.694   0.009  0.00  0.00     0.272 C 
ATOM      8  N1  <0> d           0.002  -0.004   0.002  0.00  0.00    -0.360 N 
ATOM      9  H4  <0> d           0.849  -0.478  -0.009  0.00  0.00     0.162 HD
ATOM     10  O1  <0> d          -2.216  -0.101   0.023  0.00  0.00    -0.266 OA
BRANCH   8  11
ATOM     11  C1  <0> d          -0.018   1.461   0.010  0.00  0.00    -0.018 C 
ATOM     12  H1  <0> d           1.005   1.838   0.002  0.00  0.00     0.056 H 
ATOM     13  H2  <0> d          -0.545   1.822  -0.873  0.00  0.00     0.056 H 
ATOM     14  H3  <0> d          -0.528   1.812   0.907  0.00  0.00     0.056 H 
ENDBRANCH   8  11
ENDBRANCH   1   7
BRANCH   3  15
ATOM     15  C6  <0> d          -2.704  -5.530  -0.011  0.00  0.00     0.063 C 
ATOM     16  H6  <0> d          -2.184  -6.343   0.496  0.00  0.00     0.084 H 
ATOM     17  H7  <0> d          -3.638  -5.316   0.509  0.00  0.00     0.084 H 
BRANCH  15  18
ATOM     18  O3  <0> d          -2.985  -5.911  -1.359  0.00  0.00    -0.394 OA
ATOM     19  H8  <0> d          -3.542  -6.698  -1.437  0.00  0.00     0.209 HD
ENDBRANCH  15  18
ENDBRANCH   3  15
TORSDOF 4
