REMARK  8 active torsions:
REMARK  status: ('A' for Active; 'I' for Inactive)
REMARK    1  A    between atoms: C1_1  and  O1_2 
REMARK    2  A    between atoms: O1_2  and  C2_3 
REMARK    3  A    between atoms: C2_3  and  C3_4 
REMARK    4  A    between atoms: C4_5  and  C5_6 
REMARK    5  A    between atoms: C4_5  and  O3_9 
REMARK    6  A    between atoms: C5_6  and  O2_7 
REMARK    7  A    between atoms: O2_7  and  C6_8 
REMARK    8  A    between atoms: O3_9  and  C7_10 
ROOT
ATOM      1  C3  <0> d          -0.754   1.692   3.631  0.00  0.00    -0.050 C 
ATOM      2  C4  <0> d          -1.215   0.862   4.544  0.00  0.00     0.067 C 
ATOM      3  H6  <0> d          -1.007   2.741   3.679  0.00  0.00     0.084 H 
ENDROOT
BRANCH   2   4
ATOM      4  C5  <0> d          -2.193   1.350   5.581  0.00  0.00     0.062 C 
ATOM      5  H7  <0> d          -1.807   1.132   6.576  0.00  0.00     0.084 H 
ATOM      6  H8  <0> d          -2.332   2.426   5.473  0.00  0.00     0.084 H 
BRANCH   4   7
ATOM      7  O2  <0> d          -3.447   0.689   5.402  0.00  0.00    -0.390 OA
BRANCH   7   8
ATOM      8  C6  <0> d          -4.451   1.081   6.340  0.00  0.00     0.004 C 
ATOM      9  H9  <0> d          -4.636   2.152   6.247  0.00  0.00     0.066 H 
ATOM     10  H10 <0> d          -5.372   0.535   6.136  0.00  0.00     0.066 H 
ATOM     11  H11 <0> d          -4.111   0.858   7.351  0.00  0.00     0.066 H 
ENDBRANCH   7   8
ENDBRANCH   4   7
ENDBRANCH   2   4
BRANCH   2  12
ATOM     12  O3  <0> d          -0.809  -0.432   4.550  0.00  0.00    -0.358 OA
BRANCH  12  13
ATOM     13  C7  <0> d          -0.033  -0.863   5.671  0.00  0.00     0.010 C 
ATOM     14  H12 <0> d           0.916  -0.328   5.683  0.00  0.00     0.066 H 
ATOM     15  H13 <0> d          -0.579  -0.656   6.591  0.00  0.00     0.066 H 
ATOM     16  H14 <0> d           0.154  -1.934   5.592  0.00  0.00     0.066 H 
ENDBRANCH  12  13
ENDBRANCH   2  12
BRANCH   1  17
ATOM     17  C2  <0> d           0.125   1.179   2.520  0.00  0.00     0.036 C 
ATOM     18  H4  <0> d           0.052   0.092   2.473  0.00  0.00     0.080 H 
ATOM     19  H5  <0> d           1.159   1.466   2.713  0.00  0.00     0.080 H 
BRANCH  17  20
ATOM     20  O1  <0> d          -0.301   1.740   1.277  0.00  0.00    -0.392 OA
BRANCH  20  21
ATOM     21  C1  <0> d           0.471   1.315   0.152  0.00  0.00     0.004 C 
ATOM     22  H1  <0> d           0.406   0.231   0.055  0.00  0.00     0.066 H 
ATOM     23  H2  <0> d           1.512   1.604   0.296  0.00  0.00     0.066 H 
ATOM     24  H3  <0> d           0.085   1.784  -0.752  0.00  0.00     0.066 H 
ENDBRANCH  20  21
ENDBRANCH  17  20
ENDBRANCH   1  17
TORSDOF 8
