REMARK  5 active torsions:
REMARK  status: ('A' for Active; 'I' for Inactive)
REMARK    1  A    between atoms: C1_1  and  C2_2 
REMARK    2  A    between atoms: C2_2  and  C3_3 
REMARK    3  A    between atoms: C2_2  and  C4_4 
REMARK    4  A    between atoms: C2_2  and  C5_5 
REMARK    5  A    between atoms: C5_5  and  C6_6 
ROOT
ATOM      1  C6  <0> d           2.099   0.012  -1.267  0.00  0.00    -0.117 C 
ATOM      2  C7  <0> d           3.201   0.418  -1.276  0.00  0.00    -0.154 C 
ATOM      3  H12 <0> d           4.186   0.782  -1.283  0.00  0.00     0.166 H 
ENDROOT
BRANCH   1   4
ATOM      4  C5  <0> d           0.718  -0.497  -1.257  0.00  0.00    -0.004 C 
ATOM      5  H10 <0> d           0.733  -1.587  -1.263  0.00  0.00     0.052 H 
ATOM      6  H11 <0> d           0.191  -0.136  -2.140  0.00  0.00     0.052 H 
BRANCH   4   7
ATOM      7  C2  <0> d           0.002  -0.004   0.002  0.00  0.00    -0.041 C 
BRANCH   7   8
ATOM      8  C1  <0> d          -0.019   1.526   0.010  0.00  0.00    -0.069 C 
ATOM      9  H1  <0> d           1.004   1.903   0.003  0.00  0.00     0.028 H 
ATOM     10  H2  <0> d          -0.546   1.887  -0.873  0.00  0.00     0.028 H 
ATOM     11  H3  <0> d          -0.529   1.877   0.907  0.00  0.00     0.028 H 
ENDBRANCH   7   8
BRANCH   7  12
ATOM     12  C3  <0> d           0.742  -0.511   1.242  0.00  0.00    -0.069 C 
ATOM     13  H4  <0> d           0.232  -0.159   2.138  0.00  0.00     0.028 H 
ATOM     14  H5  <0> d           0.757  -1.601   1.236  0.00  0.00     0.028 H 
ATOM     15  H6  <0> d           1.765  -0.134   1.234  0.00  0.00     0.028 H 
ENDBRANCH   7  12
BRANCH   7  16
ATOM     16  C4  <0> d          -1.433  -0.534   0.013  0.00  0.00    -0.069 C 
ATOM     17  H7  <0> d          -1.960  -0.173  -0.870  0.00  0.00     0.028 H 
ATOM     18  H8  <0> d          -1.419  -1.623   0.007  0.00  0.00     0.028 H 
ATOM     19  H9  <0> d          -1.944  -0.182   0.910  0.00  0.00     0.028 H 
ENDBRANCH   7  16
ENDBRANCH   4   7
ENDBRANCH   1   4
TORSDOF 5
