REMARK  2 active torsions:
REMARK  status: ('A' for Active; 'I' for Inactive)
REMARK    1  A    between atoms: C1_1  and  C2_2 
REMARK    2  A    between atoms: C4_4  and  C7_10 
ROOT
ATOM      1  C2  <0> d           0.002  -0.004   0.002  0.00  0.00     0.007 A 
ATOM      2  C3  <0> d          -1.163  -0.705   0.004  0.00  0.00    -0.054 A 
ATOM      3  C4  <0> d          -1.112  -2.121  -0.004  0.00  0.00     0.056 A 
ATOM      4  C5  <0> d           0.115  -2.757  -0.013  0.00  0.00    -0.003 A 
ATOM      5  N1  <0> d           1.253  -2.042  -0.015  0.00  0.00    -0.332 N 
ATOM      6  H1  <0> d           2.107  -2.503  -0.021  0.00  0.00     0.168 HD
ATOM      7  C6  <0> d           1.228  -0.697  -0.013  0.00  0.00     0.251 A 
ATOM      8  O1  <0> d           2.275  -0.072  -0.021  0.00  0.00    -0.268 OA
ATOM      9  H5  <0> d          -2.112  -0.190   0.011  0.00  0.00     0.086 H 
ATOM     10  H6  <0> d           0.160  -3.836  -0.019  0.00  0.00     0.113 H 
ENDROOT
BRANCH   1  11
ATOM     11  C1  <0> d          -0.018   1.503   0.010  0.00  0.00    -0.046 C 
ATOM     12  H2  <0> d           1.004   1.880   0.003  0.00  0.00     0.033 H 
ATOM     13  H3  <0> d          -0.545   1.864  -0.873  0.00  0.00     0.033 H 
ATOM     14  H4  <0> d          -0.529   1.854   0.907  0.00  0.00     0.033 H 
ENDBRANCH   1  11
BRANCH   3  15
ATOM     15  C7  <0> d          -2.355  -2.907  -0.002  0.00  0.00     0.210 C 
ATOM     16  O2  <0> d          -2.306  -4.130  -0.009  0.00  0.00    -0.644 OA
ATOM     17  O3  <0> d          -3.439  -2.339   0.007  0.00  0.00    -0.644 OA
ENDBRANCH   3  15
TORSDOF 2
