REMARK  1 active torsions:
REMARK  status: ('A' for Active; 'I' for Inactive)
REMARK    1  A    between atoms: C2_2  and  C3_3 
ROOT
ATOM      1  C1  <0> d           0.018  -1.178  -0.004  0.00  0.00    -0.152 C 
ATOM      2  C2  <0> d           0.002  -0.004   0.002  0.00  0.00    -0.091 C 
ATOM      3  H1  <0> d           0.032  -2.228  -0.010  0.00  0.00     0.166 H 
ENDROOT
BRANCH   2   4
ATOM      4  C3  <0> d          -0.018   1.468   0.010  0.00  0.00     0.099 C 
ATOM      5  C8  <0> d           1.417   1.997  -0.001  0.00  0.00    -0.035 C 
ATOM      6  C7  <0> d           2.134   1.504  -1.260  0.00  0.00    -0.062 C 
ATOM      7  H10 <0> d           1.403   3.087   0.005  0.00  0.00     0.037 H 
ATOM      8  H11 <0> d           1.945   1.636   0.882  0.00  0.00     0.037 H 
ATOM      9  C6  <0> d           1.394   2.011  -2.499  0.00  0.00    -0.065 C 
ATOM     10  H8  <0> d           2.148   0.414  -1.266  0.00  0.00     0.033 H 
ATOM     11  H9  <0> d           3.156   1.881  -1.267  0.00  0.00     0.033 H 
ATOM     12  C5  <0> d          -0.042   1.481  -2.488  0.00  0.00    -0.062 C 
ATOM     13  H6  <0> d           1.904   1.659  -3.396  0.00  0.00     0.033 H 
ATOM     14  H7  <0> d           1.379   3.101  -2.493  0.00  0.00     0.033 H 
ATOM     15  C4  <0> d          -0.758   1.975  -1.229  0.00  0.00    -0.035 C 
ATOM     16  H4  <0> d          -0.027   0.391  -2.494  0.00  0.00     0.033 H 
ATOM     17  H5  <0> d          -0.569   1.842  -3.371  0.00  0.00     0.033 H 
ATOM     18  H2  <0> d          -1.780   1.597  -1.222  0.00  0.00     0.037 H 
ATOM     19  H3  <0> d          -0.773   3.064  -1.223  0.00  0.00     0.037 H 
ATOM     20 Cl1  <0> d          -0.862   2.049   1.494  0.00  0.00    -0.105 Cl
ENDBRANCH   2   4
TORSDOF 1
