REMARK  1 active torsions:
REMARK  status: ('A' for Active; 'I' for Inactive)
REMARK    1  A    between atoms: C2_2  and  N4_10 
ROOT
ATOM      1  C1  <0> d          -0.016   1.309   0.009  0.00  0.00     0.051 A 
ATOM      2  C2  <0> d           1.308   1.772  -0.001  0.00  0.00     0.091 A 
ATOM      3  C3  <0> d           2.120   0.691  -0.014  0.00  0.00     0.148 A 
ATOM      4  N1  <0> d           1.331  -0.426  -0.014  0.00  0.00    -0.252 N 
ATOM      5  N2  <0> d           0.002  -0.004   0.002  0.00  0.00    -0.181 NA
ATOM      6  C4  <0> d           1.857  -1.793  -0.031  0.00  0.00     0.020 C 
ATOM      7  C5  <0> d           3.307  -1.761  -0.528  0.00  0.00    -0.034 C 
ATOM      8  C6  <0> d           4.103  -0.708   0.251  0.00  0.00    -0.004 C 
ATOM      9  N3  <0> d           3.520   0.620  -0.025  0.00  0.00    -0.373 N 
ATOM     10  H1  <0> d          -0.901   1.928   0.025  0.00  0.00     0.121 H 
ATOM     11  H2  <0> d           1.825  -2.209   0.976  0.00  0.00     0.067 H 
ATOM     12  H3  <0> d           1.255  -2.407  -0.701  0.00  0.00     0.067 H 
ATOM     13  H4  <0> d           3.761  -2.740  -0.381  0.00  0.00     0.037 H 
ATOM     14  H5  <0> d           3.320  -1.513  -1.589  0.00  0.00     0.037 H 
ATOM     15  H6  <0> d           4.044  -0.920   1.318  0.00  0.00     0.064 H 
ATOM     16  H7  <0> d           5.144  -0.725  -0.072  0.00  0.00     0.064 H 
ATOM     17  H8  <0> d           4.072   1.398  -0.202  0.00  0.00     0.161 HD
ENDROOT
BRANCH   2  18
ATOM     18  N4  <0> d           1.720   3.125   0.002  0.00  0.00    -0.395 N 
ATOM     19  H9  <0> d           1.057   3.833   0.011  0.00  0.00     0.156 HD
ATOM     20  H10 <0> d           2.664   3.345  -0.007  0.00  0.00     0.156 HD
ENDBRANCH   2  18
TORSDOF 1
