REMARK  2 active torsions:
REMARK  status: ('A' for Active; 'I' for Inactive)
REMARK    1  A    between atoms: C1_1  and  C2_2 
REMARK    2  A    between atoms: C7_7  and  C8_8 
ROOT
ATOM      1  C2  <0> d           3.197  -2.090  -0.045  0.00  0.00    -0.049 A 
ATOM      2  C3  <0> d           3.640  -3.398  -0.051  0.00  0.00    -0.076 A 
ATOM      3  C4  <0> d           2.730  -4.439  -0.048  0.00  0.00    -0.082 A 
ATOM      4  C5  <0> d           1.372  -4.177  -0.033  0.00  0.00    -0.082 A 
ATOM      5  C6  <0> d           0.918  -2.874  -0.021  0.00  0.00    -0.070 A 
ATOM      6  C7  <0> d           1.831  -1.821  -0.025  0.00  0.00     0.000 A 
ATOM      7  H5  <0> d           4.700  -3.608  -0.062  0.00  0.00     0.084 H 
ATOM      8  H6  <0> d           3.081  -5.460  -0.056  0.00  0.00     0.083 H 
ATOM      9  H7  <0> d           0.666  -4.994  -0.030  0.00  0.00     0.083 H 
ATOM     10  H8  <0> d          -0.142  -2.671  -0.009  0.00  0.00     0.084 H 
ENDROOT
BRANCH   6  11
ATOM     11  C8  <0> d           1.348  -0.417  -0.013  0.00  0.00     0.089 A 
ATOM     12  N2  <0> d           2.103   0.661  -0.015  0.00  0.00    -0.175 NA
ATOM     13  N1  <0> d           1.262   1.781  -0.000  0.00  0.00    -0.289 N 
ATOM     14  C10 <0> d          -0.016   1.347   0.009  0.00  0.00    -0.002 A 
ATOM     15  H1  <0> d           1.558   2.736   0.002  0.00  0.00     0.188 HD
ATOM     16  C9  <0> d           0.002  -0.004   0.002  0.00  0.00    -0.036 A 
ATOM     17  H10 <0> d          -0.898   1.970   0.017  0.00  0.00     0.113 H 
ATOM     18  H9  <0> d          -0.862  -0.652   0.007  0.00  0.00     0.089 H 
ENDBRANCH   6  11
BRANCH   1  19
ATOM     19  C1  <0> d           4.190  -0.957  -0.055  0.00  0.00    -0.050 C 
ATOM     20  H2  <0> d           4.444  -0.687   0.970  0.00  0.00     0.033 H 
ATOM     21  H3  <0> d           5.092  -1.268  -0.583  0.00  0.00     0.033 H 
ATOM     22  H4  <0> d           3.753  -0.095  -0.559  0.00  0.00     0.033 H 
ENDBRANCH   1  19
TORSDOF 2
