REMARK  1 active torsions:
REMARK  status: ('A' for Active; 'I' for Inactive)
REMARK    1  A    between atoms: C1_1  and  C2_2 
ROOT
ATOM      1  C2  <0> d           2.536   1.731  -0.013  0.00  0.00    -0.048 A 
ATOM      2  C3  <0> d           3.390   2.796  -0.016  0.00  0.00    -0.076 A 
ATOM      3  C4  <0> d           2.900   4.096  -0.005  0.00  0.00    -0.080 A 
ATOM      4  C5  <0> d           1.555   4.337   0.009  0.00  0.00    -0.055 A 
ATOM      5  C6  <0> d           0.660   3.270   0.013  0.00  0.00     0.062 A 
ATOM      6  C7  <0> d           1.155   1.952   0.002  0.00  0.00     0.017 A 
ATOM      7  C8  <0> d          -0.013   1.076   0.008  0.00  0.00     0.034 A 
ATOM      8  N1  <0> d          -1.075   1.829   0.016  0.00  0.00    -0.186 NA
ATOM      9  N2  <0> d          -0.708   3.179   0.025  0.00  0.00    -0.278 N 
ATOM     10  H1  <0> d          -1.341   3.952   0.038  0.00  0.00     0.189 HD
ATOM     11  H5  <0> d           4.456   2.627  -0.027  0.00  0.00     0.084 H 
ATOM     12  H6  <0> d           3.590   4.926  -0.007  0.00  0.00     0.083 H 
ATOM     13  H7  <0> d           1.187   5.352   0.018  0.00  0.00     0.087 H 
ATOM     14  H8  <0> d           0.002  -0.004   0.002  0.00  0.00     0.118 H 
ENDROOT
BRANCH   1  15
ATOM     15  C1  <0> d           3.079   0.325  -0.024  0.00  0.00    -0.050 C 
ATOM     16  H2  <0> d           3.199  -0.009  -1.055  0.00  0.00     0.033 H 
ATOM     17  H3  <0> d           4.045   0.304   0.480  0.00  0.00     0.033 H 
ATOM     18  H4  <0> d           2.384  -0.337   0.493  0.00  0.00     0.033 H 
ENDBRANCH   1  15
TORSDOF 1
