REMARK  4 active torsions:
REMARK  status: ('A' for Active; 'I' for Inactive)
REMARK    1  A    between atoms: C1_1  and  C2_2 
REMARK    2  A    between atoms: C2_2  and  N1_3 
REMARK    3  A    between atoms: C3_4  and  C6_10 
REMARK    4  A    between atoms: C5_6  and  N3_8 
ROOT
ATOM      1  N1  <0> d           0.002  -0.004   0.002  0.00  0.00    -0.271 N 
ATOM      2  C3  <0> d          -0.016   1.347   0.009  0.00  0.00     0.052 A 
ATOM      3  C4  <0> d           1.266   1.778  -0.001  0.00  0.00     0.104 A 
ATOM      4  C5  <0> d           2.101   0.649  -0.015  0.00  0.00     0.165 A 
ATOM      5  N2  <0> d           1.339  -0.420  -0.013  0.00  0.00    -0.153 NA
ATOM      6 Cl1  <0> d           1.786   3.435   0.003  0.00  0.00    -0.078 Cl
ENDROOT
BRANCH   1   7
ATOM      7  C2  <0> d          -1.172  -0.881   0.008  0.00  0.00     0.014 C 
ATOM      8  H4  <0> d          -0.926  -1.814   0.515  0.00  0.00     0.066 H 
ATOM      9  H5  <0> d          -1.991  -0.388   0.532  0.00  0.00     0.066 H 
BRANCH   7  10
ATOM     10  C1  <0> d          -1.594  -1.178  -1.432  0.00  0.00    -0.059 C 
ATOM     11  H1  <0> d          -2.467  -1.830  -1.428  0.00  0.00     0.029 H 
ATOM     12  H2  <0> d          -1.840  -0.245  -1.939  0.00  0.00     0.029 H 
ATOM     13  H3  <0> d          -0.775  -1.671  -1.956  0.00  0.00     0.029 H 
ENDBRANCH   7  10
ENDBRANCH   1   7
BRANCH   2  14
ATOM     14  C6  <0> d          -1.246   2.217   0.020  0.00  0.00    -0.034 C 
ATOM     15  H8  <0> d          -1.538   2.422   1.050  0.00  0.00     0.035 H 
ATOM     16  H9  <0> d          -1.031   3.156  -0.490  0.00  0.00     0.035 H 
ATOM     17  H10 <0> d          -2.059   1.704  -0.492  0.00  0.00     0.035 H 
ENDBRANCH   2  14
BRANCH   4  18
ATOM     18  N3  <0> d           3.501   0.661  -0.029  0.00  0.00    -0.381 N 
ATOM     19  H6  <0> d           3.993  -0.174  -0.038  0.00  0.00     0.157 HD
ATOM     20  H7  <0> d           3.978   1.506  -0.029  0.00  0.00     0.157 HD
ENDBRANCH   4  18
TORSDOF 4
