REMARK  4 active torsions:
REMARK  status: ('A' for Active; 'I' for Inactive)
REMARK    1  A    between atoms: C1_1  and  C2_2 
REMARK    2  A    between atoms: C1_1  and  O5_13 
REMARK    3  A    between atoms: C3_4  and  O4_12 
REMARK    4  A    between atoms: C4_6  and  O3_11 
ROOT
ATOM      1  C2  <0> d           1.145   3.085   0.008  0.00  0.00     0.096 C 
ATOM      2  H1  <0> d           0.544   3.404   0.860  0.00  0.00     0.091 H 
ATOM      3  C3  <0> d           2.536   3.753   0.051  0.00  0.00     0.097 C 
ATOM      4  H2  <0> d           3.311   3.049  -0.255  0.00  0.00     0.091 H 
ATOM      5  C4  <0> d           2.405   4.900  -0.975  0.00  0.00     0.146 C 
ATOM      6  H3  <0> d           2.561   5.864  -0.491  0.00  0.00     0.103 H 
ATOM      7  C5  <0> d           0.984   4.792  -1.490  0.00  0.00     0.291 C 
ATOM      8  O1  <0> d           0.357   5.671  -2.031  0.00  0.00    -0.262 OA
ATOM      9  O2  <0> d           0.542   3.546  -1.239  0.00  0.00    -0.309 OA
ENDROOT
BRANCH   1  10
ATOM     10  C1  <0> d           1.286   1.562  -0.002  0.00  0.00     0.044 C 
ATOM     11  H4  <0> d           1.840   1.243   0.881  0.00  0.00     0.078 H 
ATOM     12  H5  <0> d           1.823   1.252  -0.899  0.00  0.00     0.078 H 
BRANCH  10  13
ATOM     13  O5  <0> d          -0.011   0.963   0.007  0.00  0.00    -0.398 OA
ATOM     14  H8  <0> d           0.002  -0.004   0.002  0.00  0.00     0.209 HD
ENDBRANCH  10  13
ENDBRANCH   1  10
BRANCH   3  15
ATOM     15  O4  <0> d           2.808   4.269   1.355  0.00  0.00    -0.390 OA
ATOM     16  H7  <0> d           3.671   4.699   1.436  0.00  0.00     0.210 HD
ENDBRANCH   3  15
BRANCH   5  17
ATOM     17  O3  <0> d           3.337   4.723  -2.043  0.00  0.00    -0.383 OA
ATOM     18  H6  <0> d           3.264   5.386  -2.743  0.00  0.00     0.210 HD
ENDBRANCH   5  17
TORSDOF 4
