REMARK  1 active torsions:
REMARK  status: ('A' for Active; 'I' for Inactive)
REMARK    1  A    between atoms: C4_4  and  N1_8 
ROOT
ATOM      1  C1  <0> d           0.002  -0.004   0.002  0.00  0.00    -0.080 A 
ATOM      2  C2  <0> d           1.201  -0.684  -0.013  0.00  0.00    -0.060 A 
ATOM      3  C3  <0> d           2.405   0.025  -0.021  0.00  0.00     0.072 A 
ATOM      4  C4  <0> d           2.383   1.428  -0.013  0.00  0.00     0.068 A 
ATOM      5  C5  <0> d           1.165   2.096   0.002  0.00  0.00     0.061 A 
ATOM      6  C6  <0> d          -0.017   1.381   0.010  0.00  0.00    -0.060 A 
ATOM      7 Cl1  <0> d           1.128   3.832   0.012  0.00  0.00    -0.082 Cl
ATOM      8  C7  <0> d           3.653  -0.676  -0.036  0.00  0.00     0.102 C 
ATOM      9  N2  <0> d           4.644  -1.233  -0.048  0.00  0.00    -0.191 NA
ATOM     10  H1  <0> d          -0.927  -0.554   0.008  0.00  0.00     0.083 H 
ATOM     11  H2  <0> d           1.209  -1.764  -0.019  0.00  0.00     0.086 H 
ATOM     12  H3  <0> d          -0.961   1.905   0.017  0.00  0.00     0.086 H 
ENDROOT
BRANCH   4  13
ATOM     13  N1  <0> d           3.575   2.146  -0.020  0.00  0.00    -0.397 N 
ATOM     14  H4  <0> d           4.423   1.676  -0.031  0.00  0.00     0.156 HD
ATOM     15  H5  <0> d           3.557   3.115  -0.015  0.00  0.00     0.156 HD
ENDBRANCH   4  13
TORSDOF 1
