REMARK  7 active torsions:
REMARK  status: ('A' for Active; 'I' for Inactive)
REMARK    1  A    between atoms: C1_1  and  C2_2 
REMARK    2  A    between atoms: C2_2  and  C3_3 
REMARK    3  A    between atoms: C3_3  and  C4_4 
REMARK    4  A    between atoms: C4_4  and  C5_5 
REMARK    5  A    between atoms: C5_5  and  C6_6 
REMARK    6  A    between atoms: C6_6  and  N1_7 
REMARK       I    between atoms: N1_7  and  C7_8 
REMARK       I    between atoms: C7_8  and  N2_10 
REMARK    7  A    between atoms: N2_10  and  C8_11 
ROOT
ATOM      1  C5  <0> d           1.021  -2.227  -0.020  0.00  0.00    -0.050 C 
ATOM      2  H10 <0> d           0.462  -2.503   0.874  0.00  0.00     0.035 H 
ATOM      3  H11 <0> d           0.445  -2.493  -0.906  0.00  0.00     0.035 H 
ENDROOT
BRANCH   1   4
ATOM      4  C4  <0> d           2.357  -2.974  -0.036  0.00  0.00    -0.064 C 
ATOM      5  H8  <0> d           2.916  -2.698  -0.930  0.00  0.00     0.033 H 
ATOM      6  H9  <0> d           2.933  -2.708   0.850  0.00  0.00     0.033 H 
BRANCH   4   7
ATOM      7  C3  <0> d           2.098  -4.482  -0.042  0.00  0.00    -0.065 C 
ATOM      8  H6  <0> d           1.538  -4.758   0.852  0.00  0.00     0.033 H 
ATOM      9  H7  <0> d           1.521  -4.748  -0.928  0.00  0.00     0.033 H 
BRANCH   7  10
ATOM     10  C2  <0> d           3.433  -5.229  -0.059  0.00  0.00    -0.069 C 
ATOM     11  H4  <0> d           3.992  -4.953  -0.953  0.00  0.00     0.032 H 
ATOM     12  H5  <0> d           4.009  -4.963   0.827  0.00  0.00     0.032 H 
BRANCH  10  13
ATOM     13  C1  <0> d           3.174  -6.737  -0.064  0.00  0.00    -0.077 C 
ATOM     14  H1  <0> d           4.125  -7.269  -0.076  0.00  0.00     0.027 H 
ATOM     15  H2  <0> d           2.614  -7.013   0.830  0.00  0.00     0.027 H 
ATOM     16  H3  <0> d           2.597  -7.003  -0.950  0.00  0.00     0.027 H 
ENDBRANCH  10  13
ENDBRANCH   7  10
ENDBRANCH   4   7
ENDBRANCH   1   4
BRANCH   1  17
ATOM     17  C6  <0> d           1.281  -0.719  -0.014  0.00  0.00    -0.003 C 
ATOM     18  H12 <0> d           1.840  -0.443  -0.908  0.00  0.00     0.064 H 
ATOM     19  H13 <0> d           1.857  -0.453   0.872  0.00  0.00     0.064 H 
BRANCH  17  20
ATOM     20  N1  <0> d           0.002  -0.004   0.002  0.00  0.00    -0.343 N 
ATOM     21  C7  <0> d          -0.016   1.344   0.009  0.00  0.00     0.315 C 
ATOM     22  O1  <0> d           1.028   1.966   0.003  0.00  0.00    -0.247 OA
ATOM     23  N2  <0> d          -1.192   2.002   0.019  0.00  0.00    -0.347 N 
ATOM     24  H15 <0> d          -2.026   1.505   0.020  0.00  0.00     0.163 HD
ATOM     25  H14 <0> d          -0.831  -0.500   0.007  0.00  0.00     0.164 HD
BRANCH  23  26
ATOM     26  C8  <0> d          -1.212   3.466   0.027  0.00  0.00    -0.017 C 
ATOM     27  H16 <0> d          -0.699   3.832   0.916  0.00  0.00     0.056 H 
ATOM     28  H17 <0> d          -0.708   3.841  -0.864  0.00  0.00     0.056 H 
ATOM     29  H18 <0> d          -2.245   3.816   0.033  0.00  0.00     0.056 H 
ENDBRANCH  23  26
ENDBRANCH  17  20
ENDBRANCH   1  17
TORSDOF 7
