REMARK  0 active torsions:
REMARK  status: ('A' for Active; 'I' for Inactive)
ROOT
ATOM      1  C1  <0> d          -0.017   1.384   0.010  0.00  0.00    -0.082 A 
ATOM      2  C2  <0> d           0.002  -0.004   0.002  0.00  0.00    -0.081 A 
ATOM      3  C3  <0> d          -1.173  -0.723   0.009  0.00  0.00    -0.056 A 
ATOM      4  C4  <0> d          -2.392  -0.053   0.024  0.00  0.00     0.042 A 
ATOM      5  C5  <0> d          -2.406   1.353   0.032  0.00  0.00    -0.008 A 
ATOM      6  C6  <0> d          -1.203   2.062   0.030  0.00  0.00    -0.071 A 
ATOM      7  C7  <0> d          -3.818   1.744   0.048  0.00  0.00    -0.056 A 
ATOM      8  C8  <0> d          -4.539   0.612   0.048  0.00  0.00    -0.022 A 
ATOM      9  N1  <0> d          -3.704  -0.472   0.034  0.00  0.00    -0.365 N 
ATOM     10  H1  <0> d           0.914   1.932   0.004  0.00  0.00     0.083 H 
ATOM     11  H2  <0> d           0.948  -0.526  -0.010  0.00  0.00     0.083 H 
ATOM     12  H3  <0> d          -1.148  -1.803   0.002  0.00  0.00     0.086 H 
ATOM     13  H4  <0> d          -1.210   3.142   0.036  0.00  0.00     0.084 H 
ATOM     14  H5  <0> d          -4.205   2.752   0.058  0.00  0.00     0.086 H 
ATOM     15  H6  <0> d          -3.993  -1.398   0.032  0.00  0.00     0.165 HD
ATOM     16  H7  <0> d          -5.617   0.564   0.058  0.00  0.00     0.111 H 
ENDROOT
TORSDOF 0
