REMARK  0 active torsions:
REMARK  status: ('A' for Active; 'I' for Inactive)
ROOT
ATOM      1  C1  <0> d          -0.636  -2.307  -0.003  0.00  0.00    -0.082 A 
ATOM      2  C2  <0> d           0.702  -2.679  -0.018  0.00  0.00    -0.081 A 
ATOM      3  C3  <0> d           1.696  -1.726  -0.023  0.00  0.00    -0.056 A 
ATOM      4  C4  <0> d           1.359  -0.376  -0.013  0.00  0.00     0.045 A 
ATOM      5  C5  <0> d           0.002  -0.004   0.002  0.00  0.00     0.030 A 
ATOM      6  C6  <0> d          -0.989  -0.987   0.007  0.00  0.00    -0.068 A 
ATOM      7  C7  <0> d          -0.018   1.461   0.010  0.00  0.00     0.144 A 
ATOM      8  C8  <0> d           1.261   1.872   0.000  0.00  0.00     0.015 A 
ATOM      9  N1  <0> d           2.099   0.785  -0.014  0.00  0.00    -0.362 N 
ATOM     10  H1  <0> d           3.068   0.829  -0.023  0.00  0.00     0.165 HD
ATOM     11  F1  <0> d          -1.115   2.250   0.020  0.00  0.00    -0.204 F 
ATOM     12  H2  <0> d          -1.403  -3.067   0.001  0.00  0.00     0.083 H 
ATOM     13  H3  <0> d           0.965  -3.726  -0.025  0.00  0.00     0.083 H 
ATOM     14  H4  <0> d           2.734  -2.025  -0.034  0.00  0.00     0.086 H 
ATOM     15  H5  <0> d          -2.032  -0.706   0.018  0.00  0.00     0.085 H 
ATOM     16  H6  <0> d           1.582   2.903   0.002  0.00  0.00     0.116 H 
ENDROOT
TORSDOF 0
