REMARK  0 active torsions:
REMARK  status: ('A' for Active; 'I' for Inactive)
ROOT
ATOM      1  C1  <0> d          -0.013   1.076   0.008  0.00  0.00    -0.063 A 
ATOM      2  C2  <0> d          -1.221   1.760   0.017  0.00  0.00    -0.046 A 
ATOM      3  C3  <0> d          -1.194   3.147   0.030  0.00  0.00     0.114 A 
ATOM      4  C4  <0> d           0.038   3.800   0.024  0.00  0.00     0.157 A 
ATOM      5  N1  <0> d           1.166   3.109   0.009  0.00  0.00    -0.241 NA
ATOM      6  C5  <0> d           1.169   1.788   0.001  0.00  0.00     0.005 A 
ATOM      7  N2  <0> d           0.077   5.197   0.037  0.00  0.00    -0.370 N 
ATOM      8  C6  <0> d          -1.169   5.921  -0.260  0.00  0.00     0.014 C 
ATOM      9  C7  <0> d          -2.311   5.207   0.477  0.00  0.00     0.041 C 
ATOM     10  O1  <0> d          -2.358   3.846   0.041  0.00  0.00    -0.346 OA
ATOM     11  H1  <0> d           0.002  -0.004   0.002  0.00  0.00     0.085 H 
ATOM     12  H2  <0> d          -2.159   1.226   0.019  0.00  0.00     0.088 H 
ATOM     13  H3  <0> d           2.110   1.258  -0.012  0.00  0.00     0.114 H 
ATOM     14  H4  <0> d           0.998   5.755   0.260  0.00  0.00     0.161 HD
ATOM     15  H5  <0> d          -1.081   6.961   0.087  0.00  0.00     0.067 H 
ATOM     16  H6  <0> d          -1.349   5.912  -1.346  0.00  0.00     0.067 H 
ATOM     17  H7  <0> d          -2.129   5.246   1.561  0.00  0.00     0.077 H 
ATOM     18  H8  <0> d          -3.264   5.706   0.247  0.00  0.00     0.077 H 
ENDROOT
TORSDOF 0
