REMARK  3 active torsions:
REMARK  status: ('A' for Active; 'I' for Inactive)
REMARK    1  A    between atoms: C1_1  and  N1_2 
REMARK       I    between atoms: N1_2  and  C2_3 
REMARK    2  A    between atoms: C2_3  and  C3_5 
REMARK    3  A    between atoms: C8_10  and  N2_11 
ROOT
ATOM      1  C3  <0> d          -2.490   0.888  -0.222  0.00  0.00     0.058 A 
ATOM      2  C4  <0> d          -2.481  -0.504  -0.337  0.00  0.00    -0.066 A 
ATOM      3  C5  <0> d          -3.630  -1.222  -0.091  0.00  0.00    -0.082 A 
ATOM      4  C6  <0> d          -4.802  -0.571   0.259  0.00  0.00    -0.081 A 
ATOM      5  C7  <0> d          -4.829   0.804   0.372  0.00  0.00    -0.057 A 
ATOM      6  C8  <0> d          -3.678   1.546   0.134  0.00  0.00     0.041 A 
ATOM      7  H5  <0> d          -1.571  -1.017  -0.615  0.00  0.00     0.085 H 
ATOM      8  H6  <0> d          -3.619  -2.299  -0.177  0.00  0.00     0.083 H 
ATOM      9  H7  <0> d          -5.699  -1.142   0.445  0.00  0.00     0.083 H 
ATOM     10  H8  <0> d          -5.746   1.305   0.645  0.00  0.00     0.086 H 
ENDROOT
BRANCH   1  11
ATOM     11  C2  <0> d          -1.262   1.663  -0.477  0.00  0.00     0.253 C 
ATOM     12  N1  <0> d          -0.159   1.042  -0.941  0.00  0.00    -0.361 N 
ATOM     13  H4  <0> d          -0.173   0.087  -1.106  0.00  0.00     0.162 HD
ATOM     14  O1  <0> d          -1.244   2.861  -0.270  0.00  0.00    -0.268 OA
BRANCH  12  15
ATOM     15  C1  <0> d           1.060   1.813  -1.201  0.00  0.00    -0.018 C 
ATOM     16  H1  <0> d           1.396   2.284  -0.277  0.00  0.00     0.056 H 
ATOM     17  H2  <0> d           1.838   1.147  -1.573  0.00  0.00     0.056 H 
ATOM     18  H3  <0> d           0.852   2.581  -1.946  0.00  0.00     0.056 H 
ENDBRANCH  12  15
ENDBRANCH   1  11
BRANCH   6  19
ATOM     19  N2  <0> d          -3.704   2.929   0.246  0.00  0.00    -0.398 N 
ATOM     20  H9  <0> d          -3.049   3.466  -0.227  0.00  0.00     0.156 HD
ATOM     21  H10 <0> d          -4.376   3.359   0.798  0.00  0.00     0.156 HD
ENDBRANCH   6  19
TORSDOF 3
