REMARK  2 active torsions:
REMARK  status: ('A' for Active; 'I' for Inactive)
REMARK    1  A    between atoms: C1_1  and  N1_2 
REMARK       I    between atoms: N1_2  and  C2_3 
REMARK       I    between atoms: C2_3  and  N2_5 
REMARK    2  A    between atoms: N2_5  and  C3_6 
ROOT
ATOM      1  N1  <0> d           1.142   2.033   0.002  0.00  0.00    -0.347 N 
ATOM      2  C2  <0> d          -0.016   1.344   0.009  0.00  0.00     0.316 C 
ATOM      3  O1  <0> d          -1.077   1.937   0.018  0.00  0.00    -0.247 OA
ATOM      4  N2  <0> d           0.002  -0.004   0.002  0.00  0.00    -0.339 N 
ATOM      5  H4  <0> d           1.988   1.560  -0.009  0.00  0.00     0.163 HD
ATOM      6  H5  <0> d           0.849  -0.478  -0.009  0.00  0.00     0.164 HD
ENDROOT
BRANCH   4   7
ATOM      7  C3  <0> d          -1.256  -0.754   0.010  0.00  0.00     0.014 A 
ATOM      8  C5  <0> d          -1.239  -2.170  -0.570  0.00  0.00    -0.044 A 
ATOM      9  C4  <0> d          -1.353  -1.963   0.943  0.00  0.00    -0.044 A 
ATOM     10  H9  <0> d          -2.130  -2.507  -1.099  0.00  0.00     0.036 H 
ATOM     11  H10 <0> d          -0.291  -2.543  -0.957  0.00  0.00     0.036 H 
ATOM     12  H7  <0> d          -0.480  -2.200   1.551  0.00  0.00     0.036 H 
ATOM     13  H8  <0> d          -2.318  -2.164   1.407  0.00  0.00     0.036 H 
ATOM     14  H6  <0> d          -2.158  -0.160  -0.139  0.00  0.00     0.072 H 
ENDBRANCH   4   7
BRANCH   1  15
ATOM     15  C1  <0> d           1.122   3.498   0.010  0.00  0.00    -0.017 C 
ATOM     16  H1  <0> d           0.595   3.859  -0.873  0.00  0.00     0.056 H 
ATOM     17  H2  <0> d           0.612   3.850   0.907  0.00  0.00     0.056 H 
ATOM     18  H3  <0> d           2.144   3.875   0.002  0.00  0.00     0.056 H 
ENDBRANCH   1  15
TORSDOF 2
