REMARK  1 active torsions:
REMARK  status: ('A' for Active; 'I' for Inactive)
REMARK    1  A    between atoms: C4_4  and  C6_7 
REMARK       I    between atoms: C6_7  and  N2_9 
ROOT
ATOM      1  C1  <0> d           1.192   2.069   0.002  0.00  0.00    -0.065 A 
ATOM      2  C2  <0> d          -0.017   1.395   0.010  0.00  0.00    -0.059 A 
ATOM      3  C3  <0> d           0.002  -0.004   0.002  0.00  0.00     0.079 A 
ATOM      4  C4  <0> d           1.243  -0.664  -0.013  0.00  0.00     0.144 A 
ATOM      5  N1  <0> d           2.371   0.031  -0.020  0.00  0.00    -0.254 NA
ATOM      6  C5  <0> d           2.375   1.347  -0.013  0.00  0.00     0.003 A 
ATOM      7  C7  <0> d          -1.220  -0.750   0.010  0.00  0.00     0.102 C 
ATOM      8  N3  <0> d          -2.190  -1.342   0.017  0.00  0.00    -0.191 NA
ATOM      9  H1  <0> d           1.213   3.149   0.007  0.00  0.00     0.085 H 
ATOM     10  H2  <0> d          -0.952   1.936   0.017  0.00  0.00     0.086 H 
ATOM     11  H3  <0> d           3.318   1.874  -0.020  0.00  0.00     0.114 H 
ENDROOT
BRANCH   4  12
ATOM     12  C6  <0> d           1.290  -2.145  -0.021  0.00  0.00     0.269 C 
ATOM     13  O1  <0> d           0.257  -2.785  -0.015  0.00  0.00    -0.266 OA
ATOM     14  N2  <0> d           2.478  -2.781  -0.036  0.00  0.00    -0.365 N 
ATOM     15  H4  <0> d           2.512  -3.881  -0.042  0.00  0.00     0.159 HD
ATOM     16  H5  <0> d           3.412  -2.201  -0.042  0.00  0.00     0.159 HD
ENDBRANCH   4  12
TORSDOF 1
