REMARK  4 active torsions:
REMARK  status: ('A' for Active; 'I' for Inactive)
REMARK    1  A    between atoms: C1_1  and  N1_2 
REMARK    2  A    between atoms: C4_6  and  C5_7 
REMARK    3  A    between atoms: C5_7  and  C6_8 
REMARK    4  A    between atoms: C6_8  and  C7_9 
ROOT
ATOM      1  N1  <0> d          -1.721   4.280   0.742  0.00  0.00    -0.348 N 
ATOM      2  C2  <0> d          -1.362   5.582   0.963  0.00  0.00    -0.003 A 
ATOM      3  C3  <0> d          -0.190   5.556   1.625  0.00  0.00     0.019 A 
ATOM      4  N2  <0> d           0.155   4.273   1.808  0.00  0.00    -0.246 NA
ATOM      5  C4  <0> d          -0.755   3.503   1.277  0.00  0.00     0.105 A 
ATOM      6  H4  <0> d          -1.913   6.462   0.664  0.00  0.00     0.113 H 
ATOM      7  H5  <0> d           0.372   6.418   1.955  0.00  0.00     0.117 H 
ENDROOT
BRANCH   5   8
ATOM      8  C5  <0> d          -0.735   1.996   1.269  0.00  0.00    -0.001 C 
ATOM      9  H6  <0> d          -1.757   1.619   1.277  0.00  0.00     0.045 H 
ATOM     10  H7  <0> d          -0.207   1.635   2.152  0.00  0.00     0.045 H 
BRANCH   8  11
ATOM     11  C6  <0> d          -0.018   1.503   0.010  0.00  0.00     0.022 C 
ATOM     12  H8  <0> d           1.004   1.880   0.003  0.00  0.00     0.049 H 
ATOM     13  H9  <0> d          -0.545   1.864  -0.873  0.00  0.00     0.049 H 
BRANCH  11  14
ATOM     14  C7  <0> d           0.002  -0.004   0.002  0.00  0.00     0.172 C 
ATOM     15  O1  <0> d          -0.504  -0.620   0.910  0.00  0.00    -0.648 OA
ATOM     16  O2  <0> d           0.583  -0.662  -1.014  0.00  0.00    -0.648 OA
ENDBRANCH  11  14
ENDBRANCH   8  11
ENDBRANCH   5   8
BRANCH   1  17
ATOM     17  C1  <0> d          -2.928   3.816   0.054  0.00  0.00    -0.013 C 
ATOM     18  H1  <0> d          -3.733   3.689   0.778  0.00  0.00     0.057 H 
ATOM     19  H2  <0> d          -3.225   4.551  -0.694  0.00  0.00     0.057 H 
ATOM     20  H3  <0> d          -2.724   2.863  -0.434  0.00  0.00     0.057 H 
ENDBRANCH   1  17
TORSDOF 4
