REMARK  6 active torsions:
REMARK  status: ('A' for Active; 'I' for Inactive)
REMARK    1  A    between atoms: C1_1  and  C2_2 
REMARK    2  A    between atoms: C2_2  and  C3_3 
REMARK    3  A    between atoms: C2_2  and  C4_4 
REMARK    4  A    between atoms: C4_4  and  C5_5 
REMARK    5  A    between atoms: C5_5  and  C6_7 
REMARK    6  A    between atoms: C5_5  and  O2_9 
ROOT
ATOM      1  C2  <0> d          -0.019   1.526   0.010  0.00  0.00    -0.058 C 
ATOM      2  H5  <0> d          -0.546   1.887  -0.873  0.00  0.00     0.039 H 
ENDROOT
BRANCH   1   3
ATOM      3  C1  <0> d           0.002  -0.004   0.002  0.00  0.00    -0.073 C 
ATOM      4  H2  <0> d           0.529  -0.365   0.885  0.00  0.00     0.028 H 
ATOM      5  H3  <0> d          -1.020  -0.381   0.010  0.00  0.00     0.028 H 
ATOM      6  H4  <0> d           0.512  -0.356  -0.895  0.00  0.00     0.028 H 
ENDBRANCH   1   3
BRANCH   1   7
ATOM      7  C3  <0> d           1.417   2.055  -0.000  0.00  0.00    -0.073 C 
ATOM      8  H6  <0> d           1.402   3.145   0.006  0.00  0.00     0.028 H 
ATOM      9  H7  <0> d           1.944   1.694   0.883  0.00  0.00     0.028 H 
ATOM     10  H8  <0> d           1.927   1.704  -0.897  0.00  0.00     0.028 H 
ENDBRANCH   1   7
BRANCH   1  11
ATOM     11  C4  <0> d          -0.735   2.019   1.269  0.00  0.00    -0.029 C 
ATOM     12  H9  <0> d          -1.727   1.571   1.322  0.00  0.00     0.038 H 
ATOM     13  H10 <0> d          -0.160   1.734   2.150  0.00  0.00     0.038 H 
BRANCH  11  14
ATOM     14  C5  <0> d          -0.866   3.543   1.217  0.00  0.00     0.119 C 
ATOM     15  H1  <0> d           0.119   3.987   1.075  0.00  0.00     0.100 H 
BRANCH  14  16
ATOM     16  C6  <0> d          -1.460   4.040   2.510  0.00  0.00     0.203 C 
ATOM     17  O1  <0> d          -2.547   4.568   2.512  0.00  0.00    -0.646 OA
ATOM     18  O3  <0> d          -0.781   3.897   3.659  0.00  0.00    -0.646 OA
ENDBRANCH  14  16
BRANCH  14  19
ATOM     19  O2  <0> d          -1.716   3.911   0.130  0.00  0.00    -0.385 OA
ATOM     20  H11 <0> d          -2.611   3.549   0.190  0.00  0.00     0.210 HD
ENDBRANCH  14  19
ENDBRANCH  11  14
ENDBRANCH   1  11
TORSDOF 6
