REMARK  3 active torsions:
REMARK  status: ('A' for Active; 'I' for Inactive)
REMARK    1  A    between atoms: C1_1  and  S1_2 
REMARK    2  A    between atoms: S1_2  and  C2_3 
REMARK    3  A    between atoms: N3_7  and  N4_8 
ROOT
ATOM      1  C2  <0> d           0.580   3.172   0.014  0.00  0.00     0.205 A 
ATOM      2  N1  <0> d          -0.729   3.072   0.025  0.00  0.00    -0.122 NA
ATOM      3  N2  <0> d          -1.073   1.834   0.017  0.00  0.00    -0.141 NA
ATOM      4  C3  <0> d          -0.013   1.076   0.008  0.00  0.00     0.105 A 
ATOM      5  N3  <0> d           1.078   1.901   0.002  0.00  0.00    -0.247 N 
ATOM      6  H4  <0> d           0.002  -0.004   0.002  0.00  0.00     0.148 H 
ENDROOT
BRANCH   1   7
ATOM      7  S1  <0> d           1.516   4.665   0.013  0.00  0.00    -0.093 SA
BRANCH   7   8
ATOM      8  C1  <0> d           0.174   5.878   0.032  0.00  0.00    -0.027 C 
ATOM      9  H1  <0> d          -0.449   5.746  -0.853  0.00  0.00     0.042 H 
ATOM     10  H2  <0> d          -0.432   5.736   0.927  0.00  0.00     0.042 H 
ATOM     11  H3  <0> d           0.593   6.884   0.034  0.00  0.00     0.042 H 
ENDBRANCH   7   8
ENDBRANCH   1   7
BRANCH   5  12
ATOM     12  N4  <0> d           2.393   1.531  -0.013  0.00  0.00    -0.240 NA
ATOM     13  H5  <0> d           2.732   1.437  -0.958  0.00  0.00     0.143 HD
ATOM     14  H6  <0> d           2.958   2.182   0.511  0.00  0.00     0.143 HD
ENDBRANCH   5  12
TORSDOF 3
