REMARK  0 active torsions:
REMARK  status: ('A' for Active; 'I' for Inactive)
ROOT
ATOM      1  C1  <0> d          -1.237   2.111   0.019  0.00  0.00    -0.060 A 
ATOM      2  C2  <0> d          -1.259   3.490   0.032  0.00  0.00    -0.043 A 
ATOM      3  C3  <0> d          -0.075   4.208   0.024  0.00  0.00     0.137 A 
ATOM      4  C4  <0> d           1.153   3.535   0.010  0.00  0.00     0.084 A 
ATOM      5  C5  <0> d           1.180   2.142   0.002  0.00  0.00    -0.040 A 
ATOM      6  C6  <0> d          -0.017   1.428   0.010  0.00  0.00     0.046 A 
ATOM      7  C7  <0> d           0.002  -0.004   0.002  0.00  0.00     0.099 C 
ATOM      8  N1  <0> d           0.018  -1.140  -0.004  0.00  0.00    -0.191 NA
ATOM      9  C8  <0> d           2.378   4.277   0.002  0.00  0.00     0.102 C 
ATOM     10  N2  <0> d           3.349   4.865  -0.003  0.00  0.00    -0.191 NA
ATOM     11  F1  <0> d          -0.105   5.558   0.032  0.00  0.00    -0.204 F 
ATOM     12  H1  <0> d          -2.164   1.558   0.021  0.00  0.00     0.086 H 
ATOM     13  H2  <0> d          -2.204   4.013   0.044  0.00  0.00     0.088 H 
ATOM     14  H3  <0> d           2.124   1.618  -0.009  0.00  0.00     0.088 H 
ENDROOT
TORSDOF 0
