REMARK  2 active torsions:
REMARK  status: ('A' for Active; 'I' for Inactive)
REMARK    1  A    between atoms: C1_1  and  C2_2 
REMARK    2  A    between atoms: C4_5  and  C6_10 
ROOT
ATOM      1  C2  <0> d          -0.797   1.615   1.229  0.00  0.00     0.029 C 
ATOM      2  H1  <0> d          -1.160   0.785   1.836  0.00  0.00     0.055 H 
ATOM      3  C3  <0> d          -0.013   1.086   0.008  0.00  0.00    -0.029 C 
ATOM      4  C4  <0> d          -0.820   1.627  -1.191  0.00  0.00     0.045 C 
ATOM      5  H2  <0> d          -1.448   0.841  -1.610  0.00  0.00     0.083 H 
ATOM      6  O1  <0> d          -1.644   2.699  -0.641  0.00  0.00    -0.316 OA
ATOM      7  C5  <0> d          -1.962   2.381   0.627  0.00  0.00     0.263 C 
ATOM      8  O2  <0> d          -2.994   2.660   1.190  0.00  0.00    -0.265 OA
ATOM      9  H6  <0> d           0.002  -0.004   0.002  0.00  0.00     0.038 H 
ATOM     10  H7  <0> d           1.002   1.484   0.001  0.00  0.00     0.038 H 
ENDROOT
BRANCH   1  11
ATOM     11  C1  <0> d           0.082   2.545   2.066  0.00  0.00    -0.064 C 
ATOM     12  H3  <0> d           0.401   3.390   1.456  0.00  0.00     0.028 H 
ATOM     13  H4  <0> d          -0.485   2.909   2.923  0.00  0.00     0.028 H 
ATOM     14  H5  <0> d           0.958   1.999   2.417  0.00  0.00     0.028 H 
ENDBRANCH   1  11
BRANCH   4  15
ATOM     15  C6  <0> d           0.124   2.179  -2.262  0.00  0.00    -0.052 C 
ATOM     16  H8  <0> d           0.785   1.384  -2.607  0.00  0.00     0.030 H 
ATOM     17  H9  <0> d          -0.460   2.557  -3.101  0.00  0.00     0.030 H 
ATOM     18  H10 <0> d           0.719   2.988  -1.839  0.00  0.00     0.030 H 
ENDBRANCH   4  15
TORSDOF 2
