REMARK  1 active torsions:
REMARK  status: ('A' for Active; 'I' for Inactive)
REMARK    1  A    between atoms: C3_3  and  O1_9 
ROOT
ATOM      1  C1  <0> d          -1.219   1.751   0.017  0.00  0.00    -0.059 A 
ATOM      2  C2  <0> d          -0.013   1.076   0.008  0.00  0.00    -0.046 A 
ATOM      3  C3  <0> d           1.178   1.785   0.000  0.00  0.00     0.104 A 
ATOM      4  C4  <0> d           1.157   3.175   0.008  0.00  0.00     0.150 A 
ATOM      5  C5  <0> d          -0.052   3.846   0.022  0.00  0.00    -0.022 A 
ATOM      6  C6  <0> d          -1.239   3.134   0.029  0.00  0.00     0.037 A 
ATOM      7 Cl1  <0> d          -2.756   3.978   0.047  0.00  0.00    -0.084 Cl
ATOM      8  F1  <0> d           2.316   3.869  -0.000  0.00  0.00    -0.203 F 
ATOM      9  H1  <0> d          -2.146   1.198   0.019  0.00  0.00     0.086 H 
ATOM     10  H2  <0> d           0.002  -0.004   0.002  0.00  0.00     0.087 H 
ATOM     11  H3  <0> d          -0.070   4.925   0.028  0.00  0.00     0.090 H 
ENDROOT
BRANCH   3  12
ATOM     12  O1  <0> d           2.365   1.123  -0.015  0.00  0.00    -0.358 OA
ATOM     13  H4  <0> d           2.700   0.936  -0.902  0.00  0.00     0.217 HD
ENDBRANCH   3  12
TORSDOF 1
