REMARK  4 active torsions:
REMARK  status: ('A' for Active; 'I' for Inactive)
REMARK    1  A    between atoms: C1_1  and  C2_2 
REMARK    2  A    between atoms: C2_2  and  N1_3 
REMARK    3  A    between atoms: N1_3  and  C3_4 
REMARK    4  A    between atoms: C4_5  and  N4_10 
ROOT
ATOM      1  C3  <0> d           0.831  -1.842  -1.432  0.00  0.00     0.169 A 
ATOM      2  C4  <0> d           1.492  -2.297  -2.582  0.00  0.00     0.167 A 
ATOM      3  N2  <0> d           1.624  -3.598  -2.792  0.00  0.00    -0.239 NA
ATOM      4  C5  <0> d           1.133  -4.463  -1.917  0.00  0.00     0.021 A 
ATOM      5  C6  <0> d           0.483  -4.015  -0.786  0.00  0.00     0.021 A 
ATOM      6  N3  <0> d           0.349  -2.716  -0.563  0.00  0.00    -0.239 NA
ATOM      7  H7  <0> d           1.241  -5.523  -2.090  0.00  0.00     0.117 H 
ATOM      8  H8  <0> d           0.085  -4.726  -0.078  0.00  0.00     0.117 H 
ENDROOT
BRANCH   1   9
ATOM      9  N1  <0> d           0.688  -0.476  -1.203  0.00  0.00    -0.372 N 
ATOM     10  H6  <0> d           1.042   0.162  -1.842  0.00  0.00     0.161 HD
BRANCH   9  11
ATOM     11  C2  <0> d           0.002  -0.004   0.002  0.00  0.00    -0.009 C 
ATOM     12  H4  <0> d           0.529  -0.365   0.885  0.00  0.00     0.063 H 
ATOM     13  H5  <0> d          -1.020  -0.381   0.010  0.00  0.00     0.063 H 
BRANCH  11  14
ATOM     14  C1  <0> d          -0.019   1.526   0.010  0.00  0.00    -0.061 C 
ATOM     15  H1  <0> d           1.004   1.903   0.003  0.00  0.00     0.029 H 
ATOM     16  H2  <0> d          -0.546   1.887  -0.873  0.00  0.00     0.029 H 
ATOM     17  H3  <0> d          -0.529   1.877   0.907  0.00  0.00     0.029 H 
ENDBRANCH  11  14
ENDBRANCH   9  11
ENDBRANCH   1   9
BRANCH   2  18
ATOM     18  N4  <0> d           2.007  -1.386  -3.499  0.00  0.00    -0.381 N 
ATOM     19  H9  <0> d           1.909  -0.433  -3.344  0.00  0.00     0.157 HD
ATOM     20  H10 <0> d           2.464  -1.703  -4.294  0.00  0.00     0.157 HD
ENDBRANCH   2  18
TORSDOF 4
