REMARK  0 active torsions:
REMARK  status: ('A' for Active; 'I' for Inactive)
ROOT
ATOM      1  C1  <0> d          -1.818   5.323  -1.608  0.00  0.00    -0.064 C 
ATOM      2  C2  <0> d          -0.285   5.100  -1.699  0.00  0.00    -0.061 C 
ATOM      3  C3  <0> d          -0.052   3.906  -0.764  0.00  0.00    -0.050 C 
ATOM      4  H1  <0> d          -0.082   4.227   0.277  0.00  0.00     0.040 H 
ATOM      5  C4  <0> d           1.216   3.114  -1.036  0.00  0.00    -0.055 C 
ATOM      6  C5  <0> d           1.282   1.978   0.000  0.00  0.00    -0.009 C 
ATOM      7  C6  <0> d          -0.014   1.203   0.009  0.00  0.00     0.127 C 
ATOM      8  O1  <0> d           0.002  -0.004   0.002  0.00  0.00    -0.298 OA
ATOM      9  C7  <0> d          -1.340   1.948   0.019  0.00  0.00    -0.006 C 
ATOM     10  C8  <0> d          -1.260   2.986  -1.085  0.00  0.00    -0.044 C 
ATOM     11  H2  <0> d          -1.116   2.504  -2.051  0.00  0.00     0.041 H 
ATOM     12  C9  <0> d          -2.432   3.970  -1.175  0.00  0.00    -0.061 C 
ATOM     13  H3  <0> d          -2.041   6.090  -0.865  0.00  0.00     0.033 H 
ATOM     14  H4  <0> d          -2.211   5.619  -2.580  0.00  0.00     0.033 H 
ATOM     15  H5  <0> d           0.254   5.978  -1.344  0.00  0.00     0.033 H 
ATOM     16  H6  <0> d           0.009   4.853  -2.720  0.00  0.00     0.033 H 
ATOM     17  H7  <0> d           2.086   3.762  -0.931  0.00  0.00     0.034 H 
ATOM     18  H8  <0> d           1.183   2.696  -2.042  0.00  0.00     0.034 H 
ATOM     19  H9  <0> d           1.436   2.365   0.910  0.00  0.00     0.044 H 
ATOM     20  H10 <0> d           2.102   1.307  -0.255  0.00  0.00     0.044 H 
ATOM     21  H11 <0> d          -2.086   1.302  -0.143  0.00  0.00     0.044 H 
ATOM     22  H12 <0> d          -1.486   2.439   0.981  0.00  0.00     0.044 H 
ATOM     23  H13 <0> d          -2.902   4.065  -0.196  0.00  0.00     0.033 H 
ATOM     24  H14 <0> d          -3.160   3.634  -1.912  0.00  0.00     0.033 H 
ENDROOT
TORSDOF 0
