REMARK  8 active torsions:
REMARK  status: ('A' for Active; 'I' for Inactive)
REMARK    1  A    between atoms: C1_1  and  C2_2 
REMARK    2  A    between atoms: C2_2  and  C3_4 
REMARK    3  A    between atoms: C2_2  and  C8_9 
REMARK    4  A    between atoms: C3_4  and  C4_5 
REMARK    5  A    between atoms: C4_5  and  C5_6 
REMARK    6  A    between atoms: C4_5  and  C6_7 
REMARK    7  A    between atoms: C4_5  and  C7_8 
REMARK    8  A    between atoms: C8_9  and  O1_10 
ROOT
ATOM      1  C3  <0> d           0.403  -0.875  -1.076  0.00  0.00    -0.054 C 
ATOM      2  H5  <0> d           0.099  -1.874  -0.763  0.00  0.00     0.034 H 
ATOM      3  H6  <0> d           0.079  -0.701  -2.102  0.00  0.00     0.034 H 
ENDROOT
BRANCH   1   4
ATOM      4  C2  <0> d           1.927  -0.759  -0.996  0.00  0.00    -0.036 C 
ATOM      5  H1  <0> d           2.208   0.292  -0.926  0.00  0.00     0.042 H 
BRANCH   4   6
ATOM      6  C1  <0> d           2.431  -1.504   0.242  0.00  0.00    -0.071 C 
ATOM      7  H2  <0> d           3.519  -1.552   0.219  0.00  0.00     0.028 H 
ATOM      8  H3  <0> d           2.110  -0.976   1.140  0.00  0.00     0.028 H 
ATOM      9  H4  <0> d           2.023  -2.515   0.249  0.00  0.00     0.028 H 
ENDBRANCH   4   6
BRANCH   4  10
ATOM     10  C8  <0> d           2.552  -1.372  -2.250  0.00  0.00     0.020 C 
ATOM     11  H16 <0> d           2.346  -2.442  -2.273  0.00  0.00     0.074 H 
ATOM     12  H17 <0> d           2.126  -0.901  -3.136  0.00  0.00     0.074 H 
BRANCH  10  13
ATOM     13  O1  <0> d           3.965  -1.160  -2.231  0.00  0.00    -0.400 OA
ATOM     14  H18 <0> d           4.428  -1.523  -2.998  0.00  0.00     0.209 HD
ENDBRANCH  10  13
ENDBRANCH   4  10
ENDBRANCH   1   4
BRANCH   1  15
ATOM     15  C4  <0> d          -0.237   0.165  -0.155  0.00  0.00    -0.051 C 
BRANCH  15  16
ATOM     16  C5  <0> d           0.078   1.569  -0.675  0.00  0.00    -0.070 C 
ATOM     17  H7  <0> d           1.158   1.716  -0.694  0.00  0.00     0.028 H 
ATOM     18  H8  <0> d          -0.321   1.681  -1.683  0.00  0.00     0.028 H 
ATOM     19  H9  <0> d          -0.378   2.311  -0.019  0.00  0.00     0.028 H 
ENDBRANCH  15  16
BRANCH  15  20
ATOM     20  C6  <0> d           0.323   0.008   1.260  0.00  0.00    -0.070 C 
ATOM     21  H10 <0> d          -0.278   0.593   1.956  0.00  0.00     0.028 H 
ATOM     22  H11 <0> d           0.292  -1.043   1.548  0.00  0.00     0.028 H 
ATOM     23  H12 <0> d           1.354   0.361   1.284  0.00  0.00     0.028 H 
ENDBRANCH  15  20
BRANCH  15  24
ATOM     24  C7  <0> d          -1.753  -0.041  -0.130  0.00  0.00    -0.070 C 
ATOM     25  H13 <0> d          -2.152   0.072  -1.138  0.00  0.00     0.028 H 
ATOM     26  H14 <0> d          -1.978  -1.041   0.241  0.00  0.00     0.028 H 
ATOM     27  H15 <0> d          -2.209   0.701   0.526  0.00  0.00     0.028 H 
ENDBRANCH  15  24
ENDBRANCH   1  15
TORSDOF 8
