REMARK  5 active torsions:
REMARK  status: ('A' for Active; 'I' for Inactive)
REMARK    1  A    between atoms: C1_1  and  N1_2 
REMARK    2  A    between atoms: N1_2  and  C2_3 
REMARK    3  A    between atoms: N1_2  and  C4_6 
REMARK    4  A    between atoms: C2_3  and  O1_4 
REMARK    5  A    between atoms: O1_4  and  C3_5 
ROOT
ATOM      1  N1  <0> d           0.002  -0.004   0.002  0.00  0.00    -0.364 N 
ENDROOT
BRANCH   1   2
ATOM      2  C1  <0> d           0.103   1.457   0.023  0.00  0.00    -0.017 C 
ATOM      3  H1  <0> d           1.151   1.750  -0.042  0.00  0.00     0.056 H 
ATOM      4  H2  <0> d          -0.443   1.871  -0.825  0.00  0.00     0.056 H 
ATOM      5  H3  <0> d          -0.325   1.838   0.950  0.00  0.00     0.056 H 
ENDBRANCH   1   2
BRANCH   1   6
ATOM      6  C2  <0> d           0.036  -0.758   1.257  0.00  0.00     0.078 C 
ATOM      7  H4  <0> d           0.236  -1.809   1.045  0.00  0.00     0.107 H 
ATOM      8  H5  <0> d           0.823  -0.361   1.899  0.00  0.00     0.107 H 
BRANCH   6   9
ATOM      9  O1  <0> d          -1.224  -0.638   1.920  0.00  0.00    -0.377 OA
BRANCH   9  10
ATOM     10  C3  <0> d          -2.238  -1.504   1.403  0.00  0.00     0.006 C 
ATOM     11  H6  <0> d          -2.405  -1.279   0.350  0.00  0.00     0.066 H 
ATOM     12  H7  <0> d          -1.917  -2.540   1.508  0.00  0.00     0.066 H 
ATOM     13  H8  <0> d          -3.163  -1.351   1.959  0.00  0.00     0.066 H 
ENDBRANCH   9  10
ENDBRANCH   6   9
ENDBRANCH   1   6
BRANCH   1  14
ATOM     14  C4  <0> d          -0.126  -0.678  -1.215  0.00  0.00     0.031 A 
ATOM     15  C9  <0> d          -0.341  -2.050  -1.231  0.00  0.00    -0.057 A 
ATOM     16  C8  <0> d          -0.472  -2.713  -2.435  0.00  0.00    -0.081 A 
ATOM     17  H13 <0> d          -0.409  -2.598  -0.302  0.00  0.00     0.086 H 
ATOM     18  C7  <0> d          -0.379  -2.014  -3.625  0.00  0.00    -0.083 A 
ATOM     19  H12 <0> d          -0.643  -3.779  -2.449  0.00  0.00     0.083 H 
ATOM     20  C6  <0> d          -0.160  -0.648  -3.612  0.00  0.00    -0.081 A 
ATOM     21  H11 <0> d          -0.479  -2.535  -4.565  0.00  0.00     0.083 H 
ATOM     22  C5  <0> d          -0.033   0.021  -2.411  0.00  0.00    -0.057 A 
ATOM     23  H10 <0> d          -0.088  -0.105  -4.543  0.00  0.00     0.083 H 
ATOM     24  H9  <0> d           0.137   1.088  -2.402  0.00  0.00     0.086 H 
ENDBRANCH   1  14
TORSDOF 5
