REMARK  0 active torsions:
REMARK  status: ('A' for Active; 'I' for Inactive)
ROOT
ATOM      1  C1  <0> d           3.518  -1.245  -0.471  0.00  0.00    -0.055 C 
ATOM      2  C2  <0> d           3.530   0.236  -0.031  0.00  0.00    -0.024 C 
ATOM      3  C3  <0> d           2.075   0.650  -0.014  0.00  0.00     0.036 A 
ATOM      4  C4  <0> d           1.278  -0.432  -0.013  0.00  0.00     0.060 A 
ATOM      5  N1  <0> d           0.002  -0.004   0.002  0.00  0.00    -0.223 NA
ATOM      6  C5  <0> d          -0.016   1.301   0.009  0.00  0.00     0.201 A 
ATOM      7  N2  <0> d           1.258   1.751  -0.001  0.00  0.00    -0.333 N 
ATOM      8  H1  <0> d           1.695   2.760   0.001  0.00  0.00     0.168 HD
ATOM      9 Cl1  <0> d          -1.440   2.294   0.022  0.00  0.00    -0.043 Cl
ATOM     10  C6  <0> d           2.109  -1.697  -0.027  0.00  0.00    -0.022 C 
ATOM     11  H2  <0> d           4.277  -1.854   0.042  0.00  0.00     0.034 H 
ATOM     12  H3  <0> d           3.618  -1.373  -1.558  0.00  0.00     0.034 H 
ATOM     13  H4  <0> d           3.987   0.319   0.966  0.00  0.00     0.042 H 
ATOM     14  H5  <0> d           4.113   0.828  -0.752  0.00  0.00     0.042 H 
ATOM     15  H6  <0> d           1.717  -2.432  -0.745  0.00  0.00     0.042 H 
ATOM     16  H7  <0> d           2.169  -2.155   0.972  0.00  0.00     0.042 H 
ENDROOT
TORSDOF 0
