REMARK  0 active torsions:
REMARK  status: ('A' for Active; 'I' for Inactive)
ROOT
ATOM      1  C1  <0> d           0.002  -0.004   0.002  0.00  0.00    -0.007 A 
ATOM      2  C2  <0> d          -0.016   1.328   0.009  0.00  0.00    -0.026 A 
ATOM      3  S1  <0> d           1.726   1.720  -0.005  0.00  0.00    -0.062 SA
ATOM      4  C3  <0> d           2.343   0.053  -0.020  0.00  0.00     0.178 A 
ATOM      5  N1  <0> d           1.195  -0.693  -0.013  0.00  0.00    -0.308 N 
ATOM      6  C4  <0> d           1.631  -2.017  -0.024  0.00  0.00     0.026 A 
ATOM      7  C5  <0> d           2.975  -2.004  -0.036  0.00  0.00     0.144 A 
ATOM      8  N2  <0> d           3.386  -0.726  -0.034  0.00  0.00    -0.210 NA
ATOM      9 Cl1  <0> d           4.004  -3.402  -0.054  0.00  0.00    -0.061 Cl
ATOM     10  H1  <0> d          -0.930  -0.550   0.008  0.00  0.00     0.113 H 
ATOM     11  H2  <0> d          -0.864   1.997   0.017  0.00  0.00     0.097 H 
ATOM     12  H3  <0> d           1.002  -2.895  -0.022  0.00  0.00     0.117 H 
ENDROOT
TORSDOF 0
