REMARK  1 active torsions:
REMARK  status: ('A' for Active; 'I' for Inactive)
REMARK    1  A    between atoms: C3_6  and  C4_7 
ROOT
ATOM      1  C1  <0> d           0.637   3.052   0.012  0.00  0.00    -0.035 A 
ATOM      2  C2  <0> d           1.071   1.773   0.001  0.00  0.00    -0.002 A 
ATOM      3  N1  <0> d          -0.011   0.966   0.007  0.00  0.00    -0.289 N 
ATOM      4  H1  <0> d           0.003  -0.034   0.006  0.00  0.00     0.188 HD
ATOM      5  N2  <0> d          -1.156   1.772   0.017  0.00  0.00    -0.173 NA
ATOM      6  C3  <0> d          -0.770   3.030   0.026  0.00  0.00     0.108 A 
ATOM      7  H3  <0> d           1.260   3.935   0.011  0.00  0.00     0.089 H 
ATOM      8  H4  <0> d           2.103   1.452  -0.010  0.00  0.00     0.113 H 
ENDROOT
BRANCH   6   9
ATOM      9  C4  <0> d          -1.662   4.217   0.040  0.00  0.00     0.108 A 
ATOM     10  N4  <0> d          -1.277   5.476   0.048  0.00  0.00    -0.173 NA
ATOM     11  N3  <0> d          -2.422   6.282   0.058  0.00  0.00    -0.289 N 
ATOM     12  C6  <0> d          -3.504   5.475   0.064  0.00  0.00    -0.002 A 
ATOM     13  H2  <0> d          -2.435   7.282   0.061  0.00  0.00     0.188 HD
ATOM     14  C5  <0> d          -3.070   4.196   0.053  0.00  0.00    -0.035 A 
ATOM     15  H6  <0> d          -4.535   5.796   0.075  0.00  0.00     0.113 H 
ATOM     16  H5  <0> d          -3.693   3.313   0.054  0.00  0.00     0.089 H 
ENDBRANCH   6   9
TORSDOF 1
