REMARK  4 active torsions:
REMARK  status: ('A' for Active; 'I' for Inactive)
REMARK    1  A    between atoms: C1_1  and  C2_2 
REMARK    2  A    between atoms: C2_2  and  C3_3 
REMARK    3  A    between atoms: C3_3  and  N1_4 
REMARK    4  A    between atoms: C6_7  and  C7_9 
ROOT
ATOM      1  N1  <0> d          -0.656   3.155   0.025  0.00  0.00    -0.280 N 
ATOM      2  C4  <0> d          -1.101   1.880   0.017  0.00  0.00     0.001 A 
ATOM      3  C5  <0> d          -0.013   1.076   0.008  0.00  0.00    -0.030 A 
ATOM      4  C6  <0> d           1.102   1.948   0.002  0.00  0.00     0.154 A 
ATOM      5  N2  <0> d           0.628   3.178   0.013  0.00  0.00    -0.166 NA
ATOM      6  H8  <0> d          -2.133   1.562   0.019  0.00  0.00     0.114 H 
ATOM      7  H9  <0> d           0.002  -0.004   0.002  0.00  0.00     0.089 H 
ENDROOT
BRANCH   1   8
ATOM      8  C3  <0> d          -1.515   4.342   0.038  0.00  0.00     0.016 C 
ATOM      9  H6  <0> d          -1.384   4.896  -0.892  0.00  0.00     0.067 H 
ATOM     10  H7  <0> d          -2.557   4.036   0.136  0.00  0.00     0.067 H 
BRANCH   8  11
ATOM     11  C2  <0> d          -1.133   5.234   1.221  0.00  0.00    -0.052 C 
ATOM     12  H4  <0> d          -1.264   4.681   2.151  0.00  0.00     0.035 H 
ATOM     13  H5  <0> d          -0.091   5.541   1.123  0.00  0.00     0.035 H 
BRANCH  11  14
ATOM     14  C1  <0> d          -2.030   6.474   1.235  0.00  0.00    -0.075 C 
ATOM     15  H1  <0> d          -3.071   6.168   1.332  0.00  0.00     0.027 H 
ATOM     16  H2  <0> d          -1.758   7.110   2.078  0.00  0.00     0.027 H 
ATOM     17  H3  <0> d          -1.899   7.028   0.305  0.00  0.00     0.027 H 
ENDBRANCH  11  14
ENDBRANCH   8  11
ENDBRANCH   1   8
BRANCH   4  18
ATOM     18  C7  <0> d           2.525   1.555  -0.013  0.00  0.00     0.230 C 
ATOM     19  O1  <0> d           2.830   0.379  -0.022  0.00  0.00    -0.643 OA
ATOM     20  O2  <0> d           3.485   2.500  -0.017  0.00  0.00    -0.643 OA
ENDBRANCH   4  18
TORSDOF 4
