REMARK  4 active torsions:
REMARK  status: ('A' for Active; 'I' for Inactive)
REMARK    1  A    between atoms: C3_3  and  C5_7 
REMARK    2  A    between atoms: C5_7  and  C6_8 
REMARK    3  A    between atoms: C6_8  and  C7_9 
REMARK    4  A    between atoms: C7_9  and  O2_10 
ROOT
ATOM      1  C1  <0> d           3.885   6.791  -1.149  0.00  0.00    -0.043 C 
ATOM      2  C2  <0> d           3.783   5.905   0.116  0.00  0.00    -0.039 C 
ATOM      3  C3  <0> d           2.393   5.250   0.007  0.00  0.00     0.038 C 
ATOM      4  H1  <0> d           1.771   5.559   0.848  0.00  0.00     0.083 H 
ATOM      5  O1  <0> d           1.803   5.694  -1.226  0.00  0.00    -0.386 OA
ATOM      6  C4  <0> d           2.396   6.975  -1.537  0.00  0.00     0.020 C 
ATOM      7  H2  <0> d           4.348   7.750  -0.915  0.00  0.00     0.036 H 
ATOM      8  H3  <0> d           4.434   6.279  -1.939  0.00  0.00     0.036 H 
ATOM      9  H4  <0> d           3.848   6.516   1.017  0.00  0.00     0.036 H 
ATOM     10  H5  <0> d           4.564   5.144   0.113  0.00  0.00     0.036 H 
ATOM     11  H6  <0> d           1.938   7.763  -0.939  0.00  0.00     0.074 H 
ATOM     12  H7  <0> d           2.301   7.197  -2.600  0.00  0.00     0.074 H 
ENDROOT
BRANCH   3  13
ATOM     13  C5  <0> d           2.534   3.726  -0.002  0.00  0.00    -0.039 C 
ATOM     14  H8  <0> d           3.088   3.407   0.881  0.00  0.00     0.036 H 
ATOM     15  H9  <0> d           3.071   3.417  -0.899  0.00  0.00     0.036 H 
BRANCH  13  16
ATOM     16  C6  <0> d           1.145   3.085   0.008  0.00  0.00    -0.043 C 
ATOM     17  H10 <0> d           0.591   3.404  -0.875  0.00  0.00     0.036 H 
ATOM     18  H11 <0> d           0.608   3.395   0.904  0.00  0.00     0.036 H 
BRANCH  16  19
ATOM     19  C7  <0> d           1.286   1.562  -0.002  0.00  0.00     0.017 C 
ATOM     20  H12 <0> d           1.840   1.243   0.881  0.00  0.00     0.073 H 
ATOM     21  H13 <0> d           1.823   1.252  -0.899  0.00  0.00     0.073 H 
BRANCH  19  22
ATOM     22  O2  <0> d          -0.011   0.963   0.007  0.00  0.00    -0.401 OA
ATOM     23  H14 <0> d           0.002  -0.004   0.002  0.00  0.00     0.209 HD
ENDBRANCH  19  22
ENDBRANCH  16  19
ENDBRANCH  13  16
ENDBRANCH   3  13
TORSDOF 4
