REMARK  2 active torsions:
REMARK  status: ('A' for Active; 'I' for Inactive)
REMARK    1  A    between atoms: C1_1  and  C2_2 
REMARK    2  A    between atoms: C6_7  and  C7_8 
ROOT
ATOM      1  C2  <0> d          -1.188   3.148   0.031  0.00  0.00    -0.038 A 
ATOM      2  C3  <0> d          -1.217   1.761   0.017  0.00  0.00    -0.074 A 
ATOM      3  C4  <0> d          -0.013   1.076   0.008  0.00  0.00    -0.066 A 
ATOM      4  C5  <0> d           1.170   1.792   0.001  0.00  0.00     0.003 A 
ATOM      5  N1  <0> d           1.160   3.110   0.007  0.00  0.00    -0.265 NA
ATOM      6  C6  <0> d           0.033   3.795   0.022  0.00  0.00     0.036 A 
ATOM      7  H4  <0> d          -2.157   1.228   0.019  0.00  0.00     0.084 H 
ATOM      8  H5  <0> d           0.002  -0.004   0.002  0.00  0.00     0.085 H 
ATOM      9  H6  <0> d           2.113   1.265  -0.011  0.00  0.00     0.114 H 
ENDROOT
BRANCH   1  10
ATOM     10  C1  <0> d          -2.471   3.938   0.048  0.00  0.00    -0.049 C 
ATOM     11  H1  <0> d          -2.791   4.134  -0.975  0.00  0.00     0.033 H 
ATOM     12  H2  <0> d          -3.242   3.368   0.567  0.00  0.00     0.033 H 
ATOM     13  H3  <0> d          -2.308   4.884   0.566  0.00  0.00     0.033 H 
ENDBRANCH   1  10
BRANCH   6  14
ATOM     14  C7  <0> d           0.077   5.302   0.029  0.00  0.00    -0.035 C 
ATOM     15  H7  <0> d           0.077   5.670  -0.997  0.00  0.00     0.035 H 
ATOM     16  H8  <0> d          -0.797   5.688   0.553  0.00  0.00     0.035 H 
ATOM     17  H9  <0> d           0.982   5.636   0.536  0.00  0.00     0.035 H 
ENDBRANCH   6  14
TORSDOF 2
