REMARK  5 active torsions:
REMARK  status: ('A' for Active; 'I' for Inactive)
REMARK    1  A    between atoms: C1_1  and  O1_2 
REMARK    2  A    between atoms: O1_2  and  C2_3 
REMARK    3  A    between atoms: C2_3  and  C3_5 
REMARK    4  A    between atoms: C2_3  and  C4_7 
REMARK    5  A    between atoms: C3_5  and  O2_6 
ROOT
ATOM      1  C2  <0> d           1.151   3.592   0.010  0.00  0.00     0.083 C 
ATOM      2  H1  <0> d           0.177   3.944  -0.331  0.00  0.00     0.094 H 
ENDROOT
BRANCH   1   3
ATOM      3  O1  <0> d           2.168   4.087  -0.863  0.00  0.00    -0.384 OA
BRANCH   3   4
ATOM      4  C1  <0> d           1.857   5.346  -1.464  0.00  0.00     0.005 C 
ATOM      5  H2  <0> d           1.710   6.094  -0.685  0.00  0.00     0.066 H 
ATOM      6  H3  <0> d           2.678   5.652  -2.112  0.00  0.00     0.066 H 
ATOM      7  H4  <0> d           0.945   5.251  -2.054  0.00  0.00     0.066 H 
ENDBRANCH   3   4
ENDBRANCH   1   3
BRANCH   1   8
ATOM      8  C3  <0> d           1.407   4.098   1.431  0.00  0.00     0.044 C 
ATOM      9  H5  <0> d           1.481   5.186   1.421  0.00  0.00     0.078 H 
ATOM     10  H6  <0> d           0.585   3.796   2.079  0.00  0.00     0.078 H 
BRANCH   8  11
ATOM     11  O2  <0> d           2.629   3.543   1.921  0.00  0.00    -0.398 OA
ATOM     12  H7  <0> d           2.856   3.821   2.819  0.00  0.00     0.209 HD
ENDBRANCH   8  11
ENDBRANCH   1   8
BRANCH   1  13
ATOM     13  C4  <0> d           1.171   2.086   0.002  0.00  0.00    -0.027 A 
ATOM     14  C9  <0> d           2.377   1.411  -0.014  0.00  0.00    -0.074 A 
ATOM     15  C8  <0> d           2.396   0.029  -0.021  0.00  0.00    -0.082 A 
ATOM     16  H12 <0> d           3.305   1.963  -0.019  0.00  0.00     0.084 H 
ATOM     17  C7  <0> d           1.208  -0.679  -0.014  0.00  0.00    -0.083 A 
ATOM     18  H11 <0> d           3.339  -0.499  -0.033  0.00  0.00     0.083 H 
ATOM     19  C6  <0> d           0.002  -0.004   0.002  0.00  0.00    -0.082 A 
ATOM     20  H10 <0> d           1.223  -1.759  -0.020  0.00  0.00     0.083 H 
ATOM     21  C5  <0> d          -0.017   1.378   0.010  0.00  0.00    -0.074 A 
ATOM     22  H9  <0> d          -0.926  -0.557   0.008  0.00  0.00     0.083 H 
ATOM     23  H8  <0> d          -0.959   1.905   0.017  0.00  0.00     0.084 H 
ENDBRANCH   1  13
TORSDOF 5
