REMARK  1 active torsions:
REMARK  status: ('A' for Active; 'I' for Inactive)
REMARK    1  A    between atoms: C4_4  and  N1_8 
ROOT
ATOM      1  C1  <0> d          -1.214   1.749   0.017  0.00  0.00    -0.044 A 
ATOM      2  C2  <0> d          -0.013   1.076   0.008  0.00  0.00    -0.058 A 
ATOM      3  C3  <0> d           1.188   1.792   0.000  0.00  0.00     0.070 A 
ATOM      4  C4  <0> d           1.159   3.196   0.008  0.00  0.00     0.049 A 
ATOM      5  C5  <0> d          -0.060   3.858   0.022  0.00  0.00    -0.019 A 
ATOM      6  C6  <0> d          -1.240   3.137   0.029  0.00  0.00     0.118 A 
ATOM      7  F1  <0> d          -2.425   3.786   0.043  0.00  0.00    -0.206 F 
ATOM      8  C7  <0> d           2.440   1.097  -0.015  0.00  0.00     0.101 C 
ATOM      9  N2  <0> d           3.433   0.546  -0.028  0.00  0.00    -0.191 NA
ATOM     10  H1  <0> d          -2.141   1.194   0.019  0.00  0.00     0.088 H 
ATOM     11  H2  <0> d           0.002  -0.004   0.002  0.00  0.00     0.086 H 
ATOM     12  H3  <0> d          -0.087   4.938   0.028  0.00  0.00     0.091 H 
ENDROOT
BRANCH   4  13
ATOM     13  N1  <0> d           2.347   3.919   0.001  0.00  0.00    -0.398 N 
ATOM     14  H4  <0> d           3.198   3.453  -0.009  0.00  0.00     0.156 HD
ATOM     15  H5  <0> d           2.324   4.888   0.006  0.00  0.00     0.156 HD
ENDBRANCH   4  13
TORSDOF 1
