REMARK  1 active torsions:
REMARK  status: ('A' for Active; 'I' for Inactive)
REMARK    1  A    between atoms: C3_5  and  N2_6 
ROOT
ATOM      1  C1  <0> d           1.357  -0.387  -0.013  0.00  0.00    -0.013 A 
ATOM      2  C2  <0> d           0.002  -0.004   0.002  0.00  0.00     0.033 A 
ATOM      3  N1  <0> d          -0.016   1.300   0.009  0.00  0.00    -0.139 NA
ATOM      4  O1  <0> d           1.100   1.765   0.001  0.00  0.00    -0.196 OA
ATOM      5  C3  <0> d           2.034   0.800  -0.013  0.00  0.00     0.167 A 
ATOM      6  H1  <0> d           1.767  -1.386  -0.022  0.00  0.00     0.092 H 
ATOM      7  H2  <0> d          -0.855  -0.662   0.007  0.00  0.00     0.118 H 
ENDROOT
BRANCH   5   8
ATOM      8  N2  <0> d           3.406   0.974  -0.026  0.00  0.00    -0.378 N 
ATOM      9  H3  <0> d           3.992   0.201  -0.036  0.00  0.00     0.158 HD
ATOM     10  H4  <0> d           3.782   1.868  -0.025  0.00  0.00     0.158 HD
ENDBRANCH   5   8
TORSDOF 1
