REMARK  3 active torsions:
REMARK  status: ('A' for Active; 'I' for Inactive)
REMARK    1  A    between atoms: C1_1  and  C2_2 
REMARK    2  A    between atoms: C4_4  and  N3_8 
REMARK    3  A    between atoms: N2_6  and  C5_7 
ROOT
ATOM      1  C2  <0> d           0.002  -0.004   0.002  0.00  0.00     0.052 A 
ATOM      2  C3  <0> d           1.295  -0.401  -0.013  0.00  0.00     0.104 A 
ATOM      3  C4  <0> d           2.099   0.751  -0.014  0.00  0.00     0.165 A 
ATOM      4  N1  <0> d           1.310   1.799  -0.001  0.00  0.00    -0.153 NA
ATOM      5  N2  <0> d          -0.016   1.347   0.009  0.00  0.00    -0.275 N 
ATOM      6 Cl1  <0> d           1.861  -2.042  -0.026  0.00  0.00    -0.078 Cl
ENDROOT
BRANCH   1   7
ATOM      7  C1  <0> d          -1.204  -0.908   0.009  0.00  0.00    -0.034 C 
ATOM      8  H1  <0> d          -1.505  -1.121  -1.016  0.00  0.00     0.035 H 
ATOM      9  H2  <0> d          -0.955  -1.841   0.516  0.00  0.00     0.035 H 
ATOM     10  H3  <0> d          -2.023  -0.417   0.534  0.00  0.00     0.035 H 
ENDBRANCH   1   7
BRANCH   5  11
ATOM     11  C5  <0> d          -1.213   2.191   0.020  0.00  0.00     0.003 C 
ATOM     12  H4  <0> d          -1.505   2.395   1.050  0.00  0.00     0.059 H 
ATOM     13  H5  <0> d          -1.000   3.130  -0.490  0.00  0.00     0.059 H 
ATOM     14  H6  <0> d          -2.026   1.676  -0.493  0.00  0.00     0.059 H 
ENDBRANCH   5  11
BRANCH   3  15
ATOM     15  N3  <0> d           3.499   0.777  -0.027  0.00  0.00    -0.381 N 
ATOM     16  H7  <0> d           4.000  -0.054  -0.036  0.00  0.00     0.157 HD
ATOM     17  H8  <0> d           3.969   1.625  -0.027  0.00  0.00     0.157 HD
ENDBRANCH   3  15
TORSDOF 3
