REMARK  8 active torsions:
REMARK  status: ('A' for Active; 'I' for Inactive)
REMARK    1  A    between atoms: C1_1  and  C2_2 
REMARK    2  A    between atoms: C2_2  and  C3_3 
REMARK    3  A    between atoms: C2_2  and  C4_4 
REMARK    4  A    between atoms: C4_4  and  C5_6 
REMARK    5  A    between atoms: C4_4  and  O3_10 
REMARK    6  A    between atoms: C5_6  and  O2_8 
REMARK    7  A    between atoms: O2_8  and  C6_9 
REMARK    8  A    between atoms: O3_10  and  C7_11 
ROOT
ATOM      1  C4  <0> d          -0.768   3.111   1.272  0.00  0.00     0.124 C 
ATOM      2  H1  <0> d          -1.264   3.505   0.373  0.00  0.00     0.099 H 
ENDROOT
BRANCH   1   3
ATOM      3  C2  <0> d          -0.725   1.581   1.270  0.00  0.00    -0.027 C 
ATOM      4  H5  <0> d          -0.172   1.229   2.153  0.00  0.00     0.043 H 
BRANCH   3   5
ATOM      5  C1  <0> d          -0.025   1.092   0.001  0.00  0.00    -0.070 C 
ATOM      6  H2  <0> d           1.001   1.487  -0.028  0.00  0.00     0.028 H 
ATOM      7  H3  <0> d          -0.579   1.444  -0.882  0.00  0.00     0.028 H 
ATOM      8  H4  <0> d           0.005  -0.008  -0.000  0.00  0.00     0.028 H 
ENDBRANCH   3   5
BRANCH   3   9
ATOM      9  C3  <0> d          -2.152   1.031   1.310  0.00  0.00    -0.070 C 
ATOM     10  H6  <0> d          -2.656   1.383   2.223  0.00  0.00     0.028 H 
ATOM     11  H7  <0> d          -2.122  -0.068   1.309  0.00  0.00     0.028 H 
ATOM     12  H8  <0> d          -2.706   1.384   0.427  0.00  0.00     0.028 H 
ENDBRANCH   3   9
ENDBRANCH   1   3
BRANCH   1  13
ATOM     13  C5  <0> d           0.634   3.652   1.380  0.00  0.00     0.288 C 
ATOM     14  O1  <0> d           0.967   4.279   2.358  0.00  0.00    -0.262 OA
BRANCH  13  15
ATOM     15  O2  <0> d           1.514   3.438   0.389  0.00  0.00    -0.324 OA
BRANCH  15  16
ATOM     16  C6  <0> d           2.847   3.989   0.560  0.00  0.00     0.013 C 
ATOM     17  H9  <0> d           3.461   3.742  -0.318  0.00  0.00     0.067 H 
ATOM     18  H10 <0> d           3.308   3.560   1.462  0.00  0.00     0.067 H 
ATOM     19  H11 <0> d           2.781   5.082   0.666  0.00  0.00     0.067 H 
ENDBRANCH  15  16
ENDBRANCH  13  15
ENDBRANCH   1  13
BRANCH   1  20
ATOM     20  O3  <0> d          -1.540   3.564   2.386  0.00  0.00    -0.380 OA
BRANCH  20  21
ATOM     21  C7  <0> d          -2.296   4.748   2.125  0.00  0.00     0.005 C 
ATOM     22  H12 <0> d          -2.860   5.030   3.026  0.00  0.00     0.066 H 
ATOM     23  H13 <0> d          -2.998   4.561   1.298  0.00  0.00     0.066 H 
ATOM     24  H14 <0> d          -1.614   5.566   1.848  0.00  0.00     0.066 H 
ENDBRANCH  20  21
ENDBRANCH   1  20
TORSDOF 8
