REMARK  1 active torsions:
REMARK  status: ('A' for Active; 'I' for Inactive)
REMARK    1  A    between atoms: C5_5  and  C7_7 
ROOT
ATOM      1  C1  <0> d          -0.017   1.378   0.010  0.00  0.00    -0.082 A 
ATOM      2  C2  <0> d           1.171   2.087   0.002  0.00  0.00    -0.080 A 
ATOM      3  C3  <0> d           2.377   1.414  -0.013  0.00  0.00    -0.045 A 
ATOM      4  C4  <0> d           2.397   0.029  -0.021  0.00  0.00     0.128 A 
ATOM      5  C5  <0> d           1.208  -0.679  -0.013  0.00  0.00     0.044 A 
ATOM      6  C6  <0> d           0.002  -0.004   0.002  0.00  0.00    -0.069 A 
ATOM      7  F3  <0> d           3.577  -0.630  -0.036  0.00  0.00    -0.205 F 
ATOM      8  H1  <0> d          -0.959   1.905   0.026  0.00  0.00     0.083 H 
ATOM      9  H2  <0> d           1.155   3.167   0.008  0.00  0.00     0.083 H 
ATOM     10  H3  <0> d           3.305   1.968  -0.019  0.00  0.00     0.088 H 
ATOM     11  H4  <0> d          -0.926  -0.556   0.008  0.00  0.00     0.084 H 
ENDROOT
BRANCH   5  12
ATOM     12  C7  <0> d           1.228  -2.186  -0.022  0.00  0.00     0.236 C 
ATOM     13  F1  <0> d           0.086  -2.664  -0.673  0.00  0.00    -0.209 F 
ATOM     14  F2  <0> d           2.370  -2.633  -0.695  0.00  0.00    -0.209 F 
ATOM     15  H5  <0> d           1.243  -2.555   1.004  0.00  0.00     0.153 H 
ENDBRANCH   5  12
TORSDOF 1
