REMARK  1 active torsions:
REMARK  status: ('A' for Active; 'I' for Inactive)
REMARK    1  A    between atoms: C5_5  and  O1_9 
ROOT
ATOM      1  C1  <0> d          -2.205  -0.852   0.018  0.00  0.00    -0.065 C 
ATOM      2  C2  <0> d          -2.624  -0.062  -1.223  0.00  0.00    -0.065 C 
ATOM      3  C3  <0> d          -1.376   0.408  -1.973  0.00  0.00    -0.063 C 
ATOM      4  C4  <0> d          -0.752   1.593  -1.232  0.00  0.00    -0.041 C 
ATOM      5  C5  <0> d          -0.013   1.086   0.008  0.00  0.00     0.035 C 
ATOM      6  C6  <0> d          -0.729   1.579   1.267  0.00  0.00    -0.041 C 
ATOM      7  C7  <0> d          -2.239   1.400   1.098  0.00  0.00    -0.063 C 
ATOM      8  C8  <0> d          -2.600  -0.076   1.276  0.00  0.00    -0.065 C 
ATOM      9  H1  <0> d          -2.705  -1.821   0.018  0.00  0.00     0.033 H 
ATOM     10  H2  <0> d          -1.125  -1.001   0.007  0.00  0.00     0.033 H 
ATOM     11  H3  <0> d          -3.214   0.803  -0.920  0.00  0.00     0.033 H 
ATOM     12  H4  <0> d          -3.221  -0.699  -1.875  0.00  0.00     0.033 H 
ATOM     13  H5  <0> d          -1.653   0.716  -2.982  0.00  0.00     0.033 H 
ATOM     14  H6  <0> d          -0.655  -0.407  -2.027  0.00  0.00     0.033 H 
ATOM     15  H7  <0> d          -1.537   2.285  -0.928  0.00  0.00     0.036 H 
ATOM     16  H8  <0> d          -0.050   2.104  -1.890  0.00  0.00     0.036 H 
ATOM     17  H9  <0> d           0.002  -0.004   0.002  0.00  0.00     0.082 H 
ATOM     18  H10 <0> d          -0.389   1.003   2.127  0.00  0.00     0.036 H 
ATOM     19  H11 <0> d          -0.503   2.634   1.423  0.00  0.00     0.036 H 
ATOM     20  H12 <0> d          -2.534   1.729   0.102  0.00  0.00     0.033 H 
ATOM     21  H13 <0> d          -2.761   1.995   1.847  0.00  0.00     0.033 H 
ATOM     22  H14 <0> d          -3.674  -0.170   1.439  0.00  0.00     0.033 H 
ATOM     23  H15 <0> d          -2.066  -0.480   2.135  0.00  0.00     0.033 H 
ENDROOT
BRANCH   5  24
ATOM     24  O1  <0> d           1.328   1.580  -0.002  0.00  0.00    -0.396 OA
ATOM     25  H16 <0> d           1.857   1.298   0.756  0.00  0.00     0.210 HD
ENDBRANCH   5  24
TORSDOF 1
