REMARK  4 active torsions:
REMARK  status: ('A' for Active; 'I' for Inactive)
REMARK    1  A    between atoms: C1_1  and  C2_2 
REMARK    2  A    between atoms: C2_2  and  C3_3 
REMARK    3  A    between atoms: C3_3  and  C4_4 
REMARK    4  A    between atoms: C6_7  and  C8_12 
ROOT
ATOM      1  C4  <0> d           1.396   3.585   0.008  0.00  0.00     0.033 C 
ATOM      2  H1  <0> d           0.756   3.901  -0.829  0.00  0.00     0.055 H 
ATOM      3  C5  <0> d           2.833   4.143  -0.090  0.00  0.00    -0.029 C 
ATOM      4  C6  <0> d           2.831   5.238   1.004  0.00  0.00     0.045 C 
ATOM      5  H2  <0> d           3.797   5.367   1.514  0.00  0.00     0.083 H 
ATOM      6  O1  <0> d           1.825   4.793   1.962  0.00  0.00    -0.316 OA
ATOM      7  C7  <0> d           0.869   4.098   1.331  0.00  0.00     0.263 C 
ATOM      8  O2  <0> d          -0.247   3.908   1.754  0.00  0.00    -0.265 OA
ATOM      9  H10 <0> d           3.554   3.336   0.109  0.00  0.00     0.038 H 
ATOM     10  H11 <0> d           3.003   4.544  -1.100  0.00  0.00     0.038 H 
ENDROOT
BRANCH   1  11
ATOM     11  C3  <0> d           1.417   2.055  -0.000  0.00  0.00    -0.053 C 
ATOM     12  H8  <0> d           1.949   1.691   0.891  0.00  0.00     0.034 H 
ATOM     13  H9  <0> d           1.932   1.700  -0.905  0.00  0.00     0.034 H 
BRANCH  11  14
ATOM     14  C2  <0> d          -0.019   1.526   0.010  0.00  0.00    -0.068 C 
ATOM     15  H6  <0> d          -0.551   1.890  -0.881  0.00  0.00     0.032 H 
ATOM     16  H7  <0> d          -0.534   1.881   0.915  0.00  0.00     0.032 H 
BRANCH  14  17
ATOM     17  C1  <0> d           0.002  -0.004   0.002  0.00  0.00    -0.076 C 
ATOM     18  H3  <0> d          -1.030  -0.385   0.010  0.00  0.00     0.027 H 
ATOM     19  H4  <0> d           0.534  -0.368   0.893  0.00  0.00     0.027 H 
ATOM     20  H5  <0> d           0.517  -0.359  -0.903  0.00  0.00     0.027 H 
ENDBRANCH  14  17
ENDBRANCH  11  14
ENDBRANCH   1  11
BRANCH   4  21
ATOM     21  C8  <0> d           2.437   6.589   0.405  0.00  0.00    -0.052 C 
ATOM     22  H12 <0> d           2.440   7.355   1.194  0.00  0.00     0.030 H 
ATOM     23  H13 <0> d           1.430   6.517  -0.033  0.00  0.00     0.030 H 
ATOM     24  H14 <0> d           3.158   6.867  -0.379  0.00  0.00     0.030 H 
ENDBRANCH   4  21
TORSDOF 4
