REMARK  5 active torsions:
REMARK  status: ('A' for Active; 'I' for Inactive)
REMARK    1  A    between atoms: C1_1  and  C2_2 
REMARK    2  A    between atoms: C2_2  and  C3_3 
REMARK    3  A    between atoms: C2_2  and  C4_4 
REMARK    4  A    between atoms: C5_6  and  C7_9 
REMARK    5  A    between atoms: C7_9  and  O2_10 
ROOT
ATOM      1  C4  <0> d          -1.412  -0.526   0.013  0.00  0.00     0.148 A 
ATOM      2  N1  <0> d          -1.947  -1.284  -0.901  0.00  0.00    -0.229 NA
ATOM      3  C5  <0> d          -3.219  -1.547  -0.552  0.00  0.00     0.082 A 
ATOM      4  C6  <0> d          -3.459  -0.924   0.614  0.00  0.00     0.047 A 
ATOM      5  O1  <0> d          -2.323  -0.290   0.966  0.00  0.00    -0.305 OA
ATOM      6  H8  <0> d          -4.386  -0.933   1.167  0.00  0.00     0.126 H 
ENDROOT
BRANCH   1   7
ATOM      7  C2  <0> d           0.002  -0.004   0.002  0.00  0.00     0.003 C 
ATOM      8  H4  <0> d           0.512  -0.356  -0.895  0.00  0.00     0.051 H 
BRANCH   7   9
ATOM      9  C1  <0> d          -0.019   1.526   0.010  0.00  0.00    -0.066 C 
ATOM     10  H1  <0> d           1.004   1.903   0.003  0.00  0.00     0.028 H 
ATOM     11  H2  <0> d          -0.546   1.887  -0.873  0.00  0.00     0.028 H 
ATOM     12  H3  <0> d          -0.529   1.877   0.907  0.00  0.00     0.028 H 
ENDBRANCH   7   9
BRANCH   7  13
ATOM     13  C3  <0> d           0.742  -0.511   1.242  0.00  0.00    -0.066 C 
ATOM     14  H5  <0> d           0.232  -0.159   2.138  0.00  0.00     0.028 H 
ATOM     15  H6  <0> d           0.757  -1.601   1.236  0.00  0.00     0.028 H 
ATOM     16  H7  <0> d           1.765  -0.134   1.234  0.00  0.00     0.028 H 
ENDBRANCH   7  13
ENDBRANCH   1   7
BRANCH   3  17
ATOM     17  C7  <0> d          -4.199  -2.388  -1.329  0.00  0.00     0.058 C 
ATOM     18  H9  <0> d          -4.348  -1.952  -2.317  0.00  0.00     0.083 H 
ATOM     19  H10 <0> d          -3.807  -3.400  -1.433  0.00  0.00     0.083 H 
BRANCH  17  20
ATOM     20  O2  <0> d          -5.447  -2.430  -0.633  0.00  0.00    -0.395 OA
ATOM     21  H11 <0> d          -6.127  -2.955  -1.077  0.00  0.00     0.209 HD
ENDBRANCH  17  20
ENDBRANCH   3  17
TORSDOF 5
