REMARK  3 active torsions:
REMARK  status: ('A' for Active; 'I' for Inactive)
REMARK    1  A    between atoms: C1_1  and  C2_2 
REMARK    2  A    between atoms: C4_4  and  N3_9 
REMARK    3  A    between atoms: C5_6  and  C6_8 
ROOT
ATOM      1  C2  <0> d           0.002  -0.004   0.002  0.00  0.00     0.036 A 
ATOM      2  C3  <0> d          -0.017   1.377   0.010  0.00  0.00    -0.016 A 
ATOM      3  C4  <0> d           1.203   2.056   0.002  0.00  0.00     0.125 A 
ATOM      4  N1  <0> d           2.332   1.353  -0.013  0.00  0.00    -0.217 NA
ATOM      5  C5  <0> d           2.302   0.035  -0.020  0.00  0.00     0.124 A 
ATOM      6  N2  <0> d           1.168  -0.635  -0.013  0.00  0.00    -0.239 NA
ATOM      7  H4  <0> d          -0.951   1.918   0.017  0.00  0.00     0.092 H 
ENDROOT
BRANCH   1   8
ATOM      8  C1  <0> d          -1.287  -0.784   0.010  0.00  0.00    -0.035 C 
ATOM      9  H1  <0> d          -1.607  -0.967  -1.016  0.00  0.00     0.035 H 
ATOM     10  H2  <0> d          -1.133  -1.737   0.517  0.00  0.00     0.035 H 
ATOM     11  H3  <0> d          -2.054  -0.214   0.534  0.00  0.00     0.035 H 
ENDBRANCH   1   8
BRANCH   5  12
ATOM     12  C6  <0> d           3.603  -0.726  -0.036  0.00  0.00    -0.019 C 
ATOM     13  H5  <0> d           3.907  -0.904  -1.068  0.00  0.00     0.037 H 
ATOM     14  H6  <0> d           4.371  -0.144   0.473  0.00  0.00     0.037 H 
ATOM     15  H7  <0> d           3.472  -1.680   0.474  0.00  0.00     0.037 H 
ENDBRANCH   5  12
BRANCH   3  16
ATOM     16  N3  <0> d           1.238   3.441   0.009  0.00  0.00    -0.384 N 
ATOM     17  H8  <0> d           0.410   3.947   0.019  0.00  0.00     0.157 HD
ATOM     18  H9  <0> d           2.089   3.905   0.003  0.00  0.00     0.157 HD
ENDBRANCH   3  16
TORSDOF 3
