REMARK  2 active torsions:
REMARK  status: ('A' for Active; 'I' for Inactive)
REMARK    1  A    between atoms: C1_1  and  C2_2 
REMARK    2  A    between atoms: C2_2  and  C3_3 
ROOT
ATOM      1  C3  <0> d           1.499   3.348   0.006  0.00  0.00     0.149 A 
ATOM      2  N1  <0> d           2.804   3.424  -0.006  0.00  0.00    -0.119 NA
ATOM      3  N2  <0> d           3.319   2.245  -0.018  0.00  0.00     0.046 NA
ATOM      4  C4  <0> d           2.356   1.339  -0.014  0.00  0.00     0.752 A 
ATOM      5  N3  <0> d           1.168   2.028   0.002  0.00  0.00    -0.138 N 
ATOM      6  C5  <0> d          -0.016   1.351   0.009  0.00  0.00     0.005 A 
ATOM      7  C6  <0> d           0.002  -0.004   0.002  0.00  0.00    -0.049 A 
ATOM      8  C7  <0> d           1.234  -0.676  -0.013  0.00  0.00     0.022 A 
ATOM      9  N4  <0> d           2.359  -0.001  -0.021  0.00  0.00    -0.073 NA
ATOM     10  H6  <0> d          -0.954   1.887   0.017  0.00  0.00     0.113 H 
ATOM     11  H7  <0> d          -0.923  -0.562   0.007  0.00  0.00     0.087 H 
ATOM     12  H8  <0> d           1.256  -1.756  -0.019  0.00  0.00     0.115 H 
ENDROOT
BRANCH   1  13
ATOM     13  C2  <0> d           0.538   4.509   0.022  0.00  0.00    -0.010 C 
ATOM     14  H4  <0> d           0.987   5.359  -0.492  0.00  0.00     0.044 H 
ATOM     15  H5  <0> d          -0.384   4.224  -0.485  0.00  0.00     0.044 H 
BRANCH  13  16
ATOM     16  C1  <0> d           0.227   4.894   1.469  0.00  0.00    -0.070 C 
ATOM     17  H1  <0> d          -0.468   5.733   1.481  0.00  0.00     0.028 H 
ATOM     18  H2  <0> d          -0.222   4.044   1.983  0.00  0.00     0.028 H 
ATOM     19  H3  <0> d           1.149   5.179   1.976  0.00  0.00     0.028 H 
ENDBRANCH  13  16
ENDBRANCH   1  13
TORSDOF 2
