REMARK  2 active torsions:
REMARK  status: ('A' for Active; 'I' for Inactive)
REMARK    1  A    between atoms: C1_1  and  C2_2 
REMARK    2  A    between atoms: C2_2  and  C5_8 
ROOT
ATOM      1  C2  <0> d           0.603   3.397  -0.000  0.00  0.00     0.166 C 
ATOM      2  O1  <0> d          -0.769   3.381   0.431  0.00  0.00    -0.346 OA
ATOM      3  C3  <0> d          -1.247   2.083   0.018  0.00  0.00     0.103 C 
ATOM      4  C4  <0> d          -0.014   1.204   0.009  0.00  0.00     0.285 C 
ATOM      5  O2  <0> d           0.002  -0.004   0.002  0.00  0.00    -0.263 OA
ATOM      6  O3  <0> d           1.059   2.015   0.003  0.00  0.00    -0.282 OA
ATOM      7  H4  <0> d          -1.683   2.136  -0.979  0.00  0.00     0.090 H 
ATOM      8  H5  <0> d          -1.977   1.704   0.733  0.00  0.00     0.090 H 
ENDROOT
BRANCH   1   9
ATOM      9  C1  <0> d           1.447   4.228   0.968  0.00  0.00    -0.025 C 
ATOM     10  H1  <0> d           2.490   4.205   0.653  0.00  0.00     0.035 H 
ATOM     11  H2  <0> d           1.090   5.258   0.968  0.00  0.00     0.035 H 
ATOM     12  H3  <0> d           1.361   3.814   1.973  0.00  0.00     0.035 H 
ENDBRANCH   1   9
BRANCH   1  13
ATOM     13  C5  <0> d           0.702   3.977  -1.412  0.00  0.00    -0.025 C 
ATOM     14  H6  <0> d           0.089   3.385  -2.092  0.00  0.00     0.035 H 
ATOM     15  H7  <0> d           0.346   5.008  -1.407  0.00  0.00     0.035 H 
ATOM     16  H8  <0> d           1.740   3.952  -1.744  0.00  0.00     0.035 H 
ENDBRANCH   1  13
TORSDOF 2
