REMARK  3 active torsions:
REMARK  status: ('A' for Active; 'I' for Inactive)
REMARK    1  A    between atoms: C1_1  and  C2_2 
REMARK    2  A    between atoms: C2_2  and  C3_3 
REMARK    3  A    between atoms: C2_2  and  C4_4 
ROOT
ATOM      1  C4  <0> d          -1.412  -0.526   0.013  0.00  0.00    -0.034 A 
ATOM      2  C5  <0> d          -2.259  -0.206   1.054  0.00  0.00    -0.075 A 
ATOM      3  C6  <0> d          -3.557  -0.684   1.065  0.00  0.00    -0.082 A 
ATOM      4  C7  <0> d          -4.015  -1.486   0.034  0.00  0.00    -0.082 A 
ATOM      5  C8  <0> d          -3.179  -1.814  -1.012  0.00  0.00    -0.062 A 
ATOM      6  C9  <0> d          -1.869  -1.329  -1.034  0.00  0.00     0.051 A 
ATOM      7  C10 <0> d          -0.997  -1.660  -2.120  0.00  0.00     0.100 C 
ATOM      8  N1  <0> d          -0.305  -1.923  -2.982  0.00  0.00    -0.191 NA
ATOM      9  H8  <0> d          -1.908   0.419   1.862  0.00  0.00     0.084 H 
ATOM     10  H9  <0> d          -4.216  -0.430   1.882  0.00  0.00     0.083 H 
ATOM     11  H10 <0> d          -5.029  -1.856   0.050  0.00  0.00     0.083 H 
ATOM     12  H11 <0> d          -3.537  -2.440  -1.816  0.00  0.00     0.085 H 
ENDROOT
BRANCH   1  13
ATOM     13  C2  <0> d           0.002  -0.004   0.002  0.00  0.00    -0.034 C 
ATOM     14  H4  <0> d           0.512  -0.356  -0.895  0.00  0.00     0.046 H 
BRANCH  13  15
ATOM     15  C1  <0> d          -0.019   1.526   0.010  0.00  0.00    -0.069 C 
ATOM     16  H1  <0> d           1.004   1.903   0.003  0.00  0.00     0.028 H 
ATOM     17  H2  <0> d          -0.546   1.887  -0.873  0.00  0.00     0.028 H 
ATOM     18  H3  <0> d          -0.529   1.877   0.907  0.00  0.00     0.028 H 
ENDBRANCH  13  15
BRANCH  13  19
ATOM     19  C3  <0> d           0.742  -0.511   1.242  0.00  0.00    -0.069 C 
ATOM     20  H5  <0> d           0.232  -0.159   2.138  0.00  0.00     0.028 H 
ATOM     21  H6  <0> d           0.757  -1.601   1.236  0.00  0.00     0.028 H 
ATOM     22  H7  <0> d           1.765  -0.134   1.234  0.00  0.00     0.028 H 
ENDBRANCH  13  19
ENDBRANCH   1  13
TORSDOF 3
