REMARK  2 active torsions:
REMARK  status: ('A' for Active; 'I' for Inactive)
REMARK    1  A    between atoms: C1_1  and  S1_2 
REMARK    2  A    between atoms: S1_2  and  C2_3 
ROOT
ATOM      1  C2  <0> d           1.159  -0.685  -0.013  0.00  0.00     0.099 A 
ATOM      2  C3  <0> d           2.360   0.007  -0.021  0.00  0.00     0.017 A 
ATOM      3  C4  <0> d           2.322   1.408  -0.013  0.00  0.00     0.248 A 
ATOM      4  O1  <0> d           3.355   2.058  -0.019  0.00  0.00    -0.268 OA
ATOM      5  N1  <0> d           1.122   2.024   0.002  0.00  0.00    -0.318 N 
ATOM      6  H1  <0> d           1.077   2.993   0.008  0.00  0.00     0.169 HD
ATOM      7  C5  <0> d          -0.016   1.300   0.009  0.00  0.00     0.067 A 
ATOM      8  N2  <0> d           0.002  -0.004   0.002  0.00  0.00    -0.237 NA
ATOM      9  H5  <0> d           3.302  -0.520  -0.032  0.00  0.00     0.096 H 
ATOM     10  H6  <0> d          -0.966   1.813   0.016  0.00  0.00     0.143 H 
ENDROOT
BRANCH   1  11
ATOM     11  S1  <0> d           1.151  -2.447  -0.023  0.00  0.00    -0.115 SA
BRANCH  11  12
ATOM     12  C1  <0> d          -0.632  -2.754  -0.008  0.00  0.00    -0.029 C 
ATOM     13  H2  <0> d          -1.086  -2.304  -0.891  0.00  0.00     0.042 H 
ATOM     14  H3  <0> d          -0.817  -3.828  -0.012  0.00  0.00     0.042 H 
ATOM     15  H4  <0> d          -1.069  -2.314   0.889  0.00  0.00     0.042 H 
ENDBRANCH  11  12
ENDBRANCH   1  11
TORSDOF 2
