REMARK  3 active torsions:
REMARK  status: ('A' for Active; 'I' for Inactive)
REMARK    1  A    between atoms: C2_2  and  C7_9 
REMARK    2  A    between atoms: C4_4  and  O1_8 
REMARK    3  A    between atoms: C6_6  and  N1_7 
ROOT
ATOM      1  C1  <0> d          -0.017   1.382   0.010  0.00  0.00    -0.041 A 
ATOM      2  C2  <0> d           1.184   2.094   0.002  0.00  0.00     0.045 A 
ATOM      3  C3  <0> d           2.398   1.407  -0.013  0.00  0.00    -0.034 A 
ATOM      4  C4  <0> d           2.408   0.021  -0.021  0.00  0.00     0.068 A 
ATOM      5  C5  <0> d           1.214  -0.683  -0.013  0.00  0.00    -0.026 A 
ATOM      6  C6  <0> d           0.002  -0.004   0.002  0.00  0.00     0.029 A 
ATOM      7  H1  <0> d          -0.959   1.911   0.017  0.00  0.00     0.088 H 
ATOM      8  H2  <0> d           3.329   1.954  -0.020  0.00  0.00     0.089 H 
ATOM      9  H3  <0> d           1.226  -1.763  -0.019  0.00  0.00     0.091 H 
ENDROOT
BRANCH   2  10
ATOM     10  C7  <0> d           1.169   3.571   0.011  0.00  0.00     0.209 C 
ATOM     11  O2  <0> d           0.111   4.168   0.024  0.00  0.00    -0.644 OA
ATOM     12  O3  <0> d           2.329   4.257   0.003  0.00  0.00    -0.644 OA
ENDBRANCH   2  10
BRANCH   6  13
ATOM     13  N1  <0> d          -1.199  -0.718   0.009  0.00  0.00    -0.399 N 
ATOM     14  H4  <0> d          -2.045  -0.244   0.019  0.00  0.00     0.156 HD
ATOM     15  H5  <0> d          -1.186  -1.688   0.004  0.00  0.00     0.156 HD
ENDBRANCH   6  13
BRANCH   4  16
ATOM     16  O1  <0> d           3.591  -0.648  -0.035  0.00  0.00    -0.361 OA
ATOM     17  H6  <0> d           3.925  -0.838  -0.923  0.00  0.00     0.217 HD
ENDBRANCH   4  16
TORSDOF 3
