REMARK  3 active torsions:
REMARK  status: ('A' for Active; 'I' for Inactive)
REMARK    1  A    between atoms: C1_1  and  C2_2 
REMARK    2  A    between atoms: C6_6  and  N2_9 
REMARK    3  A    between atoms: C7_7  and  N1_8 
ROOT
ATOM      1  C2  <0> d          -1.255   3.788   0.034  0.00  0.00    -0.032 A 
ATOM      2  C3  <0> d          -1.230   2.405   0.021  0.00  0.00    -0.054 A 
ATOM      3  C4  <0> d          -0.021   1.732   0.012  0.00  0.00     0.036 A 
ATOM      4  C5  <0> d           1.169   2.438   0.004  0.00  0.00    -0.035 A 
ATOM      5  C6  <0> d           1.151   3.824   0.012  0.00  0.00     0.054 A 
ATOM      6  C7  <0> d          -0.067   4.503   0.027  0.00  0.00     0.058 A 
ATOM      7 Cl1  <0> d           0.002  -0.004   0.002  0.00  0.00    -0.084 Cl
ATOM      8  H4  <0> d          -2.156   1.850   0.022  0.00  0.00     0.087 H 
ATOM      9  H5  <0> d           2.110   1.910  -0.007  0.00  0.00     0.089 H 
ENDROOT
BRANCH   1  10
ATOM     10  C1  <0> d          -2.573   4.518   0.050  0.00  0.00    -0.049 C 
ATOM     11  H1  <0> d          -2.901   4.699  -0.973  0.00  0.00     0.033 H 
ATOM     12  H2  <0> d          -3.317   3.912   0.568  0.00  0.00     0.033 H 
ATOM     13  H3  <0> d          -2.455   5.470   0.568  0.00  0.00     0.033 H 
ENDBRANCH   1  10
BRANCH   6  14
ATOM     14  N1  <0> d          -0.091   5.904   0.035  0.00  0.00    -0.397 N 
ATOM     15  H6  <0> d           0.741   6.403   0.030  0.00  0.00     0.156 HD
ATOM     16  H7  <0> d          -0.939   6.374   0.046  0.00  0.00     0.156 HD
ENDBRANCH   6  14
BRANCH   5  17
ATOM     17  N2  <0> d           2.354   4.541   0.004  0.00  0.00    -0.397 N 
ATOM     18  H8  <0> d           3.201   4.068  -0.007  0.00  0.00     0.156 HD
ATOM     19  H9  <0> d           2.341   5.511   0.009  0.00  0.00     0.156 HD
ENDBRANCH   5  17
TORSDOF 3
