REMARK  3 active torsions:
REMARK  status: ('A' for Active; 'I' for Inactive)
REMARK    1  A    between atoms: C1_1  and  C2_2 
REMARK    2  A    between atoms: C3_3  and  C7_11 
REMARK    3  A    between atoms: C4_6  and  N3_10 
ROOT
ATOM      1  C2  <0> d           0.724   3.054   0.011  0.00  0.00    -0.015 A 
ATOM      2  C3  <0> d           1.102   1.766   0.001  0.00  0.00     0.014 A 
ATOM      3  N1  <0> d          -0.011   0.966   0.007  0.00  0.00    -0.345 N 
ATOM      4  H1  <0> d           0.002  -0.004   0.002  0.00  0.00     0.167 HD
ATOM      5  C4  <0> d          -1.135   1.728   0.016  0.00  0.00     0.120 A 
ATOM      6  C5  <0> d          -0.745   3.062   0.024  0.00  0.00     0.096 A 
ATOM      7  C6  <0> d          -1.601   4.210   0.037  0.00  0.00     0.104 C 
ATOM      8  N2  <0> d          -2.280   5.121   0.047  0.00  0.00    -0.191 NA
ENDROOT
BRANCH   1   9
ATOM      9  C1  <0> d           1.630   4.258   0.008  0.00  0.00    -0.048 C 
ATOM     10  H2  <0> d           1.839   4.553  -1.020  0.00  0.00     0.033 H 
ATOM     11  H3  <0> d           1.142   5.081   0.531  0.00  0.00     0.033 H 
ATOM     12  H4  <0> d           2.564   4.011   0.512  0.00  0.00     0.033 H 
ENDBRANCH   1   9
BRANCH   5  13
ATOM     13  N3  <0> d          -2.436   1.260   0.020  0.00  0.00    -0.384 N 
ATOM     14  H5  <0> d          -2.608   0.306   0.017  0.00  0.00     0.157 HD
ATOM     15  H6  <0> d          -3.176   1.887   0.026  0.00  0.00     0.157 HD
ENDBRANCH   5  13
BRANCH   2  16
ATOM     16  C7  <0> d           2.528   1.277  -0.014  0.00  0.00    -0.037 C 
ATOM     17  H7  <0> d           2.862   1.163  -1.046  0.00  0.00     0.035 H 
ATOM     18  H8  <0> d           3.165   1.998   0.497  0.00  0.00     0.035 H 
ATOM     19  H9  <0> d           2.587   0.315   0.495  0.00  0.00     0.035 H 
ENDBRANCH   2  16
TORSDOF 3
