REMARK  7 active torsions:
REMARK  status: ('A' for Active; 'I' for Inactive)
REMARK    1  A    between atoms: C1_1  and  C2_2 
REMARK    2  A    between atoms: C2_2  and  C3_3 
REMARK    3  A    between atoms: C3_3  and  C4_5 
REMARK    4  A    between atoms: C3_3  and  C6_8 
REMARK    5  A    between atoms: C4_5  and  C5_6 
REMARK    6  A    between atoms: C6_8  and  C7_9 
REMARK    7  A    between atoms: C6_8  and  C8_10 
ROOT
ATOM      1  C3  <0> d           0.105   1.110   2.428  0.00  0.00    -0.043 C 
ATOM      2  H1  <0> d           0.244   0.052   2.206  0.00  0.00     0.041 H 
ENDROOT
BRANCH   1   3
ATOM      3  C2  <0> d          -0.786   1.743   1.357  0.00  0.00    -0.064 C 
ATOM      4  H5  <0> d          -1.734   1.208   1.309  0.00  0.00     0.033 H 
ATOM      5  H6  <0> d          -0.287   1.686   0.390  0.00  0.00     0.033 H 
BRANCH   3   6
ATOM      6  C1  <0> d          -1.046   3.209   1.711  0.00  0.00    -0.076 C 
ATOM      7  H2  <0> d          -0.098   3.745   1.760  0.00  0.00     0.027 H 
ATOM      8  H3  <0> d          -1.546   3.266   2.678  0.00  0.00     0.027 H 
ATOM      9  H4  <0> d          -1.679   3.660   0.948  0.00  0.00     0.027 H 
ENDBRANCH   3   6
ENDBRANCH   1   3
BRANCH   1  10
ATOM     10  C4  <0> d           1.464   1.812   2.442  0.00  0.00     0.019 C 
ATOM     11  H7  <0> d           1.317   2.887   2.551  0.00  0.00     0.049 H 
ATOM     12  H8  <0> d           2.057   1.440   3.277  0.00  0.00     0.049 H 
BRANCH  10  13
ATOM     13  C5  <0> d           2.186   1.533   1.149  0.00  0.00     0.172 C 
ATOM     14  O1  <0> d           1.719   0.754   0.352  0.00  0.00    -0.648 OA
ATOM     15  O2  <0> d           3.348   2.150   0.882  0.00  0.00    -0.648 OA
ENDBRANCH  10  13
ENDBRANCH   1  10
BRANCH   1  16
ATOM     16  C6  <0> d          -0.560   1.260   3.798  0.00  0.00    -0.057 C 
ATOM     17  H9  <0> d          -0.700   2.318   4.020  0.00  0.00     0.039 H 
BRANCH  16  18
ATOM     18  C7  <0> d          -1.920   0.558   3.784  0.00  0.00    -0.073 C 
ATOM     19  H10 <0> d          -2.393   0.664   4.760  0.00  0.00     0.028 H 
ATOM     20  H11 <0> d          -2.554   1.009   3.021  0.00  0.00     0.028 H 
ATOM     21  H12 <0> d          -1.780  -0.500   3.562  0.00  0.00     0.028 H 
ENDBRANCH  16  18
BRANCH  16  22
ATOM     22  C8  <0> d           0.330   0.627   4.869  0.00  0.00    -0.073 C 
ATOM     23  H13 <0> d           1.299   1.127   4.878  0.00  0.00     0.028 H 
ATOM     24  H14 <0> d          -0.144   0.733   5.845  0.00  0.00     0.028 H 
ATOM     25  H15 <0> d           0.470  -0.431   4.646  0.00  0.00     0.028 H 
ENDBRANCH  16  22
ENDBRANCH   1  16
TORSDOF 7
