REMARK  2 active torsions:
REMARK  status: ('A' for Active; 'I' for Inactive)
REMARK    1  A    between atoms: C2_2  and  C3_3 
REMARK    2  A    between atoms: C7_7  and  N1_9 
ROOT
ATOM      1  C1  <0> d           0.018  -1.178  -0.004  0.00  0.00    -0.149 C 
ATOM      2  C2  <0> d           0.002  -0.004   0.002  0.00  0.00    -0.078 C 
ATOM      3  H1  <0> d           0.032  -2.228  -0.010  0.00  0.00     0.166 H 
ENDROOT
BRANCH   2   4
ATOM      4  C3  <0> d          -0.017   1.428   0.010  0.00  0.00     0.019 A 
ATOM      5  C8  <0> d           1.180   2.143   0.002  0.00  0.00    -0.037 A 
ATOM      6  C7  <0> d           1.154   3.529   0.004  0.00  0.00     0.066 A 
ATOM      7  H4  <0> d           2.124   1.619  -0.010  0.00  0.00     0.089 H 
ATOM      8  C6  <0> d          -0.064   4.202   0.025  0.00  0.00     0.142 A 
ATOM      9  C5  <0> d          -1.251   3.491   0.039  0.00  0.00    -0.042 A 
ATOM     10  F1  <0> d          -0.087   5.553   0.032  0.00  0.00    -0.204 F 
ATOM     11  C4  <0> d          -1.234   2.111   0.031  0.00  0.00    -0.062 A 
ATOM     12  H3  <0> d          -2.194   4.018   0.055  0.00  0.00     0.088 H 
ATOM     13  H2  <0> d          -2.163   1.559   0.041  0.00  0.00     0.085 H 
BRANCH   6  14
ATOM     14  N1  <0> d           2.352   4.251  -0.010  0.00  0.00    -0.397 N 
ATOM     15  H5  <0> d           2.334   5.220  -0.004  0.00  0.00     0.156 HD
ATOM     16  H6  <0> d           3.201   3.781  -0.024  0.00  0.00     0.156 HD
ENDBRANCH   6  14
ENDBRANCH   2   4
TORSDOF 2
