REMARK  0 active torsions:
REMARK  status: ('A' for Active; 'I' for Inactive)
ROOT
ATOM      1  C1  <0> d           3.548   0.686  -0.028  0.00  0.00    -0.039 A 
ATOM      2  C2  <0> d           4.127  -0.564  -0.040  0.00  0.00     0.004 A 
ATOM      3  N1  <0> d           3.394  -1.665  -0.039  0.00  0.00    -0.272 NA
ATOM      4  C3  <0> d           2.078  -1.633  -0.026  0.00  0.00     0.015 A 
ATOM      5  C4  <0> d           1.408  -0.412  -0.014  0.00  0.00     0.031 A 
ATOM      6  C5  <0> d           2.158   0.783  -0.014  0.00  0.00     0.046 A 
ATOM      7  N2  <0> d           1.266   1.824  -0.000  0.00  0.00    -0.363 N 
ATOM      8  H1  <0> d           1.507   2.763   0.003  0.00  0.00     0.165 HD
ATOM      9  C6  <0> d          -0.016   1.339   0.009  0.00  0.00    -0.001 A 
ATOM     10  C7  <0> d           0.002  -0.004   0.002  0.00  0.00     0.063 A 
ATOM     11 Cl1  <0> d          -1.379  -1.056   0.010  0.00  0.00    -0.082 Cl
ATOM     12  H2  <0> d           4.161   1.575  -0.029  0.00  0.00     0.089 H 
ATOM     13  H3  <0> d           5.204  -0.647  -0.051  0.00  0.00     0.114 H 
ATOM     14  H4  <0> d           1.516  -2.556  -0.026  0.00  0.00     0.116 H 
ATOM     15  H5  <0> d          -0.909   1.947   0.017  0.00  0.00     0.114 H 
ENDROOT
TORSDOF 0
