REMARK  2 active torsions:
REMARK  status: ('A' for Active; 'I' for Inactive)
REMARK    1  A    between atoms: C2_2  and  C3_3 
REMARK    2  A    between atoms: C7_7  and  N1_9 
ROOT
ATOM      1  C1  <0> d          -0.074   6.455   0.037  0.00  0.00    -0.149 C 
ATOM      2  C2  <0> d          -0.062   5.281   0.030  0.00  0.00    -0.078 C 
ATOM      3  H1  <0> d          -0.084   7.505   0.042  0.00  0.00     0.166 H 
ENDROOT
BRANCH   2   4
ATOM      4  C3  <0> d          -0.049   3.849   0.023  0.00  0.00     0.019 A 
ATOM      5  C8  <0> d          -1.248   3.139   0.031  0.00  0.00    -0.040 A 
ATOM      6  C7  <0> d          -1.227   1.752   0.017  0.00  0.00     0.027 A 
ATOM      7  H5  <0> d          -2.190   3.666   0.043  0.00  0.00     0.089 H 
ATOM      8  C6  <0> d          -0.013   1.076   0.008  0.00  0.00    -0.058 A 
ATOM      9  C5  <0> d           1.176   1.781   0.000  0.00  0.00    -0.079 A 
ATOM     10  H4  <0> d           0.002  -0.004   0.002  0.00  0.00     0.086 H 
ATOM     11  C4  <0> d           1.165   3.161   0.008  0.00  0.00    -0.065 A 
ATOM     12  H3  <0> d           2.117   1.250  -0.012  0.00  0.00     0.083 H 
ATOM     13  H2  <0> d           2.096   3.708   0.002  0.00  0.00     0.085 H 
BRANCH   6  14
ATOM     14  N1  <0> d          -2.426   1.035   0.019  0.00  0.00    -0.399 N 
ATOM     15  H6  <0> d          -2.411   0.065   0.013  0.00  0.00     0.156 HD
ATOM     16  H7  <0> d          -3.273   1.507   0.025  0.00  0.00     0.156 HD
ENDBRANCH   6  14
ENDBRANCH   2   4
TORSDOF 2
