REMARK  0 active torsions:
REMARK  status: ('A' for Active; 'I' for Inactive)
ROOT
ATOM      1  C1  <0> d          -0.017   1.407   0.010  0.00  0.00    -0.006 A 
ATOM      2  C2  <0> d           1.183   2.061   0.002  0.00  0.00    -0.003 A 
ATOM      3  C3  <0> d           2.361   1.303  -0.010  0.00  0.00     0.065 A 
ATOM      4  N1  <0> d           2.299  -0.004  -0.022  0.00  0.00    -0.176 NA
ATOM      5  N2  <0> d           1.187  -0.643  -0.017  0.00  0.00    -0.243 N 
ATOM      6  H1  <0> d           1.200  -1.613  -0.028  0.00  0.00     0.192 HD
ATOM      7  C4  <0> d           0.002  -0.004   0.002  0.00  0.00     0.262 A 
ATOM      8  O1  <0> d          -1.042  -0.637   0.012  0.00  0.00    -0.267 OA
ATOM      9  C5  <0> d           3.711   1.974  -0.003  0.00  0.00    -0.003 C 
ATOM     10  C6  <0> d           3.558   3.440  -0.415  0.00  0.00     0.025 C 
ATOM     11  O2  <0> d           2.512   4.030   0.364  0.00  0.00    -0.386 OA
ATOM     12  C7  <0> d           1.210   3.564   0.004  0.00  0.00     0.045 C 
ATOM     13  H2  <0> d          -0.949   1.953   0.026  0.00  0.00     0.093 H 
ATOM     14  H3  <0> d           4.138   1.921   0.998  0.00  0.00     0.045 H 
ATOM     15  H4  <0> d           4.372   1.467  -0.706  0.00  0.00     0.045 H 
ATOM     16  H5  <0> d           4.493   3.970  -0.232  0.00  0.00     0.074 H 
ATOM     17  H6  <0> d           3.304   3.498  -1.473  0.00  0.00     0.074 H 
ATOM     18  H7  <0> d           0.957   3.932  -0.990  0.00  0.00     0.081 H 
ATOM     19  H8  <0> d           0.481   3.938   0.723  0.00  0.00     0.081 H 
ENDROOT
TORSDOF 0
