REMARK  4 active torsions:
REMARK  status: ('A' for Active; 'I' for Inactive)
REMARK    1  A    between atoms: C1_1  and  C2_2 
REMARK    2  A    between atoms: C4_4  and  C8_10 
REMARK    3  A    between atoms: C5_5  and  N2_9 
REMARK    4  A    between atoms: C6_6  and  N1_8 
ROOT
ATOM      1  C2  <0> d          -0.018   1.503   0.010  0.00  0.00    -0.059 A 
ATOM      2  C3  <0> d          -1.226   2.176   0.020  0.00  0.00    -0.069 A 
ATOM      3  C4  <0> d          -1.252   3.558   0.033  0.00  0.00    -0.033 A 
ATOM      4  C5  <0> d          -0.064   4.274   0.026  0.00  0.00     0.058 A 
ATOM      5  C6  <0> d           1.154   3.595   0.010  0.00  0.00     0.053 A 
ATOM      6  C7  <0> d           1.171   2.208   0.003  0.00  0.00    -0.050 A 
ATOM      7  H4  <0> d          -2.152   1.620   0.021  0.00  0.00     0.085 H 
ATOM      8  H5  <0> d           2.112   1.679  -0.009  0.00  0.00     0.087 H 
ENDROOT
BRANCH   1   9
ATOM      9  C1  <0> d           0.002  -0.004   0.002  0.00  0.00    -0.051 C 
ATOM     10  H1  <0> d           0.017  -0.373   1.028  0.00  0.00     0.033 H 
ATOM     11  H2  <0> d          -0.888  -0.377  -0.505  0.00  0.00     0.033 H 
ATOM     12  H3  <0> d           0.892  -0.352  -0.522  0.00  0.00     0.033 H 
ENDBRANCH   1   9
BRANCH   5  13
ATOM     13  N1  <0> d           2.357   4.311   0.002  0.00  0.00    -0.397 N 
ATOM     14  H6  <0> d           3.204   3.838  -0.009  0.00  0.00     0.156 HD
ATOM     15  H7  <0> d           2.344   5.281   0.008  0.00  0.00     0.156 HD
ENDBRANCH   5  13
BRANCH   3  16
ATOM     16  C8  <0> d          -2.571   4.287   0.049  0.00  0.00    -0.049 C 
ATOM     17  H10 <0> d          -2.898   4.468  -0.975  0.00  0.00     0.033 H 
ATOM     18  H11 <0> d          -3.314   3.681   0.567  0.00  0.00     0.033 H 
ATOM     19  H12 <0> d          -2.453   5.239   0.567  0.00  0.00     0.033 H 
ENDBRANCH   3  16
BRANCH   4  20
ATOM     20  N2  <0> d          -0.088   5.674   0.034  0.00  0.00    -0.397 N 
ATOM     21  H8  <0> d           0.744   6.173   0.029  0.00  0.00     0.156 HD
ATOM     22  H9  <0> d          -0.936   6.144   0.044  0.00  0.00     0.156 HD
ENDBRANCH   4  20
TORSDOF 4
