REMARK  5 active torsions:
REMARK  status: ('A' for Active; 'I' for Inactive)
REMARK    1  A    between atoms: C1_1  and  C2_2 
REMARK    2  A    between atoms: C3_3  and  C6_9 
REMARK    3  A    between atoms: C4_4  and  C5_8 
REMARK    4  A    between atoms: C6_9  and  C7_10 
REMARK    5  A    between atoms: C7_10  and  O1_11 
ROOT
ATOM      1  C2  <0> d           0.002  -0.004   0.002  0.00  0.00     0.032 A 
ATOM      2  C3  <0> d          -0.016   1.349   0.009  0.00  0.00    -0.006 A 
ATOM      3  C4  <0> d           1.308   1.797  -0.001  0.00  0.00     0.059 A 
ATOM      4  N1  <0> d           2.094   0.751  -0.014  0.00  0.00    -0.179 NA
ATOM      5  N2  <0> d           1.293  -0.398  -0.012  0.00  0.00    -0.282 N 
ATOM      6  H1  <0> d           1.541  -1.469  -0.021  0.00  0.00     0.189 HD
ENDROOT
BRANCH   2   7
ATOM      7  C6  <0> d          -1.247   2.219   0.020  0.00  0.00    -0.018 C 
ATOM      8  H8  <0> d          -1.030   3.167  -0.494  0.00  0.00     0.043 H 
ATOM      9  H9  <0> d          -2.067   1.700  -0.497  0.00  0.00     0.043 H 
BRANCH   7  10
ATOM     10  C7  <0> d          -1.656   2.506   1.466  0.00  0.00     0.021 C 
ATOM     11  H10 <0> d          -1.873   1.558   1.981  0.00  0.00     0.074 H 
ATOM     12  H11 <0> d          -0.836   3.024   1.984  0.00  0.00     0.074 H 
BRANCH  10  13
ATOM     13  O1  <0> d          -2.823   3.330   1.477  0.00  0.00    -0.401 OA
ATOM     14  H12 <0> d          -3.267   3.643   2.433  0.00  0.00     0.209 HD
ENDBRANCH  10  13
ENDBRANCH   7  10
ENDBRANCH   2   7
BRANCH   1  15
ATOM     15  C1  <0> d          -1.203  -0.909   0.009  0.00  0.00    -0.035 C 
ATOM     16  H2  <0> d          -2.119  -0.300   0.021  0.00  0.00     0.035 H 
ATOM     17  H3  <0> d          -1.176  -1.548   0.904  0.00  0.00     0.035 H 
ATOM     18  H4  <0> d          -1.193  -1.539  -0.892  0.00  0.00     0.035 H 
ENDBRANCH   1  15
BRANCH   3  19
ATOM     19  C5  <0> d           1.754   3.237   0.003  0.00  0.00    -0.033 C 
ATOM     20  H5  <0> d           2.853   3.281  -0.008  0.00  0.00     0.035 H 
ATOM     21  H6  <0> d           1.376   3.736   0.907  0.00  0.00     0.035 H 
ATOM     22  H7  <0> d           1.359   3.745  -0.889  0.00  0.00     0.035 H 
ENDBRANCH   3  19
TORSDOF 5
