REMARK  3 active torsions:
REMARK  status: ('A' for Active; 'I' for Inactive)
REMARK    1  A    between atoms: C1_1  and  C2_2 
REMARK    2  A    between atoms: C2_2  and  O1_3 
REMARK    3  A    between atoms: O1_3  and  C3_4 
ROOT
ATOM      1  C3  <0> d           1.170   1.792   0.001  0.00  0.00     0.075 A 
ATOM      2  C4  <0> d           1.115   3.200   0.008  0.00  0.00    -0.036 A 
ATOM      3  C5  <0> d          -0.082   3.825   0.022  0.00  0.00    -0.017 A 
ATOM      4  N1  <0> d          -1.240   3.114   0.030  0.00  0.00    -0.334 N 
ATOM      5  H1  <0> d          -2.089   3.584   0.040  0.00  0.00     0.168 HD
ATOM      6  C6  <0> d          -1.229   1.768   0.017  0.00  0.00     0.247 A 
ATOM      7  O2  <0> d          -2.282   1.150   0.019  0.00  0.00    -0.268 OA
ATOM      8  C7  <0> d          -0.013   1.076   0.008  0.00  0.00     0.015 A 
ATOM      9  H7  <0> d           2.027   3.778   0.003  0.00  0.00     0.089 H 
ATOM     10  H8  <0> d          -0.120   4.905   0.028  0.00  0.00     0.111 H 
ATOM     11  H9  <0> d           0.002  -0.004   0.002  0.00  0.00     0.096 H 
ENDROOT
BRANCH   1  12
ATOM     12  O1  <0> d           2.363   1.151  -0.014  0.00  0.00    -0.351 OA
BRANCH  12  13
ATOM     13  C2  <0> d           2.331  -0.278  -0.022  0.00  0.00     0.023 C 
ATOM     14  H5  <0> d           1.818  -0.634   0.871  0.00  0.00     0.074 H 
ATOM     15  H6  <0> d           1.801  -0.625  -0.908  0.00  0.00     0.074 H 
BRANCH  13  16
ATOM     16  C1  <0> d           3.762  -0.820  -0.038  0.00  0.00    -0.056 C 
ATOM     17  H2  <0> d           4.275  -0.463  -0.931  0.00  0.00     0.030 H 
ATOM     18  H3  <0> d           4.292  -0.472   0.849  0.00  0.00     0.030 H 
ATOM     19  H4  <0> d           3.737  -1.909  -0.044  0.00  0.00     0.030 H 
ENDBRANCH  13  16
ENDBRANCH  12  13
ENDBRANCH   1  12
TORSDOF 3
