REMARK  5 active torsions:
REMARK  status: ('A' for Active; 'I' for Inactive)
REMARK    1  A    between atoms: C1_1  and  O1_2 
REMARK    2  A    between atoms: O1_2  and  C2_3 
REMARK    3  A    between atoms: C2_3  and  C3_5 
REMARK    4  A    between atoms: C3_5  and  C4_6 
REMARK    5  A    between atoms: C4_6  and  C5_7 
ROOT
ATOM      1  C5  <0> d           1.445  -4.047  -2.478  0.00  0.00     0.015 C 
ATOM      2  C6  <0> d           2.145  -4.449  -3.709  0.00  0.00     0.059 C 
ATOM      3  N1  <0> d           2.685  -4.758  -4.659  0.00  0.00    -0.197 NA
ATOM      4  H8  <0> d           1.982  -4.435  -1.612  0.00  0.00     0.054 H 
ATOM      5  H9  <0> d           0.432  -4.451  -2.487  0.00  0.00     0.054 H 
ENDROOT
BRANCH   1   6
ATOM      6  C4  <0> d           1.385  -2.521  -2.400  0.00  0.00    -0.045 C 
ATOM      7  H6  <0> d           0.848  -2.133  -3.265  0.00  0.00     0.035 H 
ATOM      8  H7  <0> d           2.397  -2.117  -2.390  0.00  0.00     0.035 H 
BRANCH   6   9
ATOM      9  C3  <0> d           0.657  -2.104  -1.120  0.00  0.00     0.017 C 
ATOM     10  H4  <0> d           1.195  -2.491  -0.254  0.00  0.00     0.048 H 
ATOM     11  H5  <0> d          -0.355  -2.507  -1.129  0.00  0.00     0.048 H 
BRANCH   9  12
ATOM     12  C2  <0> d           0.598  -0.600  -1.043  0.00  0.00     0.258 C 
ATOM     13  O2  <0> d           1.088   0.070  -1.921  0.00  0.00    -0.265 OA
BRANCH  12  14
ATOM     14  O1  <0> d           0.002  -0.004   0.002  0.00  0.00    -0.326 OA
BRANCH  14  15
ATOM     15  C1  <0> d          -0.017   1.425   0.010  0.00  0.00     0.013 C 
ATOM     16  H1  <0> d           1.005   1.802   0.002  0.00  0.00     0.067 H 
ATOM     17  H2  <0> d          -0.544   1.786  -0.873  0.00  0.00     0.067 H 
ATOM     18  H3  <0> d          -0.527   1.776   0.907  0.00  0.00     0.067 H 
ENDBRANCH  14  15
ENDBRANCH  12  14
ENDBRANCH   9  12
ENDBRANCH   6   9
ENDBRANCH   1   6
TORSDOF 5
