REMARK  1 active torsions:
REMARK  status: ('A' for Active; 'I' for Inactive)
REMARK    1  A    between atoms: C2_2  and  O1_11 
ROOT
ATOM      1  C1  <0> d           1.102   3.266   0.009  0.00  0.00     0.136 A 
ATOM      2  C2  <0> d           1.145   1.755   0.001  0.00  0.00     0.070 A 
ATOM      3  C3  <0> d          -0.013   1.076   0.008  0.00  0.00    -0.051 A 
ATOM      4  C4  <0> d          -1.289   1.779   0.018  0.00  0.00    -0.047 A 
ATOM      5  C5  <0> d          -1.362   3.149   0.032  0.00  0.00     0.140 A 
ATOM      6  N1  <0> d          -0.210   3.925   0.025  0.00  0.00    -0.015 N 
ATOM      7  C6  <0> d          -0.295   5.292   0.033  0.00  0.00     0.083 A 
ATOM      8  C7  <0> d          -1.495   5.902   0.048  0.00  0.00    -0.060 A 
ATOM      9  C8  <0> d          -2.685   5.144   0.055  0.00  0.00    -0.080 A 
ATOM     10  C9  <0> d          -2.627   3.790   0.048  0.00  0.00    -0.049 A 
ATOM     11  H1  <0> d           1.654   3.569  -0.893  0.00  0.00     0.087 H 
ATOM     12  H2  <0> d           1.671   3.560   0.903  0.00  0.00     0.087 H 
ATOM     13  H3  <0> d          -0.005  -0.024   0.007  0.00  0.00     0.087 H 
ATOM     14  H4  <0> d          -2.211   1.179   0.014  0.00  0.00     0.087 H 
ATOM     15  H5  <0> d           0.627   5.891   0.026  0.00  0.00     0.123 H 
ATOM     16  H6  <0> d          -1.552   7.001   0.056  0.00  0.00     0.085 H 
ATOM     17  H7  <0> d          -3.660   5.653   0.067  0.00  0.00     0.083 H 
ATOM     18  H8  <0> d          -3.554   3.199   0.053  0.00  0.00     0.086 H 
ATOM     19  H10 <0> d          -1.019   4.669   0.041  0.00  0.00     0.293 HD
ENDROOT
BRANCH   2  20
ATOM     20  O1  <0> d           2.334   1.096  -0.014  0.00  0.00    -0.363 OA
ATOM     21  H9  <0> d           2.353  -0.004  -0.020  0.00  0.00     0.217 HD
ENDBRANCH   2  20
TORSDOF 1
