REMARK  6 active torsions:
REMARK  status: ('A' for Active; 'I' for Inactive)
REMARK    1  A    between atoms: C1_1  and  C2_2 
REMARK    2  A    between atoms: C2_2  and  C3_3 
REMARK    3  A    between atoms: C3_3  and  C4_4 
REMARK    4  A    between atoms: C4_4  and  N1_5 
REMARK    5  A    between atoms: N1_5  and  C5_6 
REMARK    6  A    between atoms: N3_10  and  C8_11 
ROOT
ATOM      1  C4  <0> d          -0.943  -2.285  -0.001  0.00  0.00     0.009 C 
ATOM      2  H8  <0> d          -0.400  -2.582  -0.898  0.00  0.00     0.064 H 
ATOM      3  H9  <0> d          -0.382  -2.591   0.882  0.00  0.00     0.064 H 
ENDROOT
BRANCH   1   4
ATOM      4  C3  <0> d          -2.317  -2.956   0.009  0.00  0.00    -0.050 C 
ATOM      5  H6  <0> d          -2.861  -2.659   0.906  0.00  0.00     0.035 H 
ATOM      6  H7  <0> d          -2.878  -2.649  -0.874  0.00  0.00     0.035 H 
BRANCH   4   7
ATOM      7  C2  <0> d          -2.142  -4.476  -0.001  0.00  0.00    -0.067 C 
ATOM      8  H4  <0> d          -1.599  -4.774  -0.898  0.00  0.00     0.032 H 
ATOM      9  H5  <0> d          -1.582  -4.783   0.882  0.00  0.00     0.032 H 
BRANCH   7  10
ATOM     10  C1  <0> d          -3.517  -5.148   0.009  0.00  0.00    -0.076 C 
ATOM     11  H1  <0> d          -4.060  -4.851   0.906  0.00  0.00     0.027 H 
ATOM     12  H2  <0> d          -4.078  -4.841  -0.874  0.00  0.00     0.027 H 
ATOM     13  H3  <0> d          -3.392  -6.231   0.002  0.00  0.00     0.027 H 
ENDBRANCH   7  10
ENDBRANCH   4   7
ENDBRANCH   1   4
BRANCH   1  14
ATOM     14  N1  <0> d          -1.110  -0.829   0.009  0.00  0.00    -0.224 N 
ATOM     15  H10 <0> d          -2.000  -0.444   0.019  0.00  0.00     0.177 HD
BRANCH  14  16
ATOM     16  C5  <0> d           0.002  -0.004   0.002  0.00  0.00     0.701 A 
ATOM     17  N3  <0> d          -0.016   1.356   0.009  0.00  0.00    -0.195 N 
ATOM     18  C7  <0> d           1.294   1.777  -0.001  0.00  0.00     0.014 A 
ATOM     19  C6  <0> d           2.060   0.672  -0.014  0.00  0.00     0.036 A 
ATOM     20  H12 <0> d           1.641   2.800   0.001  0.00  0.00     0.114 H 
ATOM     21  N2  <0> d           1.252  -0.402  -0.012  0.00  0.00    -0.076 NA
ATOM     22  H11 <0> d           3.140   0.652  -0.025  0.00  0.00     0.117 H 
BRANCH  17  23
ATOM     23  C8  <0> d          -1.206   2.211   0.020  0.00  0.00     0.002 C 
ATOM     24  H13 <0> d          -1.496   2.418   1.050  0.00  0.00     0.058 H 
ATOM     25  H14 <0> d          -0.984   3.149  -0.490  0.00  0.00     0.058 H 
ATOM     26  H15 <0> d          -2.023   1.704  -0.492  0.00  0.00     0.058 H 
ENDBRANCH  17  23
ENDBRANCH  14  16
ENDBRANCH   1  14
TORSDOF 6
