REMARK  4 active torsions:
REMARK  status: ('A' for Active; 'I' for Inactive)
REMARK    1  A    between atoms: C1_1  and  C2_2 
REMARK    2  A    between atoms: C2_2  and  C3_3 
REMARK    3  A    between atoms: C2_2  and  C4_4 
REMARK    4  A    between atoms: C4_4  and  C5_6 
ROOT
ATOM      1  C2  <0> d           1.280   1.975   0.000  0.00  0.00    -0.003 C 
ATOM      2  H4  <0> d           1.116   2.933  -0.514  0.00  0.00     0.050 H 
ENDROOT
BRANCH   1   3
ATOM      3  C1  <0> d           1.732   2.228   1.440  0.00  0.00    -0.067 C 
ATOM      4  H1  <0> d           0.963   2.809   1.969  0.00  0.00     0.028 H 
ATOM      5  H2  <0> d           2.677   2.791   1.434  0.00  0.00     0.028 H 
ATOM      6  H3  <0> d           1.882   1.266   1.952  0.00  0.00     0.028 H 
ENDBRANCH   1   3
BRANCH   1   7
ATOM      7  C3  <0> d           2.351   1.166  -0.735  0.00  0.00    -0.067 C 
ATOM      8  H5  <0> d           2.026   0.984  -1.770  0.00  0.00     0.028 H 
ATOM      9  H6  <0> d           2.500   0.204  -0.223  0.00  0.00     0.028 H 
ATOM     10  H7  <0> d           3.296   1.729  -0.741  0.00  0.00     0.028 H 
ENDBRANCH   1   7
BRANCH   1  11
ATOM     11  C4  <0> d          -0.014   1.203   0.009  0.00  0.00     0.134 C 
ATOM     12  O1  <0> d           0.002  -0.004   0.002  0.00  0.00    -0.297 OA
BRANCH  11  13
ATOM     13  C5  <0> d          -1.329   1.939   0.019  0.00  0.00     0.004 A 
ATOM     14  C7  <0> d          -2.550   1.213  -0.551  0.00  0.00    -0.055 A 
ATOM     15  C6  <0> d          -2.420   1.423   0.960  0.00  0.00    -0.055 A 
ATOM     16  H11 <0> d          -3.087   1.883  -1.239  0.00  0.00     0.034 H 
ATOM     17  H12 <0> d          -2.221   0.315  -1.095  0.00  0.00     0.034 H 
ATOM     18  H9  <0> d          -1.985   0.699   1.664  0.00  0.00     0.034 H 
ATOM     19  H10 <0> d          -2.850   2.267   1.520  0.00  0.00     0.034 H 
ATOM     20  H8  <0> d          -0.841   2.909  -0.158  0.00  0.00     0.051 H 
ENDBRANCH  11  13
ENDBRANCH   1  11
TORSDOF 4
