REMARK  3 active torsions:
REMARK  status: ('A' for Active; 'I' for Inactive)
REMARK    1  A    between atoms: C1_1  and  C2_2 
REMARK    2  A    between atoms: C2_2  and  C3_3 
REMARK    3  A    between atoms: C3_3  and  C4_4 
ROOT
ATOM      1  C4  <0> d          -0.819   1.627  -1.191  0.00  0.00     0.048 C 
ATOM      2  H1  <0> d          -0.200   2.298  -1.786  0.00  0.00     0.084 H 
ATOM      3  C5  <0> d          -0.013   1.086   0.008  0.00  0.00    -0.032 C 
ATOM      4  C6  <0> d          -0.797   1.615   1.230  0.00  0.00     0.018 C 
ATOM      5  C7  <0> d          -1.676   2.706   0.638  0.00  0.00     0.259 C 
ATOM      6  O1  <0> d          -2.056   3.704   1.203  0.00  0.00    -0.265 OA
ATOM      7  O2  <0> d          -1.950   2.353  -0.631  0.00  0.00    -0.316 OA
ATOM      8  H9  <0> d           0.002  -0.004   0.002  0.00  0.00     0.037 H 
ATOM      9  H10 <0> d           1.002   1.483   0.001  0.00  0.00     0.037 H 
ATOM     10  H11 <0> d          -1.408   0.824   1.665  0.00  0.00     0.048 H 
ATOM     11  H12 <0> d          -0.116   2.028   1.974  0.00  0.00     0.048 H 
ENDROOT
BRANCH   1  12
ATOM     12  C3  <0> d          -1.316   0.466  -2.055  0.00  0.00    -0.041 C 
ATOM     13  H7  <0> d          -0.471  -0.154  -2.352  0.00  0.00     0.036 H 
ATOM     14  H8  <0> d          -2.025  -0.134  -1.485  0.00  0.00     0.036 H 
BRANCH  12  15
ATOM     15  C2  <0> d          -2.006   1.020  -3.304  0.00  0.00    -0.066 C 
ATOM     16  H5  <0> d          -2.851   1.641  -3.007  0.00  0.00     0.032 H 
ATOM     17  H6  <0> d          -1.297   1.620  -3.874  0.00  0.00     0.032 H 
BRANCH  15  18
ATOM     18  C1  <0> d          -2.503  -0.140  -4.169  0.00  0.00    -0.076 C 
ATOM     19  H2  <0> d          -1.658  -0.761  -4.465  0.00  0.00     0.027 H 
ATOM     20  H3  <0> d          -3.212  -0.740  -3.598  0.00  0.00     0.027 H 
ATOM     21  H4  <0> d          -2.994   0.254  -5.058  0.00  0.00     0.027 H 
ENDBRANCH  15  18
ENDBRANCH  12  15
ENDBRANCH   1  12
TORSDOF 3
