REMARK  3 active torsions:
REMARK  status: ('A' for Active; 'I' for Inactive)
REMARK    1  A    between atoms: C1_1  and  N1_2 
REMARK    2  A    between atoms: C2_3  and  S1_9 
REMARK    3  A    between atoms: S1_9  and  C5_10 
ROOT
ATOM      1  N1  <0> d           2.318   1.387  -0.013  0.00  0.00    -0.251 N 
ATOM      2  C2  <0> d           2.309   0.029  -0.020  0.00  0.00     0.187 A 
ATOM      3  N2  <0> d           1.176  -0.646  -0.013  0.00  0.00    -0.183 NA
ATOM      4  C3  <0> d           0.002  -0.004   0.002  0.00  0.00     0.288 A 
ATOM      5  O1  <0> d          -1.044  -0.634   0.008  0.00  0.00    -0.264 OA
ATOM      6  C4  <0> d          -0.018   1.461   0.010  0.00  0.00     0.089 A 
ATOM      7  N3  <0> d           1.117   2.108   0.003  0.00  0.00    -0.178 NA
ATOM      8  H4  <0> d          -0.955   1.997   0.018  0.00  0.00     0.126 H 
ENDROOT
BRANCH   2   9
ATOM      9  S1  <0> d           3.838  -0.847  -0.039  0.00  0.00    -0.095 SA
BRANCH   9  10
ATOM     10  C5  <0> d           3.225  -2.550  -0.042  0.00  0.00    -0.027 C 
ATOM     11  H5  <0> d           2.627  -2.722   0.852  0.00  0.00     0.042 H 
ATOM     12  H6  <0> d           2.610  -2.712  -0.927  0.00  0.00     0.042 H 
ATOM     13  H7  <0> d           4.069  -3.240  -0.054  0.00  0.00     0.042 H 
ENDBRANCH   9  10
ENDBRANCH   2   9
BRANCH   1  14
ATOM     14  C1  <0> d           3.595   2.105  -0.022  0.00  0.00     0.005 C 
ATOM     15  H1  <0> d           3.902   2.289  -1.052  0.00  0.00     0.059 H 
ATOM     16  H2  <0> d           3.481   3.057   0.498  0.00  0.00     0.059 H 
ATOM     17  H3  <0> d           4.353   1.505   0.482  0.00  0.00     0.059 H 
ENDBRANCH   1  14
TORSDOF 3
