REMARK  3 active torsions:
REMARK  status: ('A' for Active; 'I' for Inactive)
REMARK    1  A    between atoms: C1_1  and  O1_2 
REMARK    2  A    between atoms: O1_2  and  C2_3 
REMARK    3  A    between atoms: C5_6  and  N1_11 
ROOT
ATOM      1  C2  <0> d          -0.787   2.893   1.346  0.00  0.00     0.110 A 
ATOM      2  C3  <0> d          -0.253   3.750   0.396  0.00  0.00    -0.045 A 
ATOM      3  C4  <0> d          -0.364   5.118   0.557  0.00  0.00    -0.052 A 
ATOM      4  C5  <0> d          -1.001   5.637   1.676  0.00  0.00     0.068 A 
ATOM      5  C6  <0> d          -1.533   4.779   2.632  0.00  0.00     0.183 A 
ATOM      6  C7  <0> d          -1.426   3.409   2.467  0.00  0.00     0.190 A 
ATOM      7  F1  <0> d          -1.942   2.574   3.395  0.00  0.00    -0.200 F 
ATOM      8  F2  <0> d          -2.153   5.282   3.722  0.00  0.00    -0.200 F 
ATOM      9  H4  <0> d           0.246   3.348  -0.472  0.00  0.00     0.088 H 
ATOM     10  H5  <0> d           0.049   5.784  -0.186  0.00  0.00     0.087 H 
ENDROOT
BRANCH   1  11
ATOM     11  O1  <0> d          -0.682   1.547   1.184  0.00  0.00    -0.353 OA
BRANCH  11  12
ATOM     12  C1  <0> d          -0.013   1.086   0.008  0.00  0.00     0.011 C 
ATOM     13  H1  <0> d           0.002  -0.004   0.002  0.00  0.00     0.066 H 
ATOM     14  H2  <0> d           1.010   1.463   0.000  0.00  0.00     0.066 H 
ATOM     15  H3  <0> d          -0.540   1.447  -0.875  0.00  0.00     0.066 H 
ENDBRANCH  11  12
ENDBRANCH   1  11
BRANCH   4  16
ATOM     16  N1  <0> d          -1.109   7.024   1.841  0.00  0.00    -0.397 N 
ATOM     17  H6  <0> d          -1.555   7.386   2.623  0.00  0.00     0.156 HD
ATOM     18  H7  <0> d          -0.738   7.622   1.174  0.00  0.00     0.156 HD
ENDBRANCH   4  16
TORSDOF 3
