REMARK  2 active torsions:
REMARK  status: ('A' for Active; 'I' for Inactive)
REMARK    1  A    between atoms: C3_3  and  C6_9 
REMARK    2  A    between atoms: C4_5  and  C5_7 
ROOT
ATOM      1  C1  <0> d          -2.384   2.157   2.515  0.00  0.00    -0.117 C 
ATOM      2  C2  <0> d          -2.176   1.838   1.262  0.00  0.00    -0.058 A 
ATOM      3  C3  <0> d          -2.609   1.101   0.020  0.00  0.00     0.069 A 
ATOM      4  H1  <0> d          -2.502   0.017   0.014  0.00  0.00     0.065 H 
ATOM      5  C4  <0> d          -1.329   1.940   0.019  0.00  0.00     0.069 A 
ATOM      6  H2  <0> d          -1.345   2.883  -0.527  0.00  0.00     0.065 H 
ATOM      7  H3  <0> d          -1.687   2.802   3.031  0.00  0.00     0.067 H 
ATOM      8  H4  <0> d          -3.252   1.777   3.032  0.00  0.00     0.067 H 
ENDROOT
BRANCH   3   9
ATOM      9  C6  <0> d          -3.797   1.641  -0.733  0.00  0.00     0.182 C 
ATOM     10  O2  <0> d          -3.717   2.700  -1.309  0.00  0.00    -0.647 OA
ATOM     11  O4  <0> d          -4.945   0.946  -0.764  0.00  0.00    -0.647 OA
ENDBRANCH   3   9
BRANCH   5  12
ATOM     12  C5  <0> d          -0.014   1.204   0.009  0.00  0.00     0.182 C 
ATOM     13  O1  <0> d           0.002  -0.004   0.002  0.00  0.00    -0.647 OA
ATOM     14  O3  <0> d           1.139   1.891   0.001  0.00  0.00    -0.647 OA
ENDBRANCH   5  12
TORSDOF 2
