REMARK  1 active torsions:
REMARK  status: ('A' for Active; 'I' for Inactive)
REMARK    1  A    between atoms: C8_9  and  N3_11 
ROOT
ATOM      1  C1  <0> d          -2.409   1.368   0.034  0.00  0.00    -0.081 A 
ATOM      2  C2  <0> d          -2.390  -0.025   0.026  0.00  0.00    -0.081 A 
ATOM      3  C3  <0> d          -1.214  -0.709   0.010  0.00  0.00    -0.053 A 
ATOM      4  C4  <0> d           0.002  -0.004   0.002  0.00  0.00     0.087 A 
ATOM      5  C5  <0> d          -0.017   1.413   0.010  0.00  0.00     0.085 A 
ATOM      6  C6  <0> d          -1.252   2.084   0.031  0.00  0.00    -0.053 A 
ATOM      7  N1  <0> d           1.136   2.092   0.002  0.00  0.00    -0.255 NA
ATOM      8  C7  <0> d           2.276   1.444  -0.012  0.00  0.00     0.046 A 
ATOM      9  C8  <0> d           2.300   0.038  -0.020  0.00  0.00     0.139 A 
ATOM     10  N2  <0> d           1.174  -0.651  -0.013  0.00  0.00    -0.228 NA
ATOM     11  H1  <0> d          -3.356   1.887   0.046  0.00  0.00     0.083 H 
ATOM     12  H2  <0> d          -3.323  -0.571   0.032  0.00  0.00     0.083 H 
ATOM     13  H3  <0> d          -1.214  -1.789   0.005  0.00  0.00     0.087 H 
ATOM     14  H4  <0> d          -1.282   3.163   0.037  0.00  0.00     0.087 H 
ATOM     15  H5  <0> d           3.205   1.995  -0.018  0.00  0.00     0.120 H 
ENDROOT
BRANCH   9  16
ATOM     16  N3  <0> d           3.515  -0.630  -0.035  0.00  0.00    -0.383 N 
ATOM     17  H6  <0> d           3.536  -1.599  -0.040  0.00  0.00     0.157 HD
ATOM     18  H7  <0> d           4.345  -0.127  -0.040  0.00  0.00     0.157 HD
ENDBRANCH   9  16
TORSDOF 1
