REMARK  8 active torsions:
REMARK  status: ('A' for Active; 'I' for Inactive)
REMARK    1  A    between atoms: C1_1  and  C2_2 
REMARK    2  A    between atoms: C2_2  and  C10_11 
REMARK    3  A    between atoms: C3_3  and  C4_4 
REMARK    4  A    between atoms: C4_4  and  C5_5 
REMARK    5  A    between atoms: C5_5  and  C6_6 
REMARK    6  A    between atoms: C6_6  and  C7_7 
REMARK    7  A    between atoms: C6_6  and  C8_8 
REMARK    8  A    between atoms: C6_6  and  O1_10 
ROOT
ATOM      1  C5  <0> d          -0.879  -0.572   3.395  0.00  0.00    -0.030 C 
ATOM      2  H7  <0> d          -1.877  -0.533   2.957  0.00  0.00     0.038 H 
ATOM      3  H8  <0> d          -0.598  -1.611   3.565  0.00  0.00     0.038 H 
ENDROOT
BRANCH   1   4
ATOM      4  C4  <0> d           0.123   0.078   2.439  0.00  0.00    -0.047 C 
ATOM      5  H5  <0> d           1.121   0.039   2.877  0.00  0.00     0.038 H 
ATOM      6  H6  <0> d          -0.159   1.118   2.269  0.00  0.00     0.038 H 
BRANCH   4   7
ATOM      7  C3  <0> d           0.121  -0.664   1.128  0.00  0.00    -0.101 C 
ATOM      8  C2  <0> d          -0.087  -0.015   0.009  0.00  0.00    -0.091 C 
ATOM      9  H4  <0> d           0.290  -1.730   1.110  0.00  0.00     0.077 H 
BRANCH   8  10
ATOM     10  C1  <0> d          -0.201   1.487   0.018  0.00  0.00    -0.055 C 
ATOM     11  H1  <0> d           0.684   1.916   0.488  0.00  0.00     0.033 H 
ATOM     12  H2  <0> d          -0.282   1.852  -1.006  0.00  0.00     0.033 H 
ATOM     13  H3  <0> d          -1.088   1.781   0.580  0.00  0.00     0.033 H 
ENDBRANCH   8  10
BRANCH   8  14
ATOM     14  C10 <0> d          -0.213  -0.772  -1.289  0.00  0.00    -0.055 C 
ATOM     15  H16 <0> d           0.772  -0.876  -1.745  0.00  0.00     0.033 H 
ATOM     16  H17 <0> d          -0.630  -1.760  -1.094  0.00  0.00     0.033 H 
ATOM     17  H18 <0> d          -0.871  -0.227  -1.965  0.00  0.00     0.033 H 
ENDBRANCH   8  14
ENDBRANCH   4   7
ENDBRANCH   1   4
BRANCH   1  18
ATOM     18  C6  <0> d          -0.876   0.182   4.727  0.00  0.00     0.071 C 
BRANCH  18  19
ATOM     19  C7  <0> d           0.549   0.234   5.280  0.00  0.00    -0.045 C 
ATOM     20  H9  <0> d           1.196   0.749   4.570  0.00  0.00     0.032 H 
ATOM     21  H10 <0> d           0.551   0.771   6.229  0.00  0.00     0.032 H 
ATOM     22  H11 <0> d           0.915  -0.781   5.436  0.00  0.00     0.032 H 
ENDBRANCH  18  19
BRANCH  18  23
ATOM     23  C8  <0> d          -1.771  -0.531   5.708  0.00  0.00    -0.080 C 
ATOM     24  C9  <0> d          -2.803   0.090   6.224  0.00  0.00    -0.122 C 
ATOM     25  H13 <0> d          -3.444  -0.420   6.928  0.00  0.00     0.066 H 
ATOM     26  H14 <0> d          -3.012   1.113   5.946  0.00  0.00     0.066 H 
ATOM     27  H12 <0> d          -1.561  -1.553   5.987  0.00  0.00     0.080 H 
ENDBRANCH  18  23
BRANCH  18  28
ATOM     28  O1  <0> d          -1.357   1.512   4.522  0.00  0.00    -0.386 OA
ATOM     29  H15 <0> d          -2.257   1.555   4.172  0.00  0.00     0.211 HD
ENDBRANCH  18  28
ENDBRANCH   1  18
TORSDOF 8
