REMARK  1 active torsions:
REMARK  status: ('A' for Active; 'I' for Inactive)
REMARK    1  A    between atoms: C3_3  and  C6_7 
ROOT
ATOM      1  C1  <0> d          -0.017   1.379   0.010  0.00  0.00    -0.065 A 
ATOM      2  C2  <0> d           1.181   2.072   0.002  0.00  0.00    -0.066 A 
ATOM      3  C3  <0> d           2.372   1.339  -0.013  0.00  0.00     0.033 A 
ATOM      4  C4  <0> d           2.306  -0.054  -0.020  0.00  0.00     0.015 A 
ATOM      5  N1  <0> d           1.141  -0.669  -0.013  0.00  0.00    -0.272 NA
ATOM      6  C5  <0> d           0.002  -0.004   0.002  0.00  0.00     0.002 A 
ATOM      7  H1  <0> d          -0.956   1.912   0.026  0.00  0.00     0.085 H 
ATOM      8  H2  <0> d           1.196   3.152   0.007  0.00  0.00     0.085 H 
ATOM      9  H3  <0> d           3.217  -0.633  -0.032  0.00  0.00     0.116 H 
ATOM     10  H4  <0> d          -0.931  -0.548   0.008  0.00  0.00     0.114 H 
ENDROOT
BRANCH   3  11
ATOM     11  C6  <0> d           3.681   2.030  -0.023  0.00  0.00     0.208 A 
ATOM     12  N5  <0> d           4.886   1.457  -0.037  0.00  0.00    -0.106 NA
ATOM     13  N4  <0> d           5.764   2.402  -0.043  0.00  0.00    -0.021 NA
ATOM     14  N3  <0> d           5.163   3.540  -0.025  0.00  0.00    -0.021 NA
ATOM     15  N2  <0> d           3.888   3.348  -0.012  0.00  0.00    -0.106 NA
ENDBRANCH   3  11
TORSDOF 1
