REMARK  1 active torsions:
REMARK  status: ('A' for Active; 'I' for Inactive)
REMARK    1  A    between atoms: C1_1  and  C2_2 
REMARK       I    between atoms: C2_2  and  N1_4 
ROOT
ATOM      1  C2  <0> d           0.002  -0.004   0.002  0.00  0.00     0.228 C 
ATOM      2  O1  <0> d           0.020  -0.616   1.048  0.00  0.00    -0.273 OA
ATOM      3  N1  <0> d           0.000  -0.672  -1.169  0.00  0.00    -0.237 N 
ATOM      4  C3  <0> d           0.012  -2.055  -1.332  0.00  0.00     0.015 A 
ATOM      5  C4  <0> d           0.005  -2.304  -2.633  0.00  0.00     0.040 A 
ATOM      6  O2  <0> d          -0.011  -1.125  -3.297  0.00  0.00    -0.272 OA
ATOM      7  C5  <0> d          -0.019  -0.125  -2.402  0.00  0.00     0.378 A 
ATOM      8  O3  <0> d          -0.039   1.064  -2.657  0.00  0.00    -0.237 OA
ATOM      9  H4  <0> d           0.024  -2.791  -0.541  0.00  0.00     0.115 H 
ATOM     10  H5  <0> d           0.011  -3.284  -3.088  0.00  0.00     0.125 H 
ENDROOT
BRANCH   1  11
ATOM     11  C1  <0> d          -0.018   1.503   0.010  0.00  0.00    -0.002 C 
ATOM     12  H1  <0> d           1.004   1.880   0.003  0.00  0.00     0.040 H 
ATOM     13  H2  <0> d          -0.545   1.864  -0.873  0.00  0.00     0.040 H 
ATOM     14  H3  <0> d          -0.529   1.854   0.907  0.00  0.00     0.040 H 
ENDBRANCH   1  11
TORSDOF 1
