REMARK  0 active torsions:
REMARK  status: ('A' for Active; 'I' for Inactive)
ROOT
ATOM      1  C1  <0> d          -0.017   1.378   0.010  0.00  0.00    -0.065 A 
ATOM      2  C2  <0> d          -1.235   2.038   0.019  0.00  0.00    -0.045 A 
ATOM      3  C3  <0> d          -2.399   1.277   0.020  0.00  0.00     0.122 A 
ATOM      4  C4  <0> d          -2.299  -0.107   0.012  0.00  0.00     0.012 A 
ATOM      5  N1  <0> d          -1.120  -0.696   0.004  0.00  0.00    -0.373 N 
ATOM      6  C5  <0> d           0.002  -0.004   0.002  0.00  0.00    -0.023 A 
ATOM      7  O1  <0> d          -3.617   1.880   0.030  0.00  0.00    -0.191 OA
ATOM      8  H1  <0> d           0.907   1.937   0.004  0.00  0.00     0.085 H 
ATOM      9  H2  <0> d          -1.280   3.117   0.025  0.00  0.00     0.088 H 
ATOM     10  H3  <0> d          -3.197  -0.708   0.013  0.00  0.00     0.115 H 
ATOM     11  H4  <0> d           0.949  -0.524  -0.009  0.00  0.00     0.111 H 
ATOM     12  H5  <0> d          -1.077  -1.665  -0.001  0.00  0.00     0.164 HD
ENDROOT
TORSDOF 0
