REMARK  2 active torsions:
REMARK  status: ('A' for Active; 'I' for Inactive)
REMARK    1  A    between atoms: C2_2  and  C4_8 
REMARK    2  A    between atoms: C4_8  and  O1_9 
ROOT
ATOM      1  C1  <0> d          -1.126   2.516   0.020  0.00  0.00    -0.017 A 
ATOM      2  C2  <0> d          -0.706   3.850   0.029  0.00  0.00     0.081 A 
ATOM      3  N1  <0> d           0.602   3.867   0.017  0.00  0.00    -0.176 NA
ATOM      4  N2  <0> d           1.058   2.543   0.006  0.00  0.00    -0.267 N 
ATOM      5  H1  <0> d           2.137   2.333  -0.006  0.00  0.00     0.190 HD
ATOM      6  C3  <0> d          -0.021   1.732   0.012  0.00  0.00     0.121 A 
ATOM      7 Cl1  <0> d           0.002  -0.004   0.002  0.00  0.00    -0.063 Cl
ATOM      8  H2  <0> d          -2.150   2.171   0.023  0.00  0.00     0.091 H 
ENDROOT
BRANCH   2   9
ATOM      9  C4  <0> d          -1.606   5.059   0.044  0.00  0.00     0.058 C 
ATOM     10  H3  <0> d          -1.400   5.658   0.943  0.00  0.00     0.083 H 
ATOM     11  H4  <0> d          -1.417   5.667  -0.853  0.00  0.00     0.083 H 
BRANCH   9  12
ATOM     12  O1  <0> d          -2.971   4.637   0.054  0.00  0.00    -0.395 OA
ATOM     13  H5  <0> d          -3.778   5.385   0.066  0.00  0.00     0.209 HD
ENDBRANCH   9  12
ENDBRANCH   2   9
TORSDOF 2
