REMARK  2 active torsions:
REMARK  status: ('A' for Active; 'I' for Inactive)
REMARK    1  A    between atoms: C1_1  and  C2_2 
REMARK    2  A    between atoms: C10_10  and  C11_12 
ROOT
ATOM      1  C2  <0> d           2.392   0.031  -0.020  0.00  0.00    -0.061 A 
ATOM      2  C3  <0> d           2.376   1.425  -0.013  0.00  0.00    -0.075 A 
ATOM      3  C4  <0> d           1.202   2.113   0.002  0.00  0.00    -0.054 A 
ATOM      4  C5  <0> d          -0.017   1.413   0.010  0.00  0.00     0.067 A 
ATOM      5  C6  <0> d           0.002  -0.004   0.002  0.00  0.00    -0.007 A 
ATOM      6  C7  <0> d           1.232  -0.681  -0.013  0.00  0.00    -0.065 A 
ATOM      7  C8  <0> d          -1.219  -0.703   0.010  0.00  0.00    -0.069 A 
ATOM      8  C9  <0> d          -2.377   0.022   0.025  0.00  0.00    -0.059 A 
ATOM      9  C10 <0> d          -2.325   1.414   0.032  0.00  0.00     0.031 A 
ATOM     10  N1  <0> d          -1.185   2.062   0.030  0.00  0.00    -0.253 NA
ATOM     11  H4  <0> d           3.310   1.967  -0.019  0.00  0.00     0.084 H 
ATOM     12  H5  <0> d           1.207   3.193   0.007  0.00  0.00     0.087 H 
ATOM     13  H6  <0> d           1.258  -1.761  -0.019  0.00  0.00     0.085 H 
ATOM     14  H7  <0> d          -1.241  -1.783   0.005  0.00  0.00     0.085 H 
ATOM     15  H8  <0> d          -3.331  -0.483   0.031  0.00  0.00     0.086 H 
ENDROOT
BRANCH   1  16
ATOM     16  C1  <0> d           3.712  -0.697  -0.036  0.00  0.00    -0.051 C 
ATOM     17  H1  <0> d           4.020  -0.867  -1.067  0.00  0.00     0.033 H 
ATOM     18  H2  <0> d           4.465  -0.096   0.474  0.00  0.00     0.033 H 
ATOM     19  H3  <0> d           3.605  -1.654   0.474  0.00  0.00     0.033 H 
ENDBRANCH   1  16
BRANCH   9  20
ATOM     20  C11 <0> d          -3.613   2.196   0.049  0.00  0.00    -0.035 C 
ATOM     21  H9  <0> d          -3.914   2.379   1.081  0.00  0.00     0.035 H 
ATOM     22  H10 <0> d          -3.467   3.148  -0.461  0.00  0.00     0.035 H 
ATOM     23  H11 <0> d          -4.391   1.627  -0.460  0.00  0.00     0.035 H 
ENDBRANCH   9  20
TORSDOF 2
