REMARK  0 active torsions:
REMARK  status: ('A' for Active; 'I' for Inactive)
ROOT
ATOM      1  C1  <0> d          -3.616   3.568   0.057  0.00  0.00    -0.082 A 
ATOM      2  C2  <0> d          -3.637   2.174   0.049  0.00  0.00    -0.082 A 
ATOM      3  C3  <0> d          -2.480   1.454   0.033  0.00  0.00    -0.069 A 
ATOM      4  C4  <0> d          -1.250   2.122   0.019  0.00  0.00     0.014 A 
ATOM      5  C5  <0> d          -1.228   3.541   0.033  0.00  0.00    -0.022 A 
ATOM      6  C6  <0> d          -2.437   4.251   0.049  0.00  0.00    -0.072 A 
ATOM      7  C7  <0> d           0.021   4.187   0.025  0.00  0.00    -0.055 A 
ATOM      8  C8  <0> d           1.156   3.429   0.009  0.00  0.00     0.004 A 
ATOM      9  N1  <0> d           1.117   2.108   0.003  0.00  0.00    -0.249 NA
ATOM     10  C9  <0> d          -0.017   1.428   0.010  0.00  0.00     0.147 A 
ATOM     11  C10 <0> d           0.002  -0.004   0.002  0.00  0.00     0.120 C 
ATOM     12  N2  <0> d           0.018  -1.140  -0.004  0.00  0.00    -0.190 NA
ATOM     13  H1  <0> d          -4.547   4.114   0.069  0.00  0.00     0.083 H 
ATOM     14  H2  <0> d          -4.585   1.657   0.055  0.00  0.00     0.083 H 
ATOM     15  H3  <0> d          -2.513   0.374   0.027  0.00  0.00     0.085 H 
ATOM     16  H4  <0> d          -2.435   5.331   0.054  0.00  0.00     0.084 H 
ATOM     17  H5  <0> d           0.081   5.266   0.029  0.00  0.00     0.087 H 
ATOM     18  H6  <0> d           2.116   3.924   0.003  0.00  0.00     0.114 H 
ENDROOT
TORSDOF 0
