REMARK  3 active torsions:
REMARK  status: ('A' for Active; 'I' for Inactive)
REMARK    1  A    between atoms: C1_1  and  C2_2 
REMARK    2  A    between atoms: C3_3  and  C7_10 
REMARK    3  A    between atoms: C4_5  and  N2_9 
ROOT
ATOM      1  C2  <0> d          -3.423   2.185   0.030  0.00  0.00    -0.007 A 
ATOM      2  C3  <0> d          -2.678   3.298   0.033  0.00  0.00     0.059 A 
ATOM      3  O1  <0> d          -1.374   2.970   0.030  0.00  0.00    -0.297 OA
ATOM      4  C4  <0> d          -1.215   1.639   0.017  0.00  0.00     0.163 A 
ATOM      5  C5  <0> d          -2.475   1.059   0.019  0.00  0.00     0.103 A 
ATOM      6  C6  <0> d          -2.787  -0.339   0.013  0.00  0.00     0.104 C 
ATOM      7  N1  <0> d          -3.034  -1.448   0.007  0.00  0.00    -0.191 NA
ENDROOT
BRANCH   1   8
ATOM      8  C1  <0> d          -4.927   2.102   0.036  0.00  0.00    -0.047 C 
ATOM      9  H1  <0> d          -5.285   2.077   1.065  0.00  0.00     0.033 H 
ATOM     10  H2  <0> d          -5.341   2.973  -0.471  0.00  0.00     0.033 H 
ATOM     11  H3  <0> d          -5.243   1.196  -0.481  0.00  0.00     0.033 H 
ENDBRANCH   1   8
BRANCH   4  12
ATOM     12  N2  <0> d          -0.011   0.966   0.007  0.00  0.00    -0.378 N 
ATOM     13  H4  <0> d           0.002  -0.004   0.002  0.00  0.00     0.158 HD
ATOM     14  H5  <0> d           0.822   1.462   0.002  0.00  0.00     0.158 HD
ENDBRANCH   4  12
BRANCH   2  15
ATOM     15  C7  <0> d          -3.219   4.705   0.044  0.00  0.00    -0.031 C 
ATOM     16  H6  <0> d          -3.344   5.038   1.074  0.00  0.00     0.036 H 
ATOM     17  H7  <0> d          -2.521   5.366  -0.470  0.00  0.00     0.036 H 
ATOM     18  H8  <0> d          -4.183   4.727  -0.465  0.00  0.00     0.036 H 
ENDBRANCH   2  15
TORSDOF 3
