REMARK  2 active torsions:
REMARK  status: ('A' for Active; 'I' for Inactive)
REMARK    1  A    between atoms: C1_1  and  O1_2 
REMARK    2  A    between atoms: O1_2  and  C2_3 
ROOT
ATOM      1  C2  <0> d          -2.971   3.778   0.050  0.00  0.00     0.164 A 
ATOM      2  C3  <0> d          -1.633   4.119   0.039  0.00  0.00    -0.018 A 
ATOM      3  C4  <0> d          -0.679   3.093   0.025  0.00  0.00     0.017 A 
ATOM      4  C5  <0> d           0.733   3.050   0.011  0.00  0.00     0.034 A 
ATOM      5  N1  <0> d           1.111   1.804   0.001  0.00  0.00    -0.186 NA
ATOM      6  N2  <0> d          -0.011   0.966   0.007  0.00  0.00    -0.276 N 
ATOM      7  H1  <0> d           0.003  -0.034   0.006  0.00  0.00     0.189 HD
ATOM      8  C6  <0> d          -1.133   1.756   0.016  0.00  0.00     0.079 A 
ATOM      9  C7  <0> d          -2.499   1.510   0.033  0.00  0.00     0.033 A 
ATOM     10  N3  <0> d          -3.357   2.509   0.046  0.00  0.00    -0.235 NA
ATOM     11  H5  <0> d          -1.329   5.155   0.041  0.00  0.00     0.091 H 
ATOM     12  H6  <0> d           1.389   3.907   0.009  0.00  0.00     0.118 H 
ATOM     13  H7  <0> d          -2.861   0.492   0.031  0.00  0.00     0.118 H 
ENDROOT
BRANCH   1  14
ATOM     14  O1  <0> d          -3.909   4.760   0.064  0.00  0.00    -0.339 OA
BRANCH  14  15
ATOM     15  C1  <0> d          -5.278   4.349   0.074  0.00  0.00     0.012 C 
ATOM     16  H2  <0> d          -5.921   5.229   0.085  0.00  0.00     0.067 H 
ATOM     17  H3  <0> d          -5.487   3.758  -0.818  0.00  0.00     0.067 H 
ATOM     18  H4  <0> d          -5.471   3.748   0.962  0.00  0.00     0.067 H 
ENDBRANCH  14  15
ENDBRANCH   1  14
TORSDOF 2
