REMARK  0 active torsions:
REMARK  status: ('A' for Active; 'I' for Inactive)
ROOT
ATOM      1  C1  <0> d          -1.240   1.758   0.018  0.00  0.00    -0.078 A 
ATOM      2  C2  <0> d          -0.013   1.076   0.008  0.00  0.00    -0.067 A 
ATOM      3  C3  <0> d           1.149   1.764   0.001  0.00  0.00    -0.014 A 
ATOM      4  N1  <0> d           1.148   3.128   0.007  0.00  0.00    -0.314 N 
ATOM      5  C4  <0> d           2.156   4.054   0.003  0.00  0.00     0.025 A 
ATOM      6  C5  <0> d           1.576   5.276   0.014  0.00  0.00     0.144 A 
ATOM      7  N2  <0> d           0.250   5.117   0.026  0.00  0.00    -0.217 NA
ATOM      8  C6  <0> d          -0.034   3.822   0.022  0.00  0.00     0.135 A 
ATOM      9  C7  <0> d          -1.255   3.119   0.029  0.00  0.00    -0.038 A 
ATOM     10 Cl1  <0> d           2.415   6.796   0.014  0.00  0.00    -0.061 Cl
ATOM     11  H1  <0> d          -2.168   1.206   0.019  0.00  0.00     0.083 H 
ATOM     12  H2  <0> d           0.002  -0.004   0.002  0.00  0.00     0.085 H 
ATOM     13  H3  <0> d           2.087   1.229  -0.011  0.00  0.00     0.112 H 
ATOM     14  H4  <0> d           3.216   3.848  -0.008  0.00  0.00     0.117 H 
ATOM     15  H5  <0> d          -2.193   3.654   0.041  0.00  0.00     0.089 H 
ENDROOT
TORSDOF 0
