REMARK  4 active torsions:
REMARK  status: ('A' for Active; 'I' for Inactive)
REMARK    1  A    between atoms: C1_1  and  C2_2 
REMARK    2  A    between atoms: C2_2  and  N1_3 
REMARK    3  A    between atoms: C3_4  and  C6_9 
REMARK    4  A    between atoms: C5_6  and  N3_8 
ROOT
ATOM      1  N1  <0> d          -1.143   3.373  -1.335  0.00  0.00    -0.272 N 
ATOM      2  C3  <0> d          -0.442   2.223  -1.257  0.00  0.00     0.038 A 
ATOM      3  C4  <0> d          -0.182   1.810  -2.518  0.00  0.00    -0.014 A 
ATOM      4  C5  <0> d          -0.752   2.739  -3.402  0.00  0.00     0.143 A 
ATOM      5  N2  <0> d          -1.327   3.679  -2.689  0.00  0.00    -0.155 NA
ATOM      6  H6  <0> d           0.366   0.921  -2.796  0.00  0.00     0.092 H 
ENDROOT
BRANCH   2   7
ATOM      7  C6  <0> d          -0.019   1.526   0.010  0.00  0.00    -0.012 A 
ATOM      8  C8  <0> d           0.002  -0.004   0.002  0.00  0.00    -0.056 A 
ATOM      9  C7  <0> d           1.317   0.779  -0.006  0.00  0.00    -0.056 A 
ATOM     10  H12 <0> d          -0.273  -0.516   0.924  0.00  0.00     0.034 H 
ATOM     11  H13 <0> d          -0.290  -0.506  -0.920  0.00  0.00     0.034 H 
ATOM     12  H10 <0> d           1.889   0.792  -0.934  0.00  0.00     0.034 H 
ATOM     13  H11 <0> d           1.906   0.782   0.910  0.00  0.00     0.034 H 
ATOM     14  H9  <0> d          -0.307   2.020   0.938  0.00  0.00     0.049 H 
ENDBRANCH   2   7
BRANCH   1  15
ATOM     15  C2  <0> d          -1.627   4.164  -0.201  0.00  0.00     0.014 C 
ATOM     16  H4  <0> d          -2.544   4.682  -0.483  0.00  0.00     0.066 H 
ATOM     17  H5  <0> d          -1.829   3.504   0.643  0.00  0.00     0.066 H 
BRANCH  15  18
ATOM     18  C1  <0> d          -0.564   5.191   0.197  0.00  0.00    -0.059 C 
ATOM     19  H1  <0> d           0.352   4.673   0.480  0.00  0.00     0.029 H 
ATOM     20  H2  <0> d          -0.363   5.851  -0.647  0.00  0.00     0.029 H 
ATOM     21  H3  <0> d          -0.925   5.779   1.040  0.00  0.00     0.029 H 
ENDBRANCH  15  18
ENDBRANCH   1  15
BRANCH   4  22
ATOM     22  N3  <0> d          -0.712   2.677  -4.800  0.00  0.00    -0.383 N 
ATOM     23  H7  <0> d          -1.134   3.371  -5.329  0.00  0.00     0.157 HD
ATOM     24  H8  <0> d          -0.261   1.939  -5.240  0.00  0.00     0.157 HD
ENDBRANCH   4  22
TORSDOF 4
