REMARK  1 active torsions:
REMARK  status: ('A' for Active; 'I' for Inactive)
REMARK    1  A    between atoms: C4_5  and  O1_8 
ROOT
ATOM      1  C1  <0> d           1.104   3.463   0.010  0.00  0.00    -0.042 A 
ATOM      2  C2  <0> d          -0.135   4.075   0.024  0.00  0.00     0.004 A 
ATOM      3  N1  <0> d          -1.243   3.361   0.031  0.00  0.00    -0.270 NA
ATOM      4  C3  <0> d          -1.220   2.042   0.019  0.00  0.00     0.035 A 
ATOM      5  C4  <0> d          -0.016   1.355   0.009  0.00  0.00     0.104 A 
ATOM      6  C5  <0> d           1.174   2.078   0.002  0.00  0.00     0.070 A 
ATOM      7 Cl1  <0> d           2.708   1.265  -0.017  0.00  0.00    -0.081 Cl
ATOM      8  H1  <0> d           2.006   4.056   0.004  0.00  0.00     0.088 H 
ATOM      9  H2  <0> d          -0.196   5.153   0.030  0.00  0.00     0.114 H 
ATOM     10  H3  <0> d          -2.150   1.491   0.021  0.00  0.00     0.119 H 
ENDROOT
BRANCH   5  11
ATOM     11  O1  <0> d           0.002  -0.004   0.002  0.00  0.00    -0.357 OA
ATOM     12  H4  <0> d           0.016  -0.402   0.883  0.00  0.00     0.217 HD
ENDBRANCH   5  11
TORSDOF 1
