REMARK  5 active torsions:
REMARK  status: ('A' for Active; 'I' for Inactive)
REMARK    1  A    between atoms: C1_1  and  C2_2 
REMARK    2  A    between atoms: C2_2  and  C3_4 
REMARK    3  A    between atoms: C2_2  and  C4_8 
REMARK    4  A    between atoms: C3_4  and  S1_5 
REMARK    5  A    between atoms: S1_5  and  O2_7 
ROOT
ATOM      1  C2  <0> d          -0.729   1.579   1.267  0.00  0.00     0.039 C 
ATOM      2  H1  <0> d          -1.783   1.266   1.244  0.00  0.00     0.057 H 
ENDROOT
BRANCH   1   3
ATOM      3  C1  <0> d          -0.641   3.105   1.339  0.00  0.00    -0.063 C 
ATOM      4  H2  <0> d          -1.156   3.460   2.244  0.00  0.00     0.028 H 
ATOM      5  H3  <0> d          -1.119   3.542   0.450  0.00  0.00     0.028 H 
ATOM      6  H4  <0> d           0.415   3.410   1.374  0.00  0.00     0.028 H 
ENDBRANCH   1   3
BRANCH   1   7
ATOM      7  C3  <0> d          -0.013   1.086   0.008  0.00  0.00     0.040 C 
ATOM      8  H5  <0> d           1.019   1.467   0.000  0.00  0.00     0.057 H 
ATOM      9  H6  <0> d           0.002  -0.014   0.002  0.00  0.00     0.057 H 
BRANCH   7  10
ATOM     10  S1  <0> d          -0.890   1.687  -1.462  0.00  0.00     0.151 S 
ATOM     11  O1  <0> d          -2.144   1.027  -1.567  0.00  0.00    -0.229 OA
BRANCH  10  12
ATOM     12  O2  <0> d          -0.082   1.131  -2.626  0.00  0.00    -0.306 OA
ATOM     13  H7  <0> d          -0.391   1.342  -3.660  0.00  0.00     0.230 HD
ENDBRANCH  10  12
ENDBRANCH   7  10
ENDBRANCH   1   7
BRANCH   1  14
ATOM     14  C4  <0> d          -0.074   0.981   2.485  0.00  0.00     0.177 C 
ATOM     15  O3  <0> d           0.869   0.235   2.359  0.00  0.00    -0.648 OA
ATOM     16  O4  <0> d          -0.538   1.275   3.709  0.00  0.00    -0.648 OA
ENDBRANCH   1  14
TORSDOF 5
