REMARK  2 active torsions:
REMARK  status: ('A' for Active; 'I' for Inactive)
REMARK    1  A    between atoms: C3_3  and  C7_8 
REMARK    2  A    between atoms: C5_5  and  O1_7 
ROOT
ATOM      1  C1  <0> d           1.174   1.783   0.000  0.00  0.00    -0.080 A 
ATOM      2  C2  <0> d           1.156   3.166   0.008  0.00  0.00    -0.076 A 
ATOM      3  C3  <0> d          -0.049   3.844   0.023  0.00  0.00    -0.051 A 
ATOM      4  C4  <0> d          -1.239   3.141   0.031  0.00  0.00    -0.045 A 
ATOM      5  C5  <0> d          -1.223   1.754   0.017  0.00  0.00     0.066 A 
ATOM      6  C6  <0> d          -0.013   1.076   0.008  0.00  0.00    -0.051 A 
ATOM      7  H1  <0> d           2.116   1.256  -0.011  0.00  0.00     0.083 H 
ATOM      8  H2  <0> d           2.084   3.717   0.002  0.00  0.00     0.084 H 
ATOM      9  H3  <0> d          -2.179   3.671   0.044  0.00  0.00     0.088 H 
ATOM     10  H4  <0> d           0.002  -0.004   0.002  0.00  0.00     0.087 H 
ENDROOT
BRANCH   3  11
ATOM     11  C7  <0> d          -0.065   5.351   0.032  0.00  0.00    -0.028 A 
ATOM     12  C9  <0> d           0.619   6.058   1.203  0.00  0.00    -0.057 A 
ATOM     13  C8  <0> d           1.267   6.072  -0.184  0.00  0.00    -0.057 A 
ATOM     14  H9  <0> d           0.173   6.986   1.560  0.00  0.00     0.034 H 
ATOM     15  H10 <0> d           1.080   5.433   1.968  0.00  0.00     0.034 H 
ATOM     16  H7  <0> d           2.154   5.457  -0.331  0.00  0.00     0.034 H 
ATOM     17  H8  <0> d           1.247   7.011  -0.739  0.00  0.00     0.034 H 
ATOM     18  H6  <0> d          -0.961   5.814  -0.382  0.00  0.00     0.047 H 
ENDBRANCH   3  11
BRANCH   5  19
ATOM     19  O1  <0> d          -2.392   1.060   0.019  0.00  0.00    -0.361 OA
ATOM     20  H5  <0> d          -2.726   0.854   0.903  0.00  0.00     0.217 HD
ENDBRANCH   5  19
TORSDOF 2
