REMARK  4 active torsions:
REMARK  status: ('A' for Active; 'I' for Inactive)
REMARK    1  A    between atoms: C1_1  and  C2_2 
REMARK    2  A    between atoms: C2_2  and  N1_3 
REMARK       I    between atoms: N1_3  and  C3_4 
REMARK       I    between atoms: C3_4  and  N2_6 
REMARK    3  A    between atoms: N2_6  and  C4_7 
REMARK    4  A    between atoms: C4_7  and  C5_8 
ROOT
ATOM      1  N1  <0> d           1.142   2.033   0.002  0.00  0.00    -0.343 N 
ATOM      2  C3  <0> d          -0.016   1.344   0.009  0.00  0.00     0.316 C 
ATOM      3  O1  <0> d          -1.077   1.937   0.018  0.00  0.00    -0.247 OA
ATOM      4  N2  <0> d           0.002  -0.004   0.002  0.00  0.00    -0.340 N 
ATOM      5  H6  <0> d           1.988   1.560  -0.009  0.00  0.00     0.164 HD
ATOM      6  H7  <0> d           0.849  -0.478  -0.009  0.00  0.00     0.164 HD
ENDROOT
BRANCH   1   7
ATOM      7  C2  <0> d           1.122   3.498   0.010  0.00  0.00    -0.006 C 
ATOM      8  H4  <0> d           0.595   3.859  -0.873  0.00  0.00     0.063 H 
ATOM      9  H5  <0> d           0.612   3.850   0.907  0.00  0.00     0.063 H 
BRANCH   7  10
ATOM     10  C1  <0> d           2.557   4.028  -0.001  0.00  0.00    -0.061 C 
ATOM     11  H1  <0> d           3.084   3.667   0.882  0.00  0.00     0.029 H 
ATOM     12  H2  <0> d           3.067   3.676  -0.897  0.00  0.00     0.029 H 
ATOM     13  H3  <0> d           2.542   5.118   0.005  0.00  0.00     0.029 H 
ENDBRANCH   7  10
ENDBRANCH   1   7
BRANCH   4  14
ATOM     14  C4  <0> d          -1.256  -0.754   0.010  0.00  0.00     0.011 C 
ATOM     15  H8  <0> d          -1.823  -0.503   0.907  0.00  0.00     0.070 H 
ATOM     16  H9  <0> d          -1.840  -0.493  -0.873  0.00  0.00     0.070 H 
BRANCH  14  17
ATOM     17  C5  <0> d          -0.961  -2.232  -0.001  0.00  0.00    -0.095 C 
ATOM     18  C6  <0> d          -1.462  -3.006   0.929  0.00  0.00    -0.123 C 
ATOM     19  H11 <0> d          -2.087  -2.586   1.704  0.00  0.00     0.066 H 
ATOM     20  H12 <0> d          -1.250  -4.065   0.921  0.00  0.00     0.066 H 
ATOM     21  H10 <0> d          -0.337  -2.652  -0.775  0.00  0.00     0.078 H 
ENDBRANCH  14  17
ENDBRANCH   4  14
TORSDOF 4
