REMARK  3 active torsions:
REMARK  status: ('A' for Active; 'I' for Inactive)
REMARK    1  A    between atoms: C2_2  and  C3_3 
REMARK    2  A    between atoms: C3_3  and  C4_5 
REMARK    3  A    between atoms: C3_3  and  O1_11 
ROOT
ATOM      1  C1  <0> d           0.018  -1.178  -0.004  0.00  0.00    -0.151 C 
ATOM      2  C2  <0> d           0.002  -0.004   0.002  0.00  0.00    -0.081 C 
ATOM      3  H2  <0> d           0.032  -2.228  -0.010  0.00  0.00     0.166 H 
ENDROOT
BRANCH   2   4
ATOM      4  C3  <0> d          -0.018   1.468   0.010  0.00  0.00     0.118 C 
ATOM      5  H1  <0> d          -0.528   1.819   0.907  0.00  0.00     0.111 H 
BRANCH   4   6
ATOM      6  C4  <0> d           1.396   1.989  -0.001  0.00  0.00    -0.018 A 
ATOM      7  C9  <0> d           2.020   2.320   1.188  0.00  0.00    -0.073 A 
ATOM      8  C8  <0> d           3.317   2.799   1.178  0.00  0.00    -0.082 A 
ATOM      9  H7  <0> d           1.494   2.205   2.124  0.00  0.00     0.084 H 
ATOM     10  C7  <0> d           3.990   2.946  -0.020  0.00  0.00    -0.083 A 
ATOM     11  H6  <0> d           3.804   3.058   2.107  0.00  0.00     0.083 H 
ATOM     12  C6  <0> d           3.366   2.614  -1.209  0.00  0.00    -0.082 A 
ATOM     13  H5  <0> d           5.003   3.321  -0.028  0.00  0.00     0.083 H 
ATOM     14  C5  <0> d           2.071   2.132  -1.198  0.00  0.00    -0.073 A 
ATOM     15  H4  <0> d           3.892   2.730  -2.145  0.00  0.00     0.083 H 
ATOM     16  H3  <0> d           1.585   1.869  -2.127  0.00  0.00     0.084 H 
ENDBRANCH   4   6
BRANCH   4  17
ATOM     17  O1  <0> d          -0.709   1.941  -1.148  0.00  0.00    -0.379 OA
ATOM     18  H8  <0> d          -0.310   1.666  -1.984  0.00  0.00     0.211 HD
ENDBRANCH   4  17
ENDBRANCH   2   4
TORSDOF 3
