REMARK  2 active torsions:
REMARK  status: ('A' for Active; 'I' for Inactive)
REMARK    1  A    between atoms: C3_3  and  N3_10 
REMARK    2  A    between atoms: C5_6  and  C6_7 
REMARK       I    between atoms: C6_7  and  N2_9 
ROOT
ATOM      1  C1  <0> d          -0.017   1.399   0.010  0.00  0.00    -0.063 A 
ATOM      2  C2  <0> d           1.177   2.068   0.002  0.00  0.00    -0.038 A 
ATOM      3  C3  <0> d           2.367   1.343  -0.013  0.00  0.00     0.120 A 
ATOM      4  N1  <0> d           2.357   0.017  -0.020  0.00  0.00    -0.243 NA
ATOM      5  C4  <0> d           1.232  -0.665  -0.013  0.00  0.00     0.020 A 
ATOM      6  C5  <0> d           0.002  -0.004   0.002  0.00  0.00     0.049 A 
ATOM      7  H1  <0> d          -0.952   1.938   0.026  0.00  0.00     0.085 H 
ATOM      8  H2  <0> d           1.197   3.148   0.007  0.00  0.00     0.089 H 
ATOM      9  H3  <0> d           1.259  -1.745  -0.020  0.00  0.00     0.116 H 
ENDROOT
BRANCH   6  10
ATOM     10  C6  <0> d          -1.259  -0.770   0.010  0.00  0.00     0.250 C 
ATOM     11  O1  <0> d          -2.325  -0.185   0.024  0.00  0.00    -0.268 OA
ATOM     12  N2  <0> d          -1.230  -2.117   0.003  0.00  0.00    -0.366 N 
ATOM     13  H4  <0> d          -0.379  -2.583  -0.008  0.00  0.00     0.159 HD
ATOM     14  H5  <0> d          -2.059  -2.620   0.008  0.00  0.00     0.159 HD
ENDBRANCH   6  10
BRANCH   3  15
ATOM     15  N3  <0> d           3.577   2.017  -0.022  0.00  0.00    -0.384 N 
ATOM     16  H6  <0> d           3.592   2.987  -0.017  0.00  0.00     0.157 HD
ATOM     17  H7  <0> d           4.409   1.519  -0.032  0.00  0.00     0.157 HD
ENDBRANCH   3  15
TORSDOF 2
