REMARK  6 active torsions:
REMARK  status: ('A' for Active; 'I' for Inactive)
REMARK    1  A    between atoms: C1_1  and  C2_2 
REMARK    2  A    between atoms: C2_2  and  C3_3 
REMARK    3  A    between atoms: C2_2  and  C4_4 
REMARK    4  A    between atoms: C2_2  and  C5_6 
REMARK    5  A    between atoms: C4_4  and  O1_5 
REMARK    6  A    between atoms: C5_6  and  O2_7 
ROOT
ATOM      1  C2  <0> d          -0.019   1.526   0.010  0.00  0.00    -0.005 C 
ENDROOT
BRANCH   1   2
ATOM      2  C1  <0> d          -0.759   2.033  -1.229  0.00  0.00    -0.066 C 
ATOM      3  H1  <0> d          -1.781   1.655  -1.221  0.00  0.00     0.028 H 
ATOM      4  H2  <0> d          -0.773   3.123  -1.223  0.00  0.00     0.028 H 
ATOM      5  H3  <0> d          -0.248   1.681  -2.126  0.00  0.00     0.028 H 
ENDBRANCH   1   2
BRANCH   1   6
ATOM      6  C3  <0> d          -0.735   2.019   1.269  0.00  0.00    -0.066 C 
ATOM      7  H4  <0> d          -0.208   1.658   2.152  0.00  0.00     0.028 H 
ATOM      8  H5  <0> d          -0.750   3.109   1.275  0.00  0.00     0.028 H 
ATOM      9  H6  <0> d          -1.757   1.642   1.277  0.00  0.00     0.028 H 
ENDBRANCH   1   6
BRANCH   1  10
ATOM     10  C4  <0> d           0.002  -0.004   0.002  0.00  0.00     0.025 C 
ATOM     11  H7  <0> d           0.512  -0.356  -0.895  0.00  0.00     0.075 H 
ATOM     12  H8  <0> d           0.529  -0.365   0.885  0.00  0.00     0.075 H 
BRANCH  10  13
ATOM     13  O1  <0> d          -1.339  -0.499   0.012  0.00  0.00    -0.400 OA
ATOM     14  H9  <0> d          -1.402  -1.464   0.008  0.00  0.00     0.209 HD
ENDBRANCH  10  13
ENDBRANCH   1  10
BRANCH   1  15
ATOM     15  C5  <0> d           1.417   2.055  -0.000  0.00  0.00     0.025 C 
ATOM     16  H10 <0> d           1.944   1.694   0.883  0.00  0.00     0.075 H 
ATOM     17  H11 <0> d           1.927   1.704  -0.897  0.00  0.00     0.075 H 
BRANCH  15  18
ATOM     18  O2  <0> d           1.397   3.484   0.007  0.00  0.00    -0.400 OA
ATOM     19  H12 <0> d           2.275   3.889   0.001  0.00  0.00     0.209 HD
ENDBRANCH  15  18
ENDBRANCH   1  15
TORSDOF 6
