REMARK  2 active torsions:
REMARK  status: ('A' for Active; 'I' for Inactive)
REMARK    1  A    between atoms: C2_2  and  C3_3 
REMARK    2  A    between atoms: C3_3  and  N1_4 
ROOT
ATOM      1  C1  <0> d          -2.438  -0.922   0.454  0.00  0.00    -0.152 C 
ATOM      2  C2  <0> d          -1.355  -0.515   0.253  0.00  0.00    -0.087 C 
ATOM      3  H1  <0> d          -3.453  -1.303   0.641  0.00  0.00     0.166 H 
ENDROOT
BRANCH   2   4
ATOM      4  C3  <0> d           0.002  -0.004   0.002  0.00  0.00     0.166 C 
ATOM      5  H2  <0> d           0.681  -0.366   0.788  0.00  0.00     0.099 H 
ATOM      6  H3  <0> d           0.352  -0.361  -0.978  0.00  0.00     0.099 H 
BRANCH   4   7
ATOM      7  N1  <0> d          -0.018   1.465   0.010  0.00  0.00     0.099 N 
ATOM      8  C8  <0> d           1.346   2.010   0.000  0.00  0.00     0.114 C 
ATOM      9  C7  <0> d           1.290   3.531   0.155  0.00  0.00    -0.040 C 
ATOM     10  H12 <0> d           1.920   1.577   0.833  0.00  0.00     0.079 H 
ATOM     11  H13 <0> d           1.835   1.756  -0.952  0.00  0.00     0.079 H 
ATOM     12  C6  <0> d           0.473   4.127  -0.995  0.00  0.00    -0.062 C 
ATOM     13  H10 <0> d           2.310   3.942   0.132  0.00  0.00     0.035 H 
ATOM     14  H11 <0> d           0.814   3.786   1.114  0.00  0.00     0.035 H 
ATOM     15  C5  <0> d          -0.927   3.507  -0.991  0.00  0.00    -0.040 C 
ATOM     16  H8  <0> d           0.969   3.908  -1.952  0.00  0.00     0.033 H 
ATOM     17  H9  <0> d           0.393   5.216  -0.865  0.00  0.00     0.033 H 
ATOM     18  C4  <0> d          -0.806   1.987  -1.113  0.00  0.00     0.114 C 
ATOM     19  H6  <0> d          -1.505   3.899  -1.841  0.00  0.00     0.035 H 
ATOM     20  H7  <0> d          -1.439   3.760  -0.051  0.00  0.00     0.035 H 
ATOM     21  H4  <0> d          -0.307   1.734  -2.061  0.00  0.00     0.079 H 
ATOM     22  H5  <0> d          -1.810   1.537  -1.097  0.00  0.00     0.079 H 
ENDBRANCH   4   7
ENDBRANCH   2   4
TORSDOF 2
