REMARK  3 active torsions:
REMARK  status: ('A' for Active; 'I' for Inactive)
REMARK    1  A    between atoms: C1_1  and  C2_2 
REMARK    2  A    between atoms: C4_4  and  C9_9 
REMARK    3  A    between atoms: C6_6  and  C8_8 
ROOT
ATOM      1  C2  <0> d           0.002  -0.004   0.002  0.00  0.00    -0.024 C 
ATOM      2  C3  <0> d          -1.407  -0.514  -0.029  0.00  0.00    -0.094 C 
ATOM      3  C4  <0> d          -1.798  -1.544   0.659  0.00  0.00    -0.083 C 
ATOM      4  C5  <0> d          -0.879  -2.322   1.552  0.00  0.00    -0.025 C 
ATOM      5  C6  <0> d           0.337  -1.521   1.907  0.00  0.00    -0.083 C 
ATOM      6  C7  <0> d           0.729  -0.492   1.219  0.00  0.00    -0.094 C 
ATOM      7  H4  <0> d           0.526  -0.349  -0.889  0.00  0.00     0.051 H 
ATOM      8  H5  <0> d          -2.128  -0.004  -0.650  0.00  0.00     0.078 H 
ATOM      9  H6  <0> d          -1.411  -2.590   2.465  0.00  0.00     0.046 H 
ATOM     10  H7  <0> d          -0.570  -3.233   1.039  0.00  0.00     0.046 H 
ATOM     11  H8  <0> d           1.616   0.035   1.538  0.00  0.00     0.078 H 
ENDROOT
BRANCH   1  12
ATOM     12  C1  <0> d          -0.019   1.526   0.010  0.00  0.00    -0.067 C 
ATOM     13  H1  <0> d           1.004   1.903   0.003  0.00  0.00     0.028 H 
ATOM     14  H2  <0> d          -0.546   1.887  -0.873  0.00  0.00     0.028 H 
ATOM     15  H3  <0> d          -0.529   1.877   0.907  0.00  0.00     0.028 H 
ENDBRANCH   1  12
BRANCH   5  16
ATOM     16  C8  <0> d           1.140  -1.928   3.115  0.00  0.00    -0.054 C 
ATOM     17  H9  <0> d           1.910  -2.640   2.817  0.00  0.00     0.033 H 
ATOM     18  H10 <0> d           1.610  -1.047   3.553  0.00  0.00     0.033 H 
ATOM     19  H11 <0> d           0.482  -2.392   3.850  0.00  0.00     0.033 H 
ENDBRANCH   5  16
BRANCH   3  20
ATOM     20  C9  <0> d          -3.239  -1.974   0.555  0.00  0.00    -0.054 C 
ATOM     21  H12 <0> d          -3.769  -1.310  -0.128  0.00  0.00     0.033 H 
ATOM     22  H13 <0> d          -3.287  -2.996   0.179  0.00  0.00     0.033 H 
ATOM     23  H14 <0> d          -3.704  -1.928   1.540  0.00  0.00     0.033 H 
ENDBRANCH   3  20
TORSDOF 3
