REMARK  6 active torsions:
REMARK  status: ('A' for Active; 'I' for Inactive)
REMARK    1  A    between atoms: C1_1  and  C2_2 
REMARK    2  A    between atoms: C2_2  and  N1_3 
REMARK    3  A    between atoms: C4_5  and  C7_9 
REMARK    4  A    between atoms: C5_6  and  C6_8 
REMARK    5  A    between atoms: C7_9  and  C8_11 
REMARK    6  A    between atoms: C7_9  and  O1_12 
ROOT
ATOM      1  N1  <0> d           2.302  -1.237   2.549  0.00  0.00    -0.280 N 
ATOM      2  C3  <0> d           2.040  -0.841   1.286  0.00  0.00     0.009 A 
ATOM      3  C4  <0> d           0.731  -0.503   1.223  0.00  0.00     0.013 A 
ATOM      4  C5  <0> d           0.175  -0.694   2.492  0.00  0.00     0.061 A 
ATOM      5  N2  <0> d           1.115  -1.139   3.287  0.00  0.00    -0.177 NA
ATOM      6  H7  <0> d           2.748  -0.801   0.472  0.00  0.00     0.115 H 
ENDROOT
BRANCH   3   7
ATOM      7  C7  <0> d           0.002  -0.004   0.002  0.00  0.00     0.060 C 
ATOM      8  H1  <0> d          -1.014  -0.424  -0.037  0.00  0.00     0.090 H 
BRANCH   7   9
ATOM      9  C8  <0> d          -0.019   1.526   0.010  0.00  0.00    -0.049 C 
ATOM     10  H11 <0> d          -0.551   1.890  -0.881  0.00  0.00     0.031 H 
ATOM     11  H12 <0> d           1.013   1.907   0.003  0.00  0.00     0.031 H 
ATOM     12  H13 <0> d          -0.534   1.881   0.915  0.00  0.00     0.031 H 
ENDBRANCH   7   9
BRANCH   7  13
ATOM     13  O1  <0> d           0.671  -0.465  -1.174  0.00  0.00    -0.391 OA
ATOM     14  H14 <0> d           0.282  -0.199  -2.168  0.00  0.00     0.210 HD
ENDBRANCH   7  13
ENDBRANCH   3   7
BRANCH   4  15
ATOM     15  C6  <0> d          -1.258  -0.435   2.877  0.00  0.00    -0.033 C 
ATOM     16  H8  <0> d          -1.401  -0.676   3.941  0.00  0.00     0.035 H 
ATOM     17  H9  <0> d          -1.921  -1.066   2.267  0.00  0.00     0.035 H 
ATOM     18  H10 <0> d          -1.499   0.624   2.705  0.00  0.00     0.035 H 
ENDBRANCH   4  15
BRANCH   1  19
ATOM     19  C2  <0> d           3.599  -1.689   3.059  0.00  0.00     0.013 C 
ATOM     20  H5  <0> d           4.361  -1.574   2.275  0.00  0.00     0.066 H 
ATOM     21  H6  <0> d           3.529  -2.747   3.351  0.00  0.00     0.066 H 
BRANCH  19  22
ATOM     22  C1  <0> d           3.989  -0.849   4.277  0.00  0.00    -0.059 C 
ATOM     23  H2  <0> d           4.963  -1.188   4.660  0.00  0.00     0.029 H 
ATOM     24  H3  <0> d           3.226  -0.963   5.061  0.00  0.00     0.029 H 
ATOM     25  H4  <0> d           4.059   0.210   3.985  0.00  0.00     0.029 H 
ENDBRANCH  19  22
ENDBRANCH   1  19
TORSDOF 6
