REMARK  4 active torsions:
REMARK  status: ('A' for Active; 'I' for Inactive)
REMARK    1  A    between atoms: C1_1  and  C2_2 
REMARK    2  A    between atoms: C2_2  and  C3_3 
REMARK    3  A    between atoms: C3_3  and  C4_4 
REMARK    4  A    between atoms: C6_7  and  C7_9 
ROOT
ATOM      1  C4  <0> d           0.739  -2.027  -1.265  0.00  0.00    -0.040 A 
ATOM      2  H1  <0> d          -0.096  -2.512  -0.759  0.00  0.00     0.041 H 
ATOM      3  C5  <0> d           2.103  -2.716  -1.193  0.00  0.00    -0.048 A 
ATOM      4  C6  <0> d           1.312  -2.719  -2.504  0.00  0.00     0.034 A 
ATOM      5  H2  <0> d           0.854  -3.659  -2.812  0.00  0.00     0.057 H 
ATOM      6  H10 <0> d           2.986  -2.079  -1.140  0.00  0.00     0.035 H 
ATOM      7  H11 <0> d           2.166  -3.653  -0.640  0.00  0.00     0.035 H 
ENDROOT
BRANCH   1   8
ATOM      8  C3  <0> d           0.718  -0.497  -1.257  0.00  0.00    -0.061 C 
ATOM      9  H8  <0> d           0.191  -0.136  -2.140  0.00  0.00     0.033 H 
ATOM     10  H9  <0> d           1.741  -0.120  -1.264  0.00  0.00     0.033 H 
BRANCH   8  11
ATOM     11  C2  <0> d           0.002  -0.004   0.002  0.00  0.00    -0.068 C 
ATOM     12  H6  <0> d           0.529  -0.365   0.885  0.00  0.00     0.032 H 
ATOM     13  H7  <0> d          -1.020  -0.381   0.010  0.00  0.00     0.032 H 
BRANCH  11  14
ATOM     14  C1  <0> d          -0.019   1.526   0.010  0.00  0.00    -0.077 C 
ATOM     15  H3  <0> d           1.004   1.903   0.003  0.00  0.00     0.027 H 
ATOM     16  H4  <0> d          -0.546   1.887  -0.873  0.00  0.00     0.027 H 
ATOM     17  H5  <0> d          -0.529   1.877   0.907  0.00  0.00     0.027 H 
ENDBRANCH  11  14
ENDBRANCH   8  11
ENDBRANCH   1   8
BRANCH   4  18
ATOM     18  C7  <0> d           1.813  -1.842  -3.622  0.00  0.00     0.177 C 
ATOM     19  O1  <0> d           2.724  -2.225  -4.336  0.00  0.00    -0.648 OA
ATOM     20  O2  <0> d           1.308  -0.749  -3.812  0.00  0.00    -0.648 OA
ENDBRANCH   4  18
TORSDOF 4
