REMARK  3 active torsions:
REMARK  status: ('A' for Active; 'I' for Inactive)
REMARK    1  A    between atoms: C1_1  and  N1_2 
REMARK    2  A    between atoms: C3_5  and  N4_12 
REMARK    3  A    between atoms: C4_6  and  N3_11 
ROOT
ATOM      1  N1  <0> d          -2.463   3.701   0.034  0.00  0.00    -0.269 N 
ATOM      2  C2  <0> d          -1.276   3.062   0.031  0.00  0.00     0.281 A 
ATOM      3  O1  <0> d          -0.236   3.699   0.035  0.00  0.00    -0.265 OA
ATOM      4  C3  <0> d          -1.245   1.656   0.017  0.00  0.00     0.139 A 
ATOM      5  C4  <0> d          -2.427   0.966   0.019  0.00  0.00     0.135 A 
ATOM      6  N2  <0> d          -3.615   1.662   0.028  0.00  0.00    -0.293 N 
ATOM      7  H1  <0> d          -4.482   1.164   0.029  0.00  0.00     0.172 HD
ATOM      8  C5  <0> d          -3.615   3.007   0.036  0.00  0.00     0.330 A 
ATOM      9  O2  <0> d          -4.674   3.605   0.044  0.00  0.00    -0.246 OA
ENDROOT
BRANCH   1  10
ATOM     10  C1  <0> d          -2.498   5.166   0.042  0.00  0.00    -0.007 C 
ATOM     11  H2  <0> d          -3.534   5.505   0.049  0.00  0.00     0.057 H 
ATOM     12  H3  <0> d          -1.988   5.537   0.931  0.00  0.00     0.057 H 
ATOM     13  H4  <0> d          -1.997   5.546  -0.849  0.00  0.00     0.057 H 
ENDBRANCH   1  10
BRANCH   4  14
ATOM     14  N4  <0> d          -0.011   0.966   0.007  0.00  0.00    -0.392 N 
ATOM     15  H7  <0> d           0.002  -0.004   0.002  0.00  0.00     0.156 HD
ATOM     16  H8  <0> d           0.822   1.462   0.002  0.00  0.00     0.156 HD
ENDBRANCH   4  14
BRANCH   5  17
ATOM     17  N3  <0> d          -2.428  -0.410   0.011  0.00  0.00    -0.383 N 
ATOM     18  H5  <0> d          -1.588  -0.895   0.004  0.00  0.00     0.157 HD
ATOM     19  H6  <0> d          -3.268  -0.894   0.012  0.00  0.00     0.157 HD
ENDBRANCH   5  17
TORSDOF 3
