REMARK  2 active torsions:
REMARK  status: ('A' for Active; 'I' for Inactive)
REMARK    1  A    between atoms: C1_1  and  C2_2 
REMARK    2  A    between atoms: C6_6  and  C7_8 
ROOT
ATOM      1  C2  <0> d           1.096   2.029   0.003  0.00  0.00     0.031 A 
ATOM      2  C3  <0> d           2.332   1.408  -0.013  0.00  0.00    -0.059 A 
ATOM      3  C4  <0> d           2.397   0.021  -0.021  0.00  0.00    -0.079 A 
ATOM      4  C5  <0> d           1.213  -0.696  -0.014  0.00  0.00    -0.055 A 
ATOM      5  C6  <0> d           0.002  -0.004   0.002  0.00  0.00     0.056 A 
ATOM      6  N1  <0> d          -0.016   1.324   0.009  0.00  0.00    -0.254 NA
ATOM      7  H4  <0> d           3.238   1.996  -0.018  0.00  0.00     0.086 H 
ATOM      8  H5  <0> d           3.350  -0.486  -0.034  0.00  0.00     0.083 H 
ATOM      9  H6  <0> d           1.227  -1.776  -0.020  0.00  0.00     0.087 H 
ENDROOT
BRANCH   5  10
ATOM     10  C7  <0> d          -1.271  -0.755   0.010  0.00  0.00    -0.064 C 
ATOM     11  C8  <0> d          -2.425  -0.102   0.025  0.00  0.00    -0.119 C 
ATOM     12  H8  <0> d          -3.355  -0.651   0.031  0.00  0.00     0.066 H 
ATOM     13  H9  <0> d          -2.435   0.978   0.031  0.00  0.00     0.066 H 
ATOM     14  H7  <0> d          -1.261  -1.835   0.004  0.00  0.00     0.085 H 
ENDBRANCH   5  10
BRANCH   1  15
ATOM     15  C1  <0> d           1.022   3.534   0.011  0.00  0.00    -0.035 C 
ATOM     16  H1  <0> d           1.014   3.892   1.041  0.00  0.00     0.035 H 
ATOM     17  H2  <0> d           1.888   3.944  -0.509  0.00  0.00     0.035 H 
ATOM     18  H3  <0> d           0.110   3.856  -0.492  0.00  0.00     0.035 H 
ENDBRANCH   1  15
TORSDOF 2
