REMARK  0 active torsions:
REMARK  status: ('A' for Active; 'I' for Inactive)
ROOT
ATOM      1  C1  <0> d          -0.013   1.086   0.008  0.00  0.00    -0.013 A 
ATOM      2  C2  <0> d          -1.136   1.773   0.788  0.00  0.00     0.067 A 
ATOM      3  H1  <0> d          -1.859   1.135   1.295  0.00  0.00     0.067 H 
ATOM      4  C3  <0> d          -1.150   1.781  -0.743  0.00  0.00     0.130 A 
ATOM      5 Cl1  <0> d          -0.772   3.338  -1.571  0.00  0.00    -0.100 Cl
ATOM      6 Cl2  <0> d          -2.363   0.735  -1.570  0.00  0.00    -0.100 Cl
ATOM      7  C4  <0> d          -0.814   3.036   1.471  0.00  0.00     0.067 C 
ATOM      8  N1  <0> d          -0.566   4.011   1.998  0.00  0.00    -0.197 NA
ATOM      9  H2  <0> d           0.002  -0.004   0.002  0.00  0.00     0.039 H 
ATOM     10  H3  <0> d           0.964   1.569   0.001  0.00  0.00     0.039 H 
ENDROOT
TORSDOF 0
