REMARK  2 active torsions:
REMARK  status: ('A' for Active; 'I' for Inactive)
REMARK    1  A    between atoms: C2_2  and  C5_9 
REMARK    2  A    between atoms: C5_9  and  O3_10 
ROOT
ATOM      1  C1  <0> d          -0.017   1.378   0.010  0.00  0.00    -0.007 A 
ATOM      2  C2  <0> d           0.002  -0.004   0.002  0.00  0.00     0.035 A 
ATOM      3  C3  <0> d           1.236  -0.652  -0.013  0.00  0.00     0.191 A 
ATOM      4  N1  <0> d           2.346   0.076  -0.019  0.00  0.00    -0.298 N 
ATOM      5  C4  <0> d           2.287   1.398  -0.012  0.00  0.00     0.257 A 
ATOM      6  N2  <0> d           1.130   2.041   0.002  0.00  0.00    -0.329 N 
ATOM      7  O1  <0> d           3.438   2.111  -0.018  0.00  0.00    -0.151 OA
ATOM      8  O2  <0> d           1.302  -2.005  -0.020  0.00  0.00    -0.171 OA
ATOM      9  H1  <0> d          -0.956   1.911   0.021  0.00  0.00     0.112 H 
ATOM     10  H2  <0> d           1.122   3.041   0.007  0.00  0.00     0.168 HD
ATOM     11  H3  <0> d           3.237  -0.379  -0.030  0.00  0.00     0.171 HD
ENDROOT
BRANCH   2  12
ATOM     12  C5  <0> d          -1.282  -0.792   0.010  0.00  0.00     0.046 C 
ATOM     13  H4  <0> d          -1.331  -1.416  -0.883  0.00  0.00     0.081 H 
ATOM     14  H5  <0> d          -1.315  -1.425   0.896  0.00  0.00     0.081 H 
BRANCH  12  15
ATOM     15  O3  <0> d          -2.393   0.106   0.025  0.00  0.00    -0.396 OA
ATOM     16  H6  <0> d          -3.254  -0.333   0.030  0.00  0.00     0.209 HD
ENDBRANCH  12  15
ENDBRANCH   2  12
TORSDOF 2
