REMARK  3 active torsions:
REMARK  status: ('A' for Active; 'I' for Inactive)
REMARK    1  A    between atoms: C1_1  and  C2_2 
REMARK    2  A    between atoms: C6_6  and  O2_10 
REMARK    3  A    between atoms: O2_10  and  C9_11 
ROOT
ATOM      1  C2  <0> d           0.002  -0.004   0.002  0.00  0.00    -0.058 A 
ATOM      2  C3  <0> d           0.004  -0.599  -1.257  0.00  0.00    -0.077 A 
ATOM      3  C4  <0> d           0.020  -1.939  -1.584  0.00  0.00    -0.080 A 
ATOM      4  C5  <0> d           0.040  -3.046  -0.739  0.00  0.00    -0.047 A 
ATOM      5  C6  <0> d           0.048  -3.075   0.642  0.00  0.00     0.118 A 
ATOM      6  C7  <0> d           0.037  -1.979   1.543  0.00  0.00     0.205 A 
ATOM      7  O1  <0> d           0.047  -2.265   2.733  0.00  0.00    -0.285 OA
ATOM      8  C8  <0> d           0.022  -0.606   1.240  0.00  0.00    -0.026 A 
ATOM      9  H4  <0> d          -0.010   0.083  -2.094  0.00  0.00     0.084 H 
ATOM     10  H5  <0> d           0.018  -2.161  -2.641  0.00  0.00     0.083 H 
ATOM     11  H6  <0> d           0.050  -4.009  -1.228  0.00  0.00     0.087 H 
ATOM     12  H7  <0> d           0.021   0.062   2.088  0.00  0.00     0.090 H 
ENDROOT
BRANCH   5  13
ATOM     13  O2  <0> d           0.067  -4.306   1.208  0.00  0.00    -0.352 OA
BRANCH  13  14
ATOM     14  C9  <0> d           0.077  -5.427   0.322  0.00  0.00     0.011 C 
ATOM     15  H8  <0> d           0.093  -6.349   0.903  0.00  0.00     0.067 H 
ATOM     16  H9  <0> d          -0.817  -5.405  -0.301  0.00  0.00     0.067 H 
ATOM     17  H10 <0> d           0.963  -5.381  -0.311  0.00  0.00     0.067 H 
ENDBRANCH  13  14
ENDBRANCH   5  13
BRANCH   1  18
ATOM     18  C1  <0> d          -0.018   1.503   0.010  0.00  0.00    -0.051 C 
ATOM     19  H1  <0> d           1.004   1.880   0.003  0.00  0.00     0.033 H 
ATOM     20  H2  <0> d          -0.545   1.864  -0.873  0.00  0.00     0.033 H 
ATOM     21  H3  <0> d          -0.529   1.854   0.907  0.00  0.00     0.033 H 
ENDBRANCH   1  18
TORSDOF 3
