REMARK  1 active torsions:
REMARK  status: ('A' for Active; 'I' for Inactive)
REMARK    1  A    between atoms: C3_4  and  C6_8 
REMARK       I    between atoms: C6_8  and  N2_10 
ROOT
ATOM      1  C1  <0> d          -0.017   1.384   0.010  0.00  0.00    -0.029 A 
ATOM      2  C2  <0> d           1.181   2.079   0.002  0.00  0.00     0.006 A 
ATOM      3  N1  <0> d           2.332   1.442  -0.013  0.00  0.00    -0.255 NA
ATOM      4  C3  <0> d           2.396   0.116  -0.021  0.00  0.00     0.126 A 
ATOM      5  C4  <0> d           1.233  -0.649  -0.014  0.00  0.00    -0.013 A 
ATOM      6  C5  <0> d           0.002  -0.004   0.002  0.00  0.00     0.120 A 
ATOM      7  F1  <0> d          -1.149  -0.711   0.010  0.00  0.00    -0.206 F 
ATOM      8  H1  <0> d          -0.956   1.917   0.026  0.00  0.00     0.090 H 
ATOM      9  H2  <0> d           1.171   3.159   0.008  0.00  0.00     0.114 H 
ATOM     10  H3  <0> d           1.286  -1.728  -0.021  0.00  0.00     0.092 H 
ENDROOT
BRANCH   4  11
ATOM     11  C6  <0> d           3.716  -0.556  -0.037  0.00  0.00     0.268 C 
ATOM     12  O1  <0> d           3.780  -1.770  -0.044  0.00  0.00    -0.266 OA
ATOM     13  N2  <0> d           4.846   0.178  -0.045  0.00  0.00    -0.365 N 
ATOM     14  H4  <0> d           4.795   1.147  -0.039  0.00  0.00     0.159 HD
ATOM     15  H5  <0> d           5.710  -0.262  -0.056  0.00  0.00     0.159 HD
ENDBRANCH   4  11
TORSDOF 1
