REMARK  2 active torsions:
REMARK  status: ('A' for Active; 'I' for Inactive)
REMARK    1  A    between atoms: C1_1  and  N1_2 
REMARK       I    between atoms: N1_2  and  C2_3 
REMARK       I    between atoms: C2_3  and  N2_5 
REMARK    2  A    between atoms: N2_5  and  C3_6 
ROOT
ATOM      1  C3  <0> d          -0.789   1.611   1.242  0.00  0.00     0.014 C 
ATOM      2  C4  <0> d          -0.013   1.086   0.008  0.00  0.00    -0.046 C 
ATOM      3  C5  <0> d          -0.809   1.622  -1.200  0.00  0.00    -0.063 C 
ATOM      4  C6  <0> d          -2.243   1.875  -0.703  0.00  0.00    -0.063 C 
ATOM      5  C7  <0> d          -2.268   1.485   0.789  0.00  0.00    -0.046 C 
ATOM      6  H6  <0> d          -0.534   2.651   1.444  0.00  0.00     0.072 H 
ATOM      7  H7  <0> d           0.002  -0.004   0.002  0.00  0.00     0.035 H 
ATOM      8  H8  <0> d           1.003   1.480   0.000  0.00  0.00     0.035 H 
ATOM      9  H9  <0> d          -0.367   2.552  -1.555  0.00  0.00     0.033 H 
ATOM     10  H10 <0> d          -0.816   0.882  -2.000  0.00  0.00     0.033 H 
ATOM     11  H11 <0> d          -2.497   2.929  -0.818  0.00  0.00     0.033 H 
ATOM     12  H12 <0> d          -2.946   1.258  -1.263  0.00  0.00     0.033 H 
ATOM     13  H13 <0> d          -2.899   2.172   1.353  0.00  0.00     0.035 H 
ATOM     14  H14 <0> d          -2.620   0.460   0.909  0.00  0.00     0.035 H 
ENDROOT
BRANCH   1  15
ATOM     15  N2  <0> d          -0.528   0.772   2.414  0.00  0.00    -0.339 N 
ATOM     16  C2  <0> d          -0.663   1.286   3.653  0.00  0.00     0.316 C 
ATOM     17  N1  <0> d          -0.423   0.515   4.732  0.00  0.00    -0.347 N 
ATOM     18  O1  <0> d          -1.001   2.445   3.797  0.00  0.00    -0.247 OA
ATOM     19  H4  <0> d          -0.153  -0.410   4.617  0.00  0.00     0.163 HD
ATOM     20  H5  <0> d          -0.258  -0.152   2.299  0.00  0.00     0.164 HD
BRANCH  17  21
ATOM     21  C1  <0> d          -0.569   1.073   6.079  0.00  0.00    -0.017 C 
ATOM     22  H1  <0> d          -1.595   1.413   6.221  0.00  0.00     0.056 H 
ATOM     23  H2  <0> d          -0.335   0.306   6.817  0.00  0.00     0.056 H 
ATOM     24  H3  <0> d           0.113   1.914   6.199  0.00  0.00     0.056 H 
ENDBRANCH  17  21
ENDBRANCH   1  15
TORSDOF 2
