REMARK  2 active torsions:
REMARK  status: ('A' for Active; 'I' for Inactive)
REMARK    1  A    between atoms: C1_1  and  N1_2 
REMARK    2  A    between atoms: C4_5  and  N4_9 
ROOT
ATOM      1  N1  <0> d          -0.698   1.558   1.213  0.00  0.00    -0.236 N 
ATOM      2  C2  <0> d          -0.126   1.832   2.424  0.00  0.00     0.183 A 
ATOM      3  C3  <0> d          -1.173   2.252   3.263  0.00  0.00     0.173 A 
ATOM      4  C4  <0> d          -0.857   2.601   4.592  0.00  0.00     0.157 A 
ATOM      5  N2  <0> d           0.409   2.518   4.984  0.00  0.00    -0.222 NA
ATOM      6  C5  <0> d           1.358   2.117   4.157  0.00  0.00     0.091 A 
ATOM      7  N3  <0> d           1.112   1.780   2.909  0.00  0.00    -0.220 NA
ATOM      8  N5  <0> d          -2.312   2.218   2.550  0.00  0.00    -0.124 NA
ATOM      9  N6  <0> d          -2.070   1.824   1.348  0.00  0.00    -0.064 NA
ATOM     10  H4  <0> d           2.374   2.064   4.518  0.00  0.00     0.146 H 
ENDROOT
BRANCH   1  11
ATOM     11  C1  <0> d          -0.013   1.086   0.008  0.00  0.00     0.006 C 
ATOM     12  H1  <0> d           0.002  -0.004   0.002  0.00  0.00     0.059 H 
ATOM     13  H2  <0> d           1.010   1.463   0.000  0.00  0.00     0.059 H 
ATOM     14  H3  <0> d          -0.540   1.447  -0.875  0.00  0.00     0.059 H 
ENDBRANCH   1  11
BRANCH   4  15
ATOM     15  N4  <0> d          -1.841   3.022   5.466  0.00  0.00    -0.382 N 
ATOM     16  H5  <0> d          -1.610   3.260   6.377  0.00  0.00     0.157 HD
ATOM     17  H6  <0> d          -2.762   3.079   5.168  0.00  0.00     0.157 HD
ENDBRANCH   4  15
TORSDOF 2
