REMARK  1 active torsions:
REMARK  status: ('A' for Active; 'I' for Inactive)
REMARK    1  A    between atoms: C1_1  and  C2_2 
ROOT
ATOM      1  C2  <0> d           1.112   3.078   0.008  0.00  0.00     0.046 A 
ATOM      2  C3  <0> d          -0.050   3.776   0.022  0.00  0.00     0.004 A 
ATOM      3  N1  <0> d          -1.240   3.118   0.030  0.00  0.00    -0.331 N 
ATOM      4  H1  <0> d          -2.182   3.686   0.047  0.00  0.00     0.168 HD
ATOM      5  C4  <0> d          -1.245   1.768   0.018  0.00  0.00     0.262 A 
ATOM      6  O1  <0> d          -2.299   1.153   0.019  0.00  0.00    -0.267 OA
ATOM      7  C5  <0> d          -0.013   1.076   0.008  0.00  0.00     0.068 A 
ATOM      8  N2  <0> d           1.112   1.748   0.001  0.00  0.00    -0.259 NA
ATOM      9  H5  <0> d          -0.031   4.855   0.027  0.00  0.00     0.114 H 
ATOM     10  H6  <0> d           0.002  -0.004   0.002  0.00  0.00     0.123 H 
ENDROOT
BRANCH   1  11
ATOM     11  C1  <0> d           2.424   3.820  -0.001  0.00  0.00    -0.034 C 
ATOM     12  H2  <0> d           2.232   4.903   0.007  0.00  0.00     0.035 H 
ATOM     13  H3  <0> d           2.990   3.554  -0.905  0.00  0.00     0.035 H 
ATOM     14  H4  <0> d           3.007   3.545   0.891  0.00  0.00     0.035 H 
ENDBRANCH   1  11
TORSDOF 1
