REMARK  1 active torsions:
REMARK  status: ('A' for Active; 'I' for Inactive)
REMARK    1  A    between atoms: C5_5  and  O1_7 
ROOT
ATOM      1  C1  <0> d           0.002  -0.004   0.002  0.00  0.00    -0.078 A 
ATOM      2  C2  <0> d          -0.016   1.361   0.009  0.00  0.00    -0.051 A 
ATOM      3  C3  <0> d           1.186   2.074   0.002  0.00  0.00     0.111 A 
ATOM      4  C4  <0> d           2.408   1.377  -0.014  0.00  0.00     0.141 A 
ATOM      5  C5  <0> d           2.407  -0.017  -0.022  0.00  0.00     0.098 A 
ATOM      6  C6  <0> d           1.205  -0.698  -0.013  0.00  0.00    -0.049 A 
ATOM      7  N1  <0> d           3.378   2.348  -0.018  0.00  0.00    -0.152 NA
ATOM      8  H1  <0> d           3.258   4.496  -0.003  0.00  0.00     0.213 HD
ATOM      9  N2  <0> d           2.796   3.497  -0.005  0.00  0.00    -0.196 N 
ATOM     10  N3  <0> d           1.514   3.382   0.006  0.00  0.00    -0.155 NA
ATOM     11  H2  <0> d          -0.929  -0.551   0.008  0.00  0.00     0.083 H 
ATOM     12  H3  <0> d          -0.958   1.889   0.016  0.00  0.00     0.087 H 
ATOM     13  H4  <0> d           1.201  -1.778  -0.018  0.00  0.00     0.087 H 
ENDROOT
BRANCH   5  14
ATOM     14  O1  <0> d           3.582  -0.701  -0.037  0.00  0.00    -0.358 OA
ATOM     15  H5  <0> d           3.577  -1.801  -0.043  0.00  0.00     0.217 HD
ENDBRANCH   5  14
TORSDOF 1
