REMARK  3 active torsions:
REMARK  status: ('A' for Active; 'I' for Inactive)
REMARK    1  A    between atoms: C1_1  and  N1_2 
REMARK    2  A    between atoms: N1_2  and  C2_3 
REMARK    3  A    between atoms: C2_3  and  C3_4 
ROOT
ATOM      1  C2  <0> d           0.690  -0.478  -1.207  0.00  0.00     0.138 C 
ATOM      2  H5  <0> d           0.163  -0.117  -2.090  0.00  0.00     0.087 H 
ATOM      3  H6  <0> d           1.712  -0.101  -1.214  0.00  0.00     0.087 H 
ENDROOT
BRANCH   1   4
ATOM      4  N1  <0> d           0.002  -0.004   0.002  0.00  0.00    -0.072 N 
ATOM      5  H4  <0> d           0.490  -0.338   0.820  0.00  0.00     0.277 HD
ATOM      6  H7  <0> d          -0.945  -0.353   0.009  0.00  0.00     0.277 HD
BRANCH   4   7
ATOM      7  C1  <0> d          -0.018   1.465   0.010  0.00  0.00     0.065 C 
ATOM      8  H1  <0> d           1.005   1.842   0.002  0.00  0.00     0.067 H 
ATOM      9  H2  <0> d          -0.545   1.826  -0.873  0.00  0.00     0.067 H 
ATOM     10  H3  <0> d          -0.528   1.816   0.907  0.00  0.00     0.067 H 
ENDBRANCH   4   7
ENDBRANCH   1   4
BRANCH   1  11
ATOM     11  C3  <0> d           0.710  -1.985  -1.215  0.00  0.00     0.176 A 
ATOM     12  N2  <0> d          -0.225  -2.768  -1.753  0.00  0.00    -0.186 NA
ATOM     13  C4  <0> d           0.103  -4.029  -1.585  0.00  0.00     0.295 A 
ATOM     14  O1  <0> d          -0.612  -5.101  -2.004  0.00  0.00    -0.147 OA
ATOM     15  N3  <0> d           1.277  -4.068  -0.923  0.00  0.00    -0.237 N 
ATOM     16  N4  <0> d           1.649  -2.733  -0.701  0.00  0.00    -0.154 NA
ATOM     17  H8  <0> d           1.768  -4.861  -0.656  0.00  0.00     0.193 HD
ENDBRANCH   1  11
TORSDOF 3
