REMARK  6 active torsions:
REMARK  status: ('A' for Active; 'I' for Inactive)
REMARK    1  A    between atoms: C1_1  and  C2_2 
REMARK    2  A    between atoms: C2_2  and  C3_3 
REMARK    3  A    between atoms: C3_3  and  C4_4 
REMARK    4  A    between atoms: C4_4  and  C5_5 
REMARK    5  A    between atoms: C5_5  and  C6_7 
REMARK    6  A    between atoms: C6_7  and  C7_8 
ROOT
ATOM      1  C5  <0> d          -2.164   1.050   1.278  0.00  0.00     0.030 C 
ATOM      2  H1  <0> d          -2.152  -0.036   1.182  0.00  0.00     0.062 H 
ATOM      3  C8  <0> d          -2.911   1.633   0.151  0.00  0.00     0.064 C 
ATOM      4  N1  <0> d          -3.487   2.083  -0.718  0.00  0.00    -0.197 NA
ENDROOT
BRANCH   1   5
ATOM      5  C4  <0> d          -2.841   1.438   2.594  0.00  0.00    -0.050 C 
ATOM      6  H9  <0> d          -2.240   1.082   3.430  0.00  0.00     0.035 H 
ATOM      7  H10 <0> d          -2.934   2.523   2.648  0.00  0.00     0.035 H 
BRANCH   5   8
ATOM      8  C3  <0> d          -4.232   0.804   2.658  0.00  0.00    -0.064 C 
ATOM      9  H7  <0> d          -4.833   1.160   1.822  0.00  0.00     0.033 H 
ATOM     10  H8  <0> d          -4.140  -0.281   2.604  0.00  0.00     0.033 H 
BRANCH   8  11
ATOM     11  C2  <0> d          -4.909   1.192   3.974  0.00  0.00    -0.069 C 
ATOM     12  H5  <0> d          -4.308   0.836   4.811  0.00  0.00     0.032 H 
ATOM     13  H6  <0> d          -5.001   2.277   4.029  0.00  0.00     0.032 H 
BRANCH  11  14
ATOM     14  C1  <0> d          -6.300   0.558   4.039  0.00  0.00    -0.077 C 
ATOM     15  H2  <0> d          -6.782   0.835   4.976  0.00  0.00     0.027 H 
ATOM     16  H3  <0> d          -6.901   0.914   3.202  0.00  0.00     0.027 H 
ATOM     17  H4  <0> d          -6.207  -0.527   3.984  0.00  0.00     0.027 H 
ENDBRANCH  11  14
ENDBRANCH   8  11
ENDBRANCH   5   8
ENDBRANCH   1   5
BRANCH   1  18
ATOM     18  C6  <0> d          -0.729   1.579   1.267  0.00  0.00    -0.053 C 
ATOM     19  H11 <0> d          -0.202   1.218   2.150  0.00  0.00     0.034 H 
ATOM     20  H12 <0> d          -0.744   2.669   1.273  0.00  0.00     0.034 H 
BRANCH  18  21
ATOM     21  C7  <0> d          -0.013   1.086   0.008  0.00  0.00    -0.075 C 
ATOM     22  H13 <0> d           0.002  -0.004   0.002  0.00  0.00     0.027 H 
ATOM     23  H14 <0> d           1.010   1.463   0.000  0.00  0.00     0.027 H 
ATOM     24  H15 <0> d          -0.540   1.447  -0.875  0.00  0.00     0.027 H 
ENDBRANCH  18  21
ENDBRANCH   1  18
TORSDOF 6
