REMARK  3 active torsions:
REMARK  status: ('A' for Active; 'I' for Inactive)
REMARK    1  A    between atoms: C1_1  and  C2_2 
REMARK    2  A    between atoms: C7_7  and  N1_8 
REMARK    3  A    between atoms: N1_8  and  C8_9 
ROOT
ATOM      1  C2  <0> d           1.159   3.175   0.008  0.00  0.00    -0.033 A 
ATOM      2  C3  <0> d          -0.049   3.846   0.022  0.00  0.00    -0.038 A 
ATOM      3  C4  <0> d          -1.237   3.135   0.029  0.00  0.00     0.117 A 
ATOM      4  C5  <0> d          -1.218   1.750   0.017  0.00  0.00    -0.043 A 
ATOM      5  C6  <0> d          -0.013   1.076   0.008  0.00  0.00    -0.054 A 
ATOM      6  C7  <0> d           1.180   1.787   0.000  0.00  0.00     0.033 A 
ATOM      7  F1  <0> d          -2.417   3.793   0.043  0.00  0.00    -0.206 F 
ATOM      8  H4  <0> d          -0.066   4.926   0.028  0.00  0.00     0.089 H 
ATOM      9  H5  <0> d          -2.145   1.198   0.019  0.00  0.00     0.088 H 
ATOM     10  H6  <0> d           0.002  -0.004   0.002  0.00  0.00     0.087 H 
ENDROOT
BRANCH   6  11
ATOM     11  N1  <0> d           2.401   1.106  -0.015  0.00  0.00    -0.394 N 
ATOM     12  H7  <0> d           3.346   1.670  -0.021  0.00  0.00     0.159 HD
BRANCH  11  13
ATOM     13  C8  <0> d           2.423  -0.359  -0.023  0.00  0.00    -0.021 C 
ATOM     14  H8  <0> d           3.466  -0.710  -0.035  0.00  0.00     0.056 H 
ATOM     15  H9  <0> d           1.902  -0.728  -0.918  0.00  0.00     0.056 H 
ATOM     16  H10 <0> d           1.919  -0.738   0.878  0.00  0.00     0.056 H 
ENDBRANCH  11  13
ENDBRANCH   6  11
BRANCH   1  17
ATOM     17  C1  <0> d           2.451   3.950  -0.000  0.00  0.00    -0.049 C 
ATOM     18  H1  <0> d           2.233   5.028   0.007  0.00  0.00     0.033 H 
ATOM     19  H2  <0> d           3.024   3.698  -0.905  0.00  0.00     0.033 H 
ATOM     20  H3  <0> d           3.040   3.689   0.891  0.00  0.00     0.033 H 
ENDBRANCH   1  17
TORSDOF 3
