REMARK  0 active torsions:
REMARK  status: ('A' for Active; 'I' for Inactive)
ROOT
ATOM      1  C1  <0> d          -0.019   1.554   0.011  0.00  0.00    -0.064 C 
ATOM      2  C2  <0> d           1.482   2.000  -0.001  0.00  0.00    -0.061 C 
ATOM      3  C3  <0> d           2.144   0.805   0.591  0.00  0.00    -0.044 C 
ATOM      4  H1  <0> d           1.793   0.691   1.616  0.00  0.00     0.041 H 
ATOM      5  C4  <0> d           3.545   0.292   0.514  0.00  0.00    -0.046 C 
ATOM      6  C5  <0> d           3.299  -1.193   0.836  0.00  0.00    -0.105 C 
ATOM      7  C6  <0> d           2.076  -1.538   0.435  0.00  0.00    -0.102 C 
ATOM      8  C7  <0> d           1.467  -0.353  -0.256  0.00  0.00    -0.034 C 
ATOM      9  H2  <0> d           1.729  -0.307  -1.313  0.00  0.00     0.046 H 
ATOM     10  C8  <0> d           0.002  -0.004   0.002  0.00  0.00    -0.058 C 
ATOM     11  H3  <0> d          -0.513   1.918   0.911  0.00  0.00     0.033 H 
ATOM     12  H4  <0> d          -0.530   1.928  -0.877  0.00  0.00     0.033 H 
ATOM     13  H5  <0> d           1.830   2.177  -1.019  0.00  0.00     0.033 H 
ATOM     14  H6  <0> d           1.634   2.881   0.622  0.00  0.00     0.033 H 
ATOM     15  H7  <0> d           3.959   0.418  -0.487  0.00  0.00     0.039 H 
ATOM     16  H8  <0> d           4.180   0.761   1.265  0.00  0.00     0.039 H 
ATOM     17  H9  <0> d           4.009  -1.853   1.311  0.00  0.00     0.076 H 
ATOM     18  H10 <0> d           1.614  -2.503   0.576  0.00  0.00     0.076 H 
ATOM     19  H11 <0> d          -0.320  -0.396   0.967  0.00  0.00     0.033 H 
ATOM     20  H12 <0> d          -0.629  -0.390  -0.798  0.00  0.00     0.033 H 
ENDROOT
TORSDOF 0
