REMARK  4 active torsions:
REMARK  status: ('A' for Active; 'I' for Inactive)
REMARK    1  A    between atoms: C1_1  and  O1_2 
REMARK    2  A    between atoms: O1_2  and  C2_3 
REMARK    3  A    between atoms: C2_3  and  C3_5 
REMARK    4  A    between atoms: C3_5  and  C4_6 
ROOT
ATOM      1  C3  <0> d           1.755  -1.812  -0.024  0.00  0.00     0.076 C 
ATOM      2  H4  <0> d           2.720  -1.861   0.480  0.00  0.00     0.060 H 
ATOM      3  H5  <0> d           1.041  -2.453   0.493  0.00  0.00     0.060 H 
ENDROOT
BRANCH   1   4
ATOM      4  C2  <0> d           1.908  -2.278  -1.449  0.00  0.00     0.265 C 
ATOM      5  O2  <0> d           1.639  -1.532  -2.361  0.00  0.00    -0.265 OA
BRANCH   4   6
ATOM      6  O1  <0> d           2.345  -3.521  -1.705  0.00  0.00    -0.326 OA
BRANCH   6   7
ATOM      7  C1  <0> d           2.468  -3.902  -3.101  0.00  0.00     0.013 C 
ATOM      8  H1  <0> d           1.494  -3.827  -3.586  0.00  0.00     0.067 H 
ATOM      9  H2  <0> d           3.173  -3.236  -3.598  0.00  0.00     0.067 H 
ATOM     10  H3  <0> d           2.829  -4.928  -3.167  0.00  0.00     0.067 H 
ENDBRANCH   6   7
ENDBRANCH   4   6
ENDBRANCH   1   4
BRANCH   1  11
ATOM     11  C4  <0> d           1.254  -0.390  -0.012  0.00  0.00     0.183 A 
ATOM     12  N3  <0> d           2.001   0.715  -0.013  0.00  0.00    -0.111 NA
ATOM     13  N2  <0> d           1.196   1.723  -0.000  0.00  0.00    -0.021 NA
ATOM     14  N4  <0> d          -0.013   1.283   0.009  0.00  0.00    -0.021 NA
ATOM     15  N1  <0> d           0.002  -0.004   0.002  0.00  0.00    -0.111 NA
ENDBRANCH   1  11
TORSDOF 4
