REMARK  5 active torsions:
REMARK  status: ('A' for Active; 'I' for Inactive)
REMARK    1  A    between atoms: C1_1  and  C2_2 
REMARK    2  A    between atoms: C2_2  and  C3_3 
REMARK    3  A    between atoms: C3_3  and  C4_4 
REMARK    4  A    between atoms: C4_4  and  C5_5 
REMARK    5  A    between atoms: C5_5  and  C6_6 
ROOT
ATOM      1  C5  <0> d          -0.777   1.606  -3.730  0.00  0.00    -0.046 C 
ATOM      2  H11 <0> d          -1.809   1.225  -3.722  0.00  0.00     0.035 H 
ATOM      3  H12 <0> d          -0.791   2.706  -3.724  0.00  0.00     0.035 H 
ENDROOT
BRANCH   1   4
ATOM      4  C4  <0> d          -0.037   1.099  -2.490  0.00  0.00    -0.063 C 
ATOM      5  H9  <0> d           0.995   1.480  -2.498  0.00  0.00     0.033 H 
ATOM      6  H10 <0> d          -0.022  -0.001  -2.496  0.00  0.00     0.033 H 
BRANCH   4   7
ATOM      7  C3  <0> d          -0.753   1.593  -1.232  0.00  0.00    -0.065 C 
ATOM      8  H7  <0> d          -1.785   1.212  -1.224  0.00  0.00     0.033 H 
ATOM      9  H8  <0> d          -0.768   2.693  -1.226  0.00  0.00     0.033 H 
BRANCH   7  10
ATOM     10  C2  <0> d          -0.013   1.086   0.008  0.00  0.00    -0.069 C 
ATOM     11  H5  <0> d           1.019   1.466   0.000  0.00  0.00     0.032 H 
ATOM     12  H6  <0> d           0.002  -0.014   0.002  0.00  0.00     0.032 H 
BRANCH  10  13
ATOM     13  C1  <0> d          -0.729   1.579   1.267  0.00  0.00    -0.077 C 
ATOM     14  H2  <0> d          -0.197   1.215   2.158  0.00  0.00     0.027 H 
ATOM     15  H3  <0> d          -1.761   1.198   1.275  0.00  0.00     0.027 H 
ATOM     16  H4  <0> d          -0.744   2.679   1.273  0.00  0.00     0.027 H 
ENDBRANCH  10  13
ENDBRANCH   7  10
ENDBRANCH   4   7
ENDBRANCH   1   4
BRANCH   1  17
ATOM     17  C6  <0> d          -0.060   1.113  -4.989  0.00  0.00     0.012 C 
ATOM     18  H1  <0> d           0.070   0.024  -4.902  0.00  0.00     0.072 H 
ATOM     19  N1  <0> d           1.254   1.755  -5.110  0.00  0.00    -0.356 N 
ATOM     20  C9  <0> d           1.485   2.160  -6.370  0.00  0.00     0.217 C 
ATOM     21  H17 <0> d           1.903   1.849  -4.227  0.00  0.00     0.162 HD
ATOM     22  C8  <0> d           0.300   1.826  -7.250  0.00  0.00     0.011 C 
ATOM     23  O1  <0> d           2.496   2.713  -6.748  0.00  0.00    -0.274 OA
ATOM     24  C7  <0> d          -0.845   1.535  -6.250  0.00  0.00    -0.038 C 
ATOM     25  H15 <0> d           0.483   0.935  -7.868  0.00  0.00     0.047 H 
ATOM     26  H16 <0> d           0.016   2.669  -7.897  0.00  0.00     0.047 H 
ATOM     27  H13 <0> d          -1.499   0.709  -6.569  0.00  0.00     0.036 H 
ATOM     28  H14 <0> d          -1.458   2.420  -6.022  0.00  0.00     0.036 H 
ENDBRANCH   1  17
TORSDOF 5
