REMARK  5 active torsions:
REMARK  status: ('A' for Active; 'I' for Inactive)
REMARK    1  A    between atoms: C1_1  and  C2_2 
REMARK    2  A    between atoms: C2_2  and  O1_3 
REMARK    3  A    between atoms: O1_3  and  C3_4 
REMARK    4  A    between atoms: C3_4  and  C4_6 
REMARK    5  A    between atoms: C8_11  and  O3_13 
ROOT
ATOM      1  C4  <0> d           1.228   3.579   0.010  0.00  0.00     0.055 C 
ATOM      2  H1  <0> d           0.731   3.975   0.895  0.00  0.00     0.059 H 
ATOM      3  C5  <0> d           0.584   4.153  -1.277  0.00  0.00    -0.051 C 
ATOM      4  C6  <0> d           1.247   5.548  -1.398  0.00  0.00    -0.062 C 
ATOM      5  C7  <0> d           2.704   5.315  -0.947  0.00  0.00    -0.040 C 
ATOM      6  C8  <0> d           2.692   4.063  -0.048  0.00  0.00     0.048 C 
ATOM      7  H2  <0> d           3.042   4.316   0.953  0.00  0.00     0.084 H 
ATOM      8  H8  <0> d           0.827   3.534  -2.140  0.00  0.00     0.034 H 
ATOM      9  H9  <0> d          -0.496   4.245  -1.161  0.00  0.00     0.034 H 
ATOM     10  H10 <0> d           1.219   5.895  -2.431  0.00  0.00     0.033 H 
ATOM     11  H11 <0> d           0.752   6.264  -0.742  0.00  0.00     0.033 H 
ATOM     12  H12 <0> d           3.341   5.147  -1.815  0.00  0.00     0.036 H 
ATOM     13  H13 <0> d           3.062   6.175  -0.382  0.00  0.00     0.036 H 
ENDROOT
BRANCH   1  14
ATOM     14  C3  <0> d           1.170   2.073   0.002  0.00  0.00     0.265 C 
ATOM     15  O2  <0> d           2.192   1.429  -0.011  0.00  0.00    -0.265 OA
BRANCH  14  16
ATOM     16  O1  <0> d          -0.018   1.448   0.010  0.00  0.00    -0.321 OA
BRANCH  16  17
ATOM     17  C2  <0> d           0.002  -0.004   0.002  0.00  0.00     0.025 C 
ATOM     18  H6  <0> d           0.512  -0.356  -0.895  0.00  0.00     0.074 H 
ATOM     19  H7  <0> d           0.529  -0.365   0.885  0.00  0.00     0.074 H 
BRANCH  17  20
ATOM     20  C1  <0> d          -1.433  -0.534   0.013  0.00  0.00    -0.056 C 
ATOM     21  H3  <0> d          -1.419  -1.623   0.007  0.00  0.00     0.030 H 
ATOM     22  H4  <0> d          -1.944  -0.182   0.910  0.00  0.00     0.030 H 
ATOM     23  H5  <0> d          -1.960  -0.173  -0.870  0.00  0.00     0.030 H 
ENDBRANCH  17  20
ENDBRANCH  16  17
ENDBRANCH  14  16
ENDBRANCH   1  14
BRANCH   6  24
ATOM     24  O3  <0> d           3.522   3.047  -0.615  0.00  0.00    -0.395 OA
ATOM     25  H14 <0> d           4.455   3.291  -0.678  0.00  0.00     0.210 HD
ENDBRANCH   6  24
TORSDOF 5
