REMARK  2 active torsions:
REMARK  status: ('A' for Active; 'I' for Inactive)
REMARK    1  A    between atoms: C1_1  and  N1_2 
REMARK    2  A    between atoms: N1_2  and  C2_3 
ROOT
ATOM      1  N1  <0> d          -0.012   1.005   0.008  0.00  0.00     0.300 N 
ATOM      2  H1  <0> d           0.031  -0.092  -0.070  0.00  0.00     0.339 HD
ENDROOT
BRANCH   1   3
ATOM      3  C1  <0> d           1.353   1.550  -0.003  0.00  0.00     0.612 C 
ATOM      4  F4  <0> d           1.298   2.944   0.096  0.00  0.00    -0.144 F 
ATOM      5  F5  <0> d           2.069   1.033   1.082  0.00  0.00    -0.144 F 
ATOM      6  F6  <0> d           1.989   1.192  -1.196  0.00  0.00    -0.144 F 
ENDBRANCH   1   3
BRANCH   1   7
ATOM      7  C2  <0> d          -0.795   1.527  -1.120  0.00  0.00     0.612 C 
ATOM      8  F1  <0> d          -0.178   1.168  -2.323  0.00  0.00    -0.144 F 
ATOM      9  F2  <0> d          -2.086   0.989  -1.079  0.00  0.00    -0.144 F 
ATOM     10  F3  <0> d          -0.869   2.921  -1.031  0.00  0.00    -0.144 F 
ENDBRANCH   1   7
TORSDOF 2
