REMARK  2 active torsions:
REMARK  status: ('A' for Active; 'I' for Inactive)
REMARK    1  A    between atoms: C1_1  and  C2_2 
REMARK    2  A    between atoms: N2_6  and  C5_7 
ROOT
ATOM      1  C2  <0> d           0.002  -0.004   0.002  0.00  0.00     0.048 A 
ATOM      2  C3  <0> d          -0.017   1.376   0.010  0.00  0.00     0.087 A 
ATOM      3  C4  <0> d           1.327   1.812  -0.001  0.00  0.00     0.044 A 
ATOM      4  N1  <0> d           2.094   0.756  -0.014  0.00  0.00    -0.184 NA
ATOM      5  N2  <0> d           1.290  -0.389  -0.012  0.00  0.00    -0.277 N 
ATOM      6  C6  <0> d          -1.181   2.210   0.020  0.00  0.00     0.103 C 
ATOM      7  N3  <0> d          -2.104   2.872   0.028  0.00  0.00    -0.191 NA
ATOM      8  H4  <0> d           1.661   2.839   0.001  0.00  0.00     0.119 H 
ENDROOT
BRANCH   1   9
ATOM      9  C1  <0> d          -1.200  -0.913   0.008  0.00  0.00    -0.034 C 
ATOM     10  H1  <0> d          -1.500  -1.126  -1.018  0.00  0.00     0.035 H 
ATOM     11  H2  <0> d          -0.949  -1.845   0.514  0.00  0.00     0.035 H 
ATOM     12  H3  <0> d          -2.022  -0.425   0.533  0.00  0.00     0.035 H 
ENDBRANCH   1   9
BRANCH   5  13
ATOM     13  C5  <0> d           1.770  -1.773  -0.025  0.00  0.00     0.003 C 
ATOM     14  H5  <0> d           1.880  -2.110  -1.056  0.00  0.00     0.059 H 
ATOM     15  H6  <0> d           2.735  -1.827   0.479  0.00  0.00     0.059 H 
ATOM     16  H7  <0> d           1.054  -2.411   0.492  0.00  0.00     0.059 H 
ENDBRANCH   5  13
TORSDOF 2
