REMARK  0 active torsions:
REMARK  status: ('A' for Active; 'I' for Inactive)
ROOT
ATOM      1  C1  <0> d          -0.017   1.392   0.010  0.00  0.00    -0.083 A 
ATOM      2  C2  <0> d           0.002  -0.004   0.002  0.00  0.00    -0.079 A 
ATOM      3  C3  <0> d           1.080  -0.843  -0.013  0.00  0.00    -0.033 A 
ATOM      4  C4  <0> d           2.449  -0.507  -0.024  0.00  0.00     0.193 A 
ATOM      5  O1  <0> d           3.229  -1.450  -0.036  0.00  0.00    -0.287 OA
ATOM      6  C5  <0> d           3.035   0.778  -0.023  0.00  0.00     0.084 A 
ATOM      7  C6  <0> d           2.411   1.994  -0.010  0.00  0.00    -0.058 A 
ATOM      8  C7  <0> d           1.043   2.271   0.004  0.00  0.00    -0.081 A 
ATOM      9 Cl1  <0> d           4.770   0.819  -0.039  0.00  0.00    -0.080 Cl
ATOM     10  H1  <0> d          -0.997   1.844   0.017  0.00  0.00     0.083 H 
ATOM     11  H2  <0> d          -0.965  -0.485   0.009  0.00  0.00     0.083 H 
ATOM     12  H3  <0> d           0.854  -1.899  -0.016  0.00  0.00     0.089 H 
ATOM     13  H4  <0> d           3.063   2.855  -0.011  0.00  0.00     0.086 H 
ATOM     14  H5  <0> d           0.780   3.318   0.012  0.00  0.00     0.083 H 
ENDROOT
TORSDOF 0
