REMARK  3 active torsions:
REMARK  status: ('A' for Active; 'I' for Inactive)
REMARK    1  A    between atoms: C6_6  and  C7_7 
REMARK    2  A    between atoms: C7_7  and  C8_9 
REMARK    3  A    between atoms: C8_9  and  O2_10 
ROOT
ATOM      1  C1  <0> d          -1.320   3.325   0.032  0.00  0.00    -0.067 A 
ATOM      2  C2  <0> d          -2.526   3.992   0.035  0.00  0.00    -0.045 A 
ATOM      3  C3  <0> d          -3.716   3.279   0.037  0.00  0.00     0.116 A 
ATOM      4  C4  <0> d          -3.700   1.892   0.030  0.00  0.00    -0.045 A 
ATOM      5  C5  <0> d          -2.502   1.213   0.021  0.00  0.00    -0.067 A 
ATOM      6  C6  <0> d          -1.297   1.926   0.019  0.00  0.00     0.012 A 
ATOM      7  F1  <0> d          -4.894   3.938   0.045  0.00  0.00    -0.206 F 
ATOM      8  H1  <0> d          -0.394   3.881   0.035  0.00  0.00     0.085 H 
ATOM      9  H2  <0> d          -2.544   5.072   0.041  0.00  0.00     0.088 H 
ATOM     10  H3  <0> d          -4.630   1.343   0.031  0.00  0.00     0.088 H 
ATOM     11  H4  <0> d          -2.491   0.133   0.014  0.00  0.00     0.085 H 
ENDROOT
BRANCH   6  12
ATOM     12  C7  <0> d          -0.014   1.208   0.009  0.00  0.00     0.182 C 
ATOM     13  O1  <0> d           0.002  -0.004   0.002  0.00  0.00    -0.290 OA
BRANCH  12  14
ATOM     14  C8  <0> d           1.280   1.980   0.001  0.00  0.00     0.076 C 
ATOM     15  H5  <0> d           1.318   2.560  -0.813  0.00  0.00     0.086 H 
ATOM     16  H6  <0> d           1.338   2.602   0.893  0.00  0.00     0.086 H 
BRANCH  14  17
ATOM     17  O2  <0> d           2.379   1.066  -0.015  0.00  0.00    -0.393 OA
ATOM     18  H7  <0> d           3.246   1.494  -0.021  0.00  0.00     0.209 HD
ENDBRANCH  14  17
ENDBRANCH  12  14
ENDBRANCH   6  12
TORSDOF 3
