REMARK  5 active torsions:
REMARK  status: ('A' for Active; 'I' for Inactive)
REMARK    1  A    between atoms: C1_1  and  C2_2 
REMARK    2  A    between atoms: C2_2  and  C8_13 
REMARK    3  A    between atoms: C4_5  and  C5_8 
REMARK    4  A    between atoms: C5_8  and  C6_10 
REMARK    5  A    between atoms: C5_8  and  O3_12 
ROOT
ATOM      1  C6  <0> d          -1.349   1.248   3.593  0.00  0.00    -0.083 C 
ATOM      2  C7  <0> d          -1.956   1.673   4.504  0.00  0.00    -0.151 C 
ATOM      3  H8  <0> d          -2.498   2.053   5.319  0.00  0.00     0.166 H 
ENDROOT
BRANCH   1   4
ATOM      4  C5  <0> d          -0.589   0.715   2.451  0.00  0.00     0.120 C 
ATOM      5  H2  <0> d          -0.936  -0.293   2.222  0.00  0.00     0.107 H 
BRANCH   4   6
ATOM      6  C4  <0> d          -0.799   1.616   1.233  0.00  0.00     0.097 C 
ATOM      7  C3  <0> d          -0.013   1.086   0.008  0.00  0.00     0.050 C 
ATOM      8  O1  <0> d          -0.766   1.591  -1.112  0.00  0.00    -0.353 OA
ATOM      9  H6  <0> d           0.002  -0.004   0.002  0.00  0.00     0.078 H 
ATOM     10  H7  <0> d           1.002   1.484   0.001  0.00  0.00     0.078 H 
ATOM     11  C2  <0> d          -2.090   1.877  -0.641  0.00  0.00     0.157 C 
ATOM     12  O2  <0> d          -2.168   1.538   0.753  0.00  0.00    -0.345 OA
ATOM     13  H1  <0> d          -0.522   2.646   1.459  0.00  0.00     0.092 H 
BRANCH  11  14
ATOM     14  C1  <0> d          -2.392   3.365  -0.827  0.00  0.00    -0.026 C 
ATOM     15  H3  <0> d          -2.347   3.615  -1.887  0.00  0.00     0.035 H 
ATOM     16  H4  <0> d          -3.389   3.584  -0.445  0.00  0.00     0.035 H 
ATOM     17  H5  <0> d          -1.656   3.956  -0.282  0.00  0.00     0.035 H 
ENDBRANCH  11  14
BRANCH  11  18
ATOM     18  C8  <0> d          -3.106   1.047  -1.429  0.00  0.00    -0.026 C 
ATOM     19  H10 <0> d          -2.878  -0.013  -1.313  0.00  0.00     0.035 H 
ATOM     20  H11 <0> d          -4.109   1.246  -1.052  0.00  0.00     0.035 H 
ATOM     21  H12 <0> d          -3.055   1.316  -2.484  0.00  0.00     0.035 H 
ENDBRANCH  11  18
ENDBRANCH   4   6
BRANCH   4  22
ATOM     22  O3  <0> d           0.801   0.676   2.780  0.00  0.00    -0.381 OA
ATOM     23  H9  <0> d           1.178   1.540   2.996  0.00  0.00     0.211 HD
ENDBRANCH   4  22
ENDBRANCH   1   4
TORSDOF 5
