REMARK  0 active torsions:
REMARK  status: ('A' for Active; 'I' for Inactive)
ROOT
ATOM      1  C1  <0> d          -0.019   1.538   0.011  0.00  0.00    -0.061 C 
ATOM      2  C2  <0> d           1.462   2.002  -0.001  0.00  0.00    -0.060 C 
ATOM      3  C3  <0> d           2.233   0.656  -0.329  0.00  0.00    -0.042 C 
ATOM      4  H1  <0> d           3.320   0.652  -0.252  0.00  0.00     0.041 H 
ATOM      5  C4  <0> d           1.413  -0.258   0.679  0.00  0.00    -0.057 C 
ATOM      6  C5  <0> d           0.002  -0.004   0.002  0.00  0.00    -0.048 C 
ATOM      7  H2  <0> d          -0.850  -0.473   0.494  0.00  0.00     0.040 H 
ATOM      8  C6  <0> d           0.351  -0.565  -1.366  0.00  0.00    -0.023 C 
ATOM      9  H3  <0> d           0.574  -1.631  -1.331  0.00  0.00     0.044 H 
ATOM     10  C7  <0> d           1.631   0.346  -1.663  0.00  0.00     0.032 C 
ATOM     11  H4  <0> d           1.151   1.310  -1.830  0.00  0.00     0.056 H 
ATOM     12  C8  <0> d           1.984   0.090  -3.030  0.00  0.00     0.222 C 
ATOM     13  O1  <0> d           3.096   0.068  -3.512  0.00  0.00    -0.273 OA
ATOM     14  N1  <0> d           0.782  -0.125  -3.682  0.00  0.00    -0.360 N 
ATOM     15  C9  <0> d          -0.385  -0.170  -2.639  0.00  0.00    -0.000 C 
ATOM     16  H5  <0> d          -0.516   1.899   0.910  0.00  0.00     0.033 H 
ATOM     17  H6  <0> d          -0.533   1.909  -0.876  0.00  0.00     0.033 H 
ATOM     18  H7  <0> d           1.630   2.745  -0.781  0.00  0.00     0.033 H 
ATOM     19  H8  <0> d           1.755   2.389   0.975  0.00  0.00     0.033 H 
ATOM     20  H9  <0> d           1.714  -1.304   0.622  0.00  0.00     0.034 H 
ATOM     21  H10 <0> d           1.452   0.120   1.700  0.00  0.00     0.034 H 
ATOM     22  H11 <0> d           0.682  -0.256  -4.638  0.00  0.00     0.162 HD
ATOM     23  H12 <0> d          -1.144  -0.910  -2.894  0.00  0.00     0.064 H 
ATOM     24  H13 <0> d          -0.827   0.822  -2.540  0.00  0.00     0.064 H 
ENDROOT
TORSDOF 0
