REMARK  6 active torsions:
REMARK  status: ('A' for Active; 'I' for Inactive)
REMARK    1  A    between atoms: C1_1  and  C2_2 
REMARK    2  A    between atoms: C2_2  and  C3_4 
REMARK    3  A    between atoms: C2_2  and  O3_10 
REMARK    4  A    between atoms: C3_4  and  O2_6 
REMARK    5  A    between atoms: O2_6  and  C4_7 
REMARK    6  A    between atoms: C4_7  and  C5_8 
ROOT
ATOM      1  C3  <0> d           1.401   1.607  -0.003  0.00  0.00     0.287 C 
ATOM      2  O1  <0> d           1.752   2.384  -0.859  0.00  0.00    -0.262 OA
ENDROOT
BRANCH   1   3
ATOM      3  C2  <0> d          -0.013   1.086   0.008  0.00  0.00     0.115 C 
ATOM      4  H1  <0> d           0.002  -0.004   0.002  0.00  0.00     0.098 H 
BRANCH   3   5
ATOM      5  C1  <0> d          -0.729   1.579   1.267  0.00  0.00    -0.044 C 
ATOM      6  H2  <0> d          -0.744   2.669   1.273  0.00  0.00     0.031 H 
ATOM      7  H3  <0> d          -1.751   1.202   1.275  0.00  0.00     0.031 H 
ATOM      8  H4  <0> d          -0.202   1.218   2.150  0.00  0.00     0.031 H 
ENDBRANCH   3   5
BRANCH   3   9
ATOM      9  O3  <0> d          -0.704   1.559  -1.150  0.00  0.00    -0.386 OA
ATOM     10  H10 <0> d          -0.756   2.523  -1.210  0.00  0.00     0.210 HD
ENDBRANCH   3   9
ENDBRANCH   1   3
BRANCH   1  11
ATOM     11  O2  <0> d           2.271   1.209   0.939  0.00  0.00    -0.316 OA
BRANCH  11  12
ATOM     12  C4  <0> d           3.615   1.752   0.867  0.00  0.00     0.043 C 
ATOM     13  H5  <0> d           4.068   1.476  -0.085  0.00  0.00     0.081 H 
ATOM     14  H6  <0> d           3.573   2.838   0.948  0.00  0.00     0.081 H 
BRANCH  12  15
ATOM     15  C5  <0> d           4.443   1.196   1.997  0.00  0.00    -0.089 C 
ATOM     16  C6  <0> d           5.658   0.763   1.768  0.00  0.00    -0.123 C 
ATOM     17  H8  <0> d           6.066   0.805   0.769  0.00  0.00     0.066 H 
ATOM     18  H9  <0> d           6.251   0.365   2.577  0.00  0.00     0.066 H 
ATOM     19  H7  <0> d           4.035   1.154   2.996  0.00  0.00     0.078 H 
ENDBRANCH  12  15
ENDBRANCH  11  12
ENDBRANCH   1  11
TORSDOF 6
