REMARK  1 active torsions:
REMARK  status: ('A' for Active; 'I' for Inactive)
REMARK    1  A    between atoms: C2_2  and  O2_8 
ROOT
ATOM      1  C1  <0> d           2.032   1.287   1.325  0.00  0.00     0.034 C 
ATOM      2  C2  <0> d           1.286   1.562  -0.002  0.00  0.00     0.059 C 
ATOM      3  H1  <0> d           1.868   1.215  -0.856  0.00  0.00     0.086 H 
ATOM      4  C3  <0> d           1.184   3.103   0.007  0.00  0.00     0.019 C 
ATOM      5  N1  <0> d           2.301   3.565   0.840  0.00  0.00    -0.359 N 
ATOM      6  C4  <0> d           2.793   2.567   1.594  0.00  0.00     0.220 C 
ATOM      7  O1  <0> d           3.713   2.676   2.377  0.00  0.00    -0.274 OA
ATOM      8  H2  <0> d           1.322   1.090   2.128  0.00  0.00     0.051 H 
ATOM      9  H3  <0> d           2.721   0.451   1.209  0.00  0.00     0.051 H 
ATOM     10  H4  <0> d           1.282   3.494  -1.006  0.00  0.00     0.068 H 
ATOM     11  H5  <0> d           0.235   3.415   0.443  0.00  0.00     0.068 H 
ATOM     12  H6  <0> d           2.640   4.473   0.845  0.00  0.00     0.162 HD
ENDROOT
BRANCH   2  13
ATOM     13  O2  <0> d          -0.011   0.963   0.007  0.00  0.00    -0.393 OA
ATOM     14  H7  <0> d           0.002  -0.004   0.002  0.00  0.00     0.210 HD
ENDBRANCH   2  13
TORSDOF 1
