REMARK  2 active torsions:
REMARK  status: ('A' for Active; 'I' for Inactive)
REMARK    1  A    between atoms: C1_1  and  C2_2 
REMARK    2  A    between atoms: C4_4  and  C6_9 
ROOT
ATOM      1  C2  <0> d          -0.742   1.585  -1.213  0.00  0.00     0.059 A 
ATOM      2  C3  <0> d          -2.123   1.800  -1.166  0.00  0.00     0.080 A 
ATOM      3  C4  <0> d          -2.760   2.251  -2.281  0.00  0.00     0.033 A 
ATOM      4  N1  <0> d          -2.038   2.481  -3.409  0.00  0.00    -0.309 N 
ATOM      5  C5  <0> d          -0.710   2.262  -3.418  0.00  0.00     0.346 A 
ATOM      6  N2  <0> d          -0.078   1.825  -2.326  0.00  0.00    -0.197 NA
ATOM      7  O1  <0> d          -0.073   2.471  -4.437  0.00  0.00    -0.245 OA
ATOM      8 Cl1  <0> d          -3.012   1.495   0.293  0.00  0.00    -0.080 Cl
ATOM      9  H4  <0> d          -2.481   2.802  -4.210  0.00  0.00     0.170 HD
ENDROOT
BRANCH   1  10
ATOM     10  C1  <0> d          -0.013   1.086   0.008  0.00  0.00    -0.034 C 
ATOM     11  H1  <0> d           0.002  -0.004   0.002  0.00  0.00     0.035 H 
ATOM     12  H2  <0> d           1.010   1.463   0.000  0.00  0.00     0.035 H 
ATOM     13  H3  <0> d          -0.523   1.437   0.905  0.00  0.00     0.035 H 
ENDBRANCH   1  10
BRANCH   3  14
ATOM     14  C6  <0> d          -4.248   2.492  -2.264  0.00  0.00    -0.036 C 
ATOM     15  H5  <0> d          -4.446   3.520  -1.960  0.00  0.00     0.035 H 
ATOM     16  H6  <0> d          -4.654   2.324  -3.262  0.00  0.00     0.035 H 
ATOM     17  H7  <0> d          -4.719   1.807  -1.560  0.00  0.00     0.035 H 
ENDBRANCH   3  14
TORSDOF 2
