REMARK  7 active torsions:
REMARK  status: ('A' for Active; 'I' for Inactive)
REMARK    1  A    between atoms: C1_1  and  C2_2 
REMARK    2  A    between atoms: C2_2  and  C3_3 
REMARK    3  A    between atoms: C3_3  and  C4_5 
REMARK    4  A    between atoms: C3_3  and  N1_6 
REMARK       I    between atoms: N1_6  and  C5_7 
REMARK    5  A    between atoms: C5_7  and  C6_9 
REMARK    6  A    between atoms: C6_9  and  C7_11 
REMARK    7  A    between atoms: C6_9  and  O2_12 
ROOT
ATOM      1  C3  <0> d          -1.295   2.059   0.019  0.00  0.00     0.008 C 
ATOM      2  H1  <0> d          -2.020   1.498   0.609  0.00  0.00     0.071 H 
ENDROOT
BRANCH   1   3
ATOM      3  C2  <0> d          -1.099   3.445   0.636  0.00  0.00    -0.050 C 
ATOM      4  H6  <0> d          -0.310   3.973   0.100  0.00  0.00     0.035 H 
ATOM      5  H7  <0> d          -2.028   4.010   0.562  0.00  0.00     0.035 H 
BRANCH   3   6
ATOM      6  C1  <0> d          -0.706   3.299   2.107  0.00  0.00    -0.075 C 
ATOM      7  H3  <0> d          -0.566   4.286   2.546  0.00  0.00     0.027 H 
ATOM      8  H4  <0> d          -1.494   2.771   2.643  0.00  0.00     0.027 H 
ATOM      9  H5  <0> d           0.224   2.734   2.180  0.00  0.00     0.027 H 
ENDBRANCH   3   6
ENDBRANCH   1   3
BRANCH   1  10
ATOM     10  C4  <0> d          -1.808   2.206  -1.414  0.00  0.00    -0.057 C 
ATOM     11  H8  <0> d          -1.948   1.218  -1.853  0.00  0.00     0.030 H 
ATOM     12  H9  <0> d          -2.759   2.738  -1.407  0.00  0.00     0.030 H 
ATOM     13  H10 <0> d          -1.083   2.766  -2.004  0.00  0.00     0.030 H 
ENDBRANCH   1  10
BRANCH   1  14
ATOM     14  N1  <0> d          -0.016   1.344   0.009  0.00  0.00    -0.355 N 
ATOM     15  C5  <0> d           0.002  -0.004   0.002  0.00  0.00     0.246 C 
ATOM     16  O1  <0> d          -1.040  -0.625   0.009  0.00  0.00    -0.271 OA
ATOM     17  H11 <0> d           0.817   1.840   0.004  0.00  0.00     0.162 HD
BRANCH  15  18
ATOM     18  C6  <0> d           1.317  -0.740  -0.015  0.00  0.00     0.109 C 
ATOM     19  H2  <0> d           1.914  -0.398  -0.860  0.00  0.00     0.097 H 
BRANCH  18  20
ATOM     20  C7  <0> d           2.072  -0.464   1.287  0.00  0.00    -0.044 C 
ATOM     21  H12 <0> d           1.476  -0.805   2.133  0.00  0.00     0.031 H 
ATOM     22  H13 <0> d           3.024  -0.996   1.275  0.00  0.00     0.031 H 
ATOM     23  H14 <0> d           2.256   0.607   1.381  0.00  0.00     0.031 H 
ENDBRANCH  18  20
BRANCH  18  24
ATOM     24  O2  <0> d           1.077  -2.143  -0.137  0.00  0.00    -0.387 OA
ATOM     25  H15 <0> d           1.881  -2.680  -0.154  0.00  0.00     0.210 HD
ENDBRANCH  18  24
ENDBRANCH  15  18
ENDBRANCH   1  14
TORSDOF 7
