REMARK  5 active torsions:
REMARK  status: ('A' for Active; 'I' for Inactive)
REMARK    1  A    between atoms: C1_1  and  C2_2 
REMARK    2  A    between atoms: C2_2  and  C3_3 
REMARK    3  A    between atoms: C3_3  and  C4_4 
REMARK    4  A    between atoms: C3_3  and  C5_5 
REMARK    5  A    between atoms: C5_5  and  C6_6 
ROOT
ATOM      1  C3  <0> d          -1.433  -0.534   0.013  0.00  0.00     0.033 C 
ATOM      2 Cl1  <0> d          -2.277   0.048   1.496  0.00  0.00    -0.120 Cl
ENDROOT
BRANCH   1   3
ATOM      3  C2  <0> d           0.002  -0.004   0.002  0.00  0.00    -0.049 C 
ATOM      4  H4  <0> d           0.512  -0.356  -0.895  0.00  0.00     0.035 H 
ATOM      5  H5  <0> d           0.529  -0.365   0.885  0.00  0.00     0.035 H 
BRANCH   3   6
ATOM      6  C1  <0> d          -0.019   1.526   0.010  0.00  0.00    -0.075 C 
ATOM      7  H1  <0> d           1.004   1.903   0.003  0.00  0.00     0.027 H 
ATOM      8  H2  <0> d          -0.546   1.887  -0.873  0.00  0.00     0.027 H 
ATOM      9  H3  <0> d          -0.529   1.877   0.907  0.00  0.00     0.027 H 
ENDBRANCH   3   6
ENDBRANCH   1   3
BRANCH   1  10
ATOM     10  C4  <0> d          -2.173  -0.027  -1.227  0.00  0.00    -0.056 C 
ATOM     11  H6  <0> d          -1.663  -0.378  -2.123  0.00  0.00     0.029 H 
ATOM     12  H7  <0> d          -3.196  -0.404  -1.219  0.00  0.00     0.029 H 
ATOM     13  H8  <0> d          -2.188   1.063  -1.221  0.00  0.00     0.029 H 
ENDBRANCH   1  10
BRANCH   1  14
ATOM     14  C5  <0> d          -1.413  -2.063   0.004  0.00  0.00    -0.049 C 
ATOM     15  H9  <0> d          -0.826  -2.414  -0.845  0.00  0.00     0.035 H 
ATOM     16  H10 <0> d          -0.965  -2.426   0.930  0.00  0.00     0.035 H 
BRANCH  14  17
ATOM     17  C6  <0> d          -2.844  -2.592  -0.110  0.00  0.00    -0.075 C 
ATOM     18  H11 <0> d          -2.829  -3.682  -0.116  0.00  0.00     0.027 H 
ATOM     19  H12 <0> d          -3.430  -2.242   0.739  0.00  0.00     0.027 H 
ATOM     20  H13 <0> d          -3.292  -2.230  -1.036  0.00  0.00     0.027 H 
ENDBRANCH  14  17
ENDBRANCH   1  14
TORSDOF 5
