REMARK  1 active torsions:
REMARK  status: ('A' for Active; 'I' for Inactive)
REMARK    1  A    between atoms: C5_8  and  O3_12 
ROOT
ATOM      1  C1  <0> d          -0.019   1.541   0.011  0.00  0.00    -0.035 C 
ATOM      2  C2  <0> d           1.493   1.882  -0.002  0.00  0.00     0.023 C 
ATOM      3  O1  <0> d           2.057   0.880  -0.873  0.00  0.00    -0.361 OA
ATOM      4  C3  <0> d           1.385  -0.362  -0.598  0.00  0.00     0.137 C 
ATOM      5  H1  <0> d           1.965  -0.983   0.085  0.00  0.00     0.129 H 
ATOM      6  C4  <0> d           0.002  -0.004   0.002  0.00  0.00     0.022 C 
ATOM      7  H2  <0> d          -0.152  -0.431   0.993  0.00  0.00     0.051 H 
ATOM      8  C5  <0> d          -1.010  -0.521  -1.045  0.00  0.00     0.064 C 
ATOM      9  H3  <0> d          -1.881  -0.962  -0.560  0.00  0.00     0.087 H 
ATOM     10  C6  <0> d          -0.181  -1.602  -1.785  0.00  0.00     0.047 C 
ATOM     11  O2  <0> d           1.154  -1.034  -1.849  0.00  0.00    -0.358 OA
ATOM     12  H4  <0> d          -0.496   1.919   0.915  0.00  0.00     0.037 H 
ATOM     13  H5  <0> d          -0.513   1.928  -0.880  0.00  0.00     0.037 H 
ATOM     14  H6  <0> d           1.658   2.880  -0.407  0.00  0.00     0.074 H 
ATOM     15  H7  <0> d           1.914   1.799   1.000  0.00  0.00     0.074 H 
ATOM     16  H8  <0> d          -0.168  -2.531  -1.216  0.00  0.00     0.078 H 
ATOM     17  H9  <0> d          -0.577  -1.769  -2.787  0.00  0.00     0.078 H 
ENDROOT
BRANCH   8  18
ATOM     18  O3  <0> d          -1.400   0.525  -1.937  0.00  0.00    -0.393 OA
ATOM     19  H10 <0> d          -2.035   0.249  -2.613  0.00  0.00     0.210 HD
ENDBRANCH   8  18
TORSDOF 1
