REMARK  2 active torsions:
REMARK  status: ('A' for Active; 'I' for Inactive)
REMARK    1  A    between atoms: C1_1  and  C2_2 
REMARK    2  A    between atoms: C6_7  and  C7_9 
ROOT
ATOM      1  C2  <0> d           2.704   3.566   0.013  0.00  0.00    -0.045 C 
ATOM      2  H1  <0> d           3.351   2.794   0.429  0.00  0.00     0.040 H 
ATOM      3  C3  <0> d           2.696   4.818   0.926  0.00  0.00    -0.061 C 
ATOM      4  C4  <0> d           1.692   4.425   2.038  0.00  0.00    -0.064 C 
ATOM      5  C5  <0> d           0.592   3.640   1.294  0.00  0.00    -0.052 C 
ATOM      6  C6  <0> d           1.235   3.094   0.007  0.00  0.00     0.034 C 
ATOM      7  H2  <0> d           0.719   3.492  -0.867  0.00  0.00     0.057 H 
ATOM      8  H6  <0> d           2.344   5.692   0.379  0.00  0.00     0.033 H 
ATOM      9  H7  <0> d           3.685   5.000   1.346  0.00  0.00     0.033 H 
ATOM     10  H8  <0> d           1.274   5.316   2.507  0.00  0.00     0.033 H 
ATOM     11  H9  <0> d           2.173   3.792   2.784  0.00  0.00     0.033 H 
ATOM     12  H10 <0> d          -0.237   4.304   1.044  0.00  0.00     0.034 H 
ATOM     13  H11 <0> d           0.236   2.816   1.912  0.00  0.00     0.034 H 
ENDROOT
BRANCH   1  14
ATOM     14  C1  <0> d           3.153   3.937  -1.402  0.00  0.00    -0.072 C 
ATOM     15  H3  <0> d           2.524   4.741  -1.784  0.00  0.00     0.028 H 
ATOM     16  H4  <0> d           4.191   4.267  -1.379  0.00  0.00     0.028 H 
ATOM     17  H5  <0> d           3.063   3.066  -2.051  0.00  0.00     0.028 H 
ENDBRANCH   1  14
BRANCH   6  18
ATOM     18  C7  <0> d           1.177   1.588  -0.001  0.00  0.00     0.177 C 
ATOM     19  O1  <0> d           2.199   0.944  -0.014  0.00  0.00    -0.648 OA
ATOM     20  O2  <0> d          -0.011   0.963   0.007  0.00  0.00    -0.648 OA
ENDBRANCH   6  18
TORSDOF 2
