REMARK  4 active torsions:
REMARK  status: ('A' for Active; 'I' for Inactive)
REMARK    1  A    between atoms: C1_1  and  N1_2 
REMARK    2  A    between atoms: N1_2  and  C2_3 
REMARK    3  A    between atoms: N1_2  and  C3_4 
REMARK    4  A    between atoms: C6_7  and  N2_10 
ROOT
ATOM      1  C3  <0> d          -0.000  -0.698  -1.214  0.00  0.00     0.029 A 
ATOM      2  C4  <0> d           0.013  -2.086  -1.222  0.00  0.00    -0.055 A 
ATOM      3  C5  <0> d           0.011  -2.770  -2.421  0.00  0.00    -0.056 A 
ATOM      4  C6  <0> d          -0.004  -2.069  -3.620  0.00  0.00     0.025 A 
ATOM      5  C7  <0> d          -0.017  -0.681  -3.613  0.00  0.00    -0.056 A 
ATOM      6  C8  <0> d          -0.021   0.003  -2.413  0.00  0.00    -0.055 A 
ATOM      7  H7  <0> d           0.025  -2.631  -0.289  0.00  0.00     0.087 H 
ATOM      8  H8  <0> d           0.022  -3.850  -2.427  0.00  0.00     0.087 H 
ATOM      9  H9  <0> d          -0.029  -0.136  -4.545  0.00  0.00     0.087 H 
ATOM     10  H10 <0> d          -0.035   1.083  -2.407  0.00  0.00     0.087 H 
ENDROOT
BRANCH   1  11
ATOM     11  N1  <0> d           0.002  -0.004   0.002  0.00  0.00    -0.390 N 
BRANCH  11  12
ATOM     12  C1  <0> d          -0.018   1.461   0.010  0.00  0.00    -0.019 C 
ATOM     13  H1  <0> d           1.005   1.838   0.002  0.00  0.00     0.056 H 
ATOM     14  H2  <0> d          -0.545   1.822  -0.873  0.00  0.00     0.056 H 
ATOM     15  H3  <0> d          -0.528   1.812   0.907  0.00  0.00     0.056 H 
ENDBRANCH  11  12
BRANCH  11  16
ATOM     16  C2  <0> d           0.024  -0.743   1.267  0.00  0.00    -0.019 C 
ATOM     17  H4  <0> d          -0.998  -0.941   1.590  0.00  0.00     0.056 H 
ATOM     18  H5  <0> d           0.550  -1.688   1.126  0.00  0.00     0.056 H 
ATOM     19  H6  <0> d           0.537  -0.151   2.025  0.00  0.00     0.056 H 
ENDBRANCH  11  16
ENDBRANCH   1  11
BRANCH   4  20
ATOM     20  N2  <0> d          -0.005  -2.763  -4.836  0.00  0.00    -0.399 N 
ATOM     21  H11 <0> d           0.005  -3.733  -4.842  0.00  0.00     0.156 HD
ATOM     22  H12 <0> d          -0.015  -2.273  -5.674  0.00  0.00     0.156 HD
ENDBRANCH   4  20
TORSDOF 4
