REMARK  2 active torsions:
REMARK  status: ('A' for Active; 'I' for Inactive)
REMARK    1  A    between atoms: C1_1  and  N1_2 
REMARK    2  A    between atoms: C2_3  and  C5_7 
REMARK       I    between atoms: C5_7  and  N3_9 
ROOT
ATOM      1  N1  <0> d          -0.741   3.109   0.047  0.00  0.00    -0.269 N 
ATOM      2  C2  <0> d          -1.059   1.782  -0.004  0.00  0.00     0.121 A 
ATOM      3  C3  <0> d           0.143   1.097  -0.035  0.00  0.00    -0.032 A 
ATOM      4  C4  <0> d           1.132   2.084  -0.008  0.00  0.00     0.024 A 
ATOM      5  N2  <0> d           0.536   3.248   0.040  0.00  0.00    -0.185 NA
ATOM      6  H4  <0> d           0.287   0.027  -0.076  0.00  0.00     0.089 H 
ATOM      7  H5  <0> d           2.199   1.916  -0.024  0.00  0.00     0.117 H 
ENDROOT
BRANCH   2   8
ATOM      8  C5  <0> d          -2.409   1.196  -0.019  0.00  0.00     0.267 C 
ATOM      9  O1  <0> d          -3.384   1.919  -0.093  0.00  0.00    -0.266 OA
ATOM     10  N3  <0> d          -2.565  -0.141   0.048  0.00  0.00    -0.365 N 
ATOM     11  H6  <0> d          -1.793  -0.713   0.181  0.00  0.00     0.159 HD
ATOM     12  H7  <0> d          -3.449  -0.531  -0.036  0.00  0.00     0.159 HD
ENDBRANCH   2   8
BRANCH   1  13
ATOM     13  C1  <0> d          -1.709   4.208   0.097  0.00  0.00     0.003 C 
ATOM     14  H1  <0> d          -1.906   4.564  -0.914  0.00  0.00     0.059 H 
ATOM     15  H2  <0> d          -2.638   3.854   0.545  0.00  0.00     0.059 H 
ATOM     16  H3  <0> d          -1.304   5.022   0.697  0.00  0.00     0.059 H 
ENDBRANCH   1  13
TORSDOF 2
