REMARK  8 active torsions:
REMARK  status: ('A' for Active; 'I' for Inactive)
REMARK    1  A    between atoms: C1_1  and  C2_2 
REMARK    2  A    between atoms: C2_2  and  C3_3 
REMARK    3  A    between atoms: C3_3  and  C4_4 
REMARK    4  A    between atoms: C4_4  and  C5_5 
REMARK    5  A    between atoms: C5_5  and  C6_6 
REMARK    6  A    between atoms: C5_5  and  C7_7 
REMARK    7  A    between atoms: C5_5  and  O1_9 
REMARK    8  A    between atoms: C7_7  and  C8_8 
ROOT
ATOM      1  C5  <0> d           0.002  -0.004   0.002  0.00  0.00     0.054 C 
ENDROOT
BRANCH   1   2
ATOM      2  C4  <0> d           0.742  -0.511   1.242  0.00  0.00    -0.037 C 
ATOM      3  H8  <0> d           0.835  -1.596   1.191  0.00  0.00     0.037 H 
ATOM      4  H9  <0> d           1.735  -0.063   1.280  0.00  0.00     0.037 H 
BRANCH   2   5
ATOM      5  C3  <0> d          -0.042  -0.124   2.497  0.00  0.00    -0.063 C 
ATOM      6  H6  <0> d          -0.134   0.961   2.548  0.00  0.00     0.033 H 
ATOM      7  H7  <0> d          -1.034  -0.572   2.458  0.00  0.00     0.033 H 
BRANCH   5   8
ATOM      8  C2  <0> d           0.698  -0.630   3.737  0.00  0.00    -0.068 C 
ATOM      9  H4  <0> d           0.791  -1.715   3.686  0.00  0.00     0.032 H 
ATOM     10  H5  <0> d           1.691  -0.182   3.776  0.00  0.00     0.032 H 
BRANCH   8  11
ATOM     11  C1  <0> d          -0.085  -0.243   4.992  0.00  0.00    -0.077 C 
ATOM     12  H1  <0> d           0.442  -0.604   5.875  0.00  0.00     0.027 H 
ATOM     13  H2  <0> d          -0.178   0.842   5.043  0.00  0.00     0.027 H 
ATOM     14  H3  <0> d          -1.078  -0.691   4.954  0.00  0.00     0.027 H 
ENDBRANCH   8  11
ENDBRANCH   5   8
ENDBRANCH   2   5
ENDBRANCH   1   2
BRANCH   1  15
ATOM     15  C6  <0> d          -1.433  -0.534   0.013  0.00  0.00    -0.048 C 
ATOM     16  H10 <0> d          -1.960  -0.173  -0.870  0.00  0.00     0.031 H 
ATOM     17  H11 <0> d          -1.419  -1.623   0.007  0.00  0.00     0.031 H 
ATOM     18  H12 <0> d          -1.944  -0.182   0.910  0.00  0.00     0.031 H 
ENDBRANCH   1  15
BRANCH   1  19
ATOM     19  C7  <0> d           0.718  -0.497  -1.257  0.00  0.00    -0.040 C 
ATOM     20  H13 <0> d           1.741  -0.120  -1.264  0.00  0.00     0.036 H 
ATOM     21  H14 <0> d           0.733  -1.587  -1.263  0.00  0.00     0.036 H 
BRANCH  19  22
ATOM     22  C8  <0> d          -0.022   0.009  -2.496  0.00  0.00    -0.074 C 
ATOM     23  H15 <0> d           0.488  -0.342  -3.393  0.00  0.00     0.027 H 
ATOM     24  H16 <0> d          -1.044  -0.368  -2.489  0.00  0.00     0.027 H 
ATOM     25  H17 <0> d          -0.037   1.099  -2.490  0.00  0.00     0.027 H 
ENDBRANCH  19  22
ENDBRANCH   1  19
BRANCH   1  26
ATOM     26  O1  <0> d          -0.017   1.425   0.010  0.00  0.00    -0.390 OA
ATOM     27  H18 <0> d           0.861   1.830   0.004  0.00  0.00     0.210 HD
ENDBRANCH   1  26
TORSDOF 8
