REMARK  1 active torsions:
REMARK  status: ('A' for Active; 'I' for Inactive)
REMARK    1  A    between atoms: C3_3  and  C6_8 
ROOT
ATOM      1  C1  <0> d          -0.016   1.361   0.009  0.00  0.00    -0.055 A 
ATOM      2  C2  <0> d           0.002  -0.004   0.002  0.00  0.00    -0.058 A 
ATOM      3  C3  <0> d           1.228  -0.654  -0.013  0.00  0.00     0.082 A 
ATOM      4  S1  <0> d           2.379   0.711  -0.017  0.00  0.00    -0.072 SA
ATOM      5  C4  <0> d           1.192   2.045   0.002  0.00  0.00     0.086 A 
ATOM      6  C5  <0> d           1.427   3.457   0.007  0.00  0.00     0.107 C 
ATOM      7  N1  <0> d           1.613   4.578   0.011  0.00  0.00    -0.191 NA
ATOM      8  H1  <0> d          -0.953   1.899   0.017  0.00  0.00     0.086 H 
ATOM      9  H2  <0> d          -0.919  -0.567   0.008  0.00  0.00     0.086 H 
ENDROOT
BRANCH   3  10
ATOM     10  C6  <0> d           1.508  -2.095  -0.024  0.00  0.00     0.216 C 
ATOM     11  O1  <0> d           0.590  -2.893  -0.021  0.00  0.00    -0.643 OA
ATOM     12  O2  <0> d           2.783  -2.535  -0.039  0.00  0.00    -0.643 OA
ENDBRANCH   3  10
TORSDOF 1
