REMARK  3 active torsions:
REMARK  status: ('A' for Active; 'I' for Inactive)
REMARK    1  A    between atoms: C1_1  and  C2_2 
REMARK    2  A    between atoms: C3_3  and  C6_7 
REMARK    3  A    between atoms: C6_7  and  C7_8 
ROOT
ATOM      1  C2  <0> d           1.773  -0.232  -0.016  0.00  0.00    -0.015 A 
ATOM      2  C3  <0> d           2.220   1.048  -0.013  0.00  0.00    -0.035 A 
ATOM      3  C4  <0> d           1.300   2.079   0.001  0.00  0.00    -0.069 A 
ATOM      4  C5  <0> d          -0.022   1.781   0.012  0.00  0.00    -0.044 A 
ATOM      5  S1  <0> d           0.002  -0.004   0.002  0.00  0.00    -0.106 SA
ATOM      6  H4  <0> d           1.630   3.108   0.003  0.00  0.00     0.085 H 
ATOM      7  H5  <0> d          -0.870   2.450   0.020  0.00  0.00     0.095 H 
ENDROOT
BRANCH   2   8
ATOM      8  C6  <0> d           3.698   1.341  -0.026  0.00  0.00     0.040 C 
ATOM      9  H6  <0> d           3.877   2.323   0.411  0.00  0.00     0.056 H 
ATOM     10  H7  <0> d           4.224   0.583   0.554  0.00  0.00     0.056 H 
BRANCH   8  11
ATOM     11  C7  <0> d           4.201   1.325  -1.447  0.00  0.00     0.176 C 
ATOM     12  O1  <0> d           3.437   1.099  -2.356  0.00  0.00    -0.648 OA
ATOM     13  O2  <0> d           5.497   1.563  -1.703  0.00  0.00    -0.648 OA
ENDBRANCH   8  11
ENDBRANCH   2   8
BRANCH   1  14
ATOM     14  C1  <0> d           2.564  -1.514  -0.031  0.00  0.00    -0.045 C 
ATOM     15  H1  <0> d           1.881  -2.363  -0.029  0.00  0.00     0.034 H 
ATOM     16  H2  <0> d           3.184  -1.548  -0.927  0.00  0.00     0.034 H 
ATOM     17  H3  <0> d           3.201  -1.558   0.853  0.00  0.00     0.034 H 
ENDBRANCH   1  14
TORSDOF 3
