REMARK  7 active torsions:
REMARK  status: ('A' for Active; 'I' for Inactive)
REMARK    1  A    between atoms: C1_1  and  O1_2 
REMARK    2  A    between atoms: O1_2  and  C2_3 
REMARK    3  A    between atoms: C2_3  and  C3_4 
REMARK    4  A    between atoms: C3_4  and  O2_5 
REMARK    5  A    between atoms: O2_5  and  C4_6 
REMARK    6  A    between atoms: C4_6  and  C5_7 
REMARK    7  A    between atoms: C5_7  and  C6_8 
ROOT
ATOM      1  C3  <0> d           1.280   2.024   0.001  0.00  0.00     0.039 C 
ATOM      2  H6  <0> d           1.822   1.711  -0.904  0.00  0.00     0.077 H 
ATOM      3  H7  <0> d           1.839   1.702   0.892  0.00  0.00     0.077 H 
ENDROOT
BRANCH   1   4
ATOM      4  C2  <0> d           1.139   3.547   0.010  0.00  0.00     0.039 C 
ATOM      5  H4  <0> d           0.504   3.862  -0.832  0.00  0.00     0.077 H 
ATOM      6  H5  <0> d           2.132   4.008  -0.087  0.00  0.00     0.077 H 
BRANCH   4   7
ATOM      7  O1  <0> d           0.539   3.962   1.239  0.00  0.00    -0.394 OA
BRANCH   7   8
ATOM      8  C1  <0> d           0.361   5.376   1.351  0.00  0.00     0.004 C 
ATOM      9  H1  <0> d          -0.103   5.611   2.320  0.00  0.00     0.066 H 
ATOM     10  H2  <0> d          -0.289   5.729   0.537  0.00  0.00     0.066 H 
ATOM     11  H3  <0> d           1.339   5.875   1.282  0.00  0.00     0.066 H 
ENDBRANCH   7   8
ENDBRANCH   4   7
ENDBRANCH   1   4
BRANCH   1  12
ATOM     12  O2  <0> d          -0.017   1.425   0.010  0.00  0.00    -0.389 OA
BRANCH  12  13
ATOM     13  C4  <0> d           0.002  -0.004   0.002  0.00  0.00     0.029 C 
ATOM     14  H8  <0> d           0.517  -0.359  -0.903  0.00  0.00     0.075 H 
ATOM     15  H9  <0> d           0.534  -0.368   0.893  0.00  0.00     0.075 H 
BRANCH  13  16
ATOM     16  C5  <0> d          -1.433  -0.534   0.013  0.00  0.00     0.035 C 
ATOM     17  H10 <0> d          -1.948  -0.179   0.918  0.00  0.00     0.052 H 
ATOM     18  H11 <0> d          -1.965  -0.169  -0.878  0.00  0.00     0.052 H 
BRANCH  16  19
ATOM     19  C6  <0> d          -1.413  -2.041   0.005  0.00  0.00     0.174 C 
ATOM     20  O3  <0> d          -0.358  -2.630  -0.009  0.00  0.00    -0.648 OA
ATOM     21  O4  <0> d          -2.566  -2.727   0.012  0.00  0.00    -0.648 OA
ENDBRANCH  16  19
ENDBRANCH  13  16
ENDBRANCH  12  13
ENDBRANCH   1  12
TORSDOF 7
