REMARK  0 active torsions:
REMARK  status: ('A' for Active; 'I' for Inactive)
ROOT
ATOM      1  C1  <0> d          -0.017   1.395   0.010  0.00  0.00    -0.082 A 
ATOM      2  C2  <0> d           0.002  -0.004   0.002  0.00  0.00    -0.082 A 
ATOM      3  C3  <0> d          -1.139  -0.736   0.009  0.00  0.00    -0.071 A 
ATOM      4  C4  <0> d          -2.388  -0.076   0.024  0.00  0.00    -0.009 A 
ATOM      5  C5  <0> d          -2.408   1.401   0.033  0.00  0.00    -0.009 A 
ATOM      6  C6  <0> d          -1.177   2.095   0.030  0.00  0.00    -0.071 A 
ATOM      7  C7  <0> d          -3.735   1.762   0.047  0.00  0.00    -0.013 A 
ATOM      8  N1  <0> d          -4.489   0.634   0.047  0.00  0.00    -0.374 N 
ATOM      9  C8  <0> d          -3.705  -0.472   0.034  0.00  0.00    -0.013 A 
ATOM     10  H1  <0> d           0.920   1.932   0.004  0.00  0.00     0.083 H 
ATOM     11  H2  <0> d           0.953  -0.516  -0.010  0.00  0.00     0.083 H 
ATOM     12  H3  <0> d          -1.094  -1.815   0.002  0.00  0.00     0.084 H 
ATOM     13  H4  <0> d          -1.161   3.175   0.036  0.00  0.00     0.084 H 
ATOM     14  H5  <0> d          -4.114   2.773   0.056  0.00  0.00     0.112 H 
ATOM     15  H6  <0> d          -5.459   0.621   0.056  0.00  0.00     0.164 HD
ATOM     16  H7  <0> d          -4.056  -1.493   0.031  0.00  0.00     0.112 H 
ENDROOT
TORSDOF 0
