REMARK  0 active torsions:
REMARK  status: ('A' for Active; 'I' for Inactive)
ROOT
ATOM      1  C1  <0> d           1.576   4.153   0.009  0.00  0.00    -0.068 A 
ATOM      2  C2  <0> d           2.915   3.880  -0.004  0.00  0.00    -0.045 A 
ATOM      3  C3  <0> d           3.367   2.565  -0.015  0.00  0.00     0.118 A 
ATOM      4  C4  <0> d           2.472   1.515  -0.013  0.00  0.00    -0.019 A 
ATOM      5  C5  <0> d           1.105   1.772   0.001  0.00  0.00     0.045 A 
ATOM      6  C6  <0> d           0.654   3.105   0.012  0.00  0.00    -0.008 A 
ATOM      7  C7  <0> d          -0.809   3.037   0.025  0.00  0.00    -0.056 A 
ATOM      8  C8  <0> d          -1.142   1.737   0.016  0.00  0.00    -0.022 A 
ATOM      9  N1  <0> d          -0.011   0.966   0.007  0.00  0.00    -0.365 N 
ATOM     10  H1  <0> d           0.002  -0.004   0.002  0.00  0.00     0.165 HD
ATOM     11  F1  <0> d           4.694   2.313  -0.028  0.00  0.00    -0.206 F 
ATOM     12  H2  <0> d           1.233   5.177   0.017  0.00  0.00     0.085 H 
ATOM     13  H3  <0> d           3.628   4.691  -0.006  0.00  0.00     0.088 H 
ATOM     14  H4  <0> d           2.831   0.496  -0.021  0.00  0.00     0.091 H 
ATOM     15  H5  <0> d          -1.491   3.875   0.036  0.00  0.00     0.086 H 
ATOM     16  H6  <0> d          -2.153   1.356   0.018  0.00  0.00     0.111 H 
ENDROOT
TORSDOF 0
