REMARK  5 active torsions:
REMARK  status: ('A' for Active; 'I' for Inactive)
REMARK    1  A    between atoms: C1_1  and  C2_2 
REMARK    2  A    between atoms: C2_2  and  C3_3 
REMARK    3  A    between atoms: C2_2  and  C4_4 
REMARK    4  A    between atoms: C2_2  and  N1_5 
REMARK    5  A    between atoms: N1_5  and  C5_6 
ROOT
ATOM      1  C2  <0> d          -1.344   5.955  -0.064  0.00  0.00     0.019 C 
ENDROOT
BRANCH   1   2
ATOM      2  C1  <0> d          -2.094   5.794   1.260  0.00  0.00    -0.054 C 
ATOM      3  H1  <0> d          -1.512   6.243   2.064  0.00  0.00     0.030 H 
ATOM      4  H2  <0> d          -3.062   6.289   1.191  0.00  0.00     0.030 H 
ATOM      5  H3  <0> d          -2.242   4.734   1.467  0.00  0.00     0.030 H 
ENDBRANCH   1   2
BRANCH   1   6
ATOM      6  C3  <0> d          -0.946   7.421  -0.250  0.00  0.00    -0.054 C 
ATOM      7  H4  <0> d          -0.412   7.536  -1.193  0.00  0.00     0.030 H 
ATOM      8  H5  <0> d          -1.842   8.041  -0.262  0.00  0.00     0.030 H 
ATOM      9  H6  <0> d          -0.301   7.729   0.573  0.00  0.00     0.030 H 
ENDBRANCH   1   6
BRANCH   1  10
ATOM     10  C4  <0> d          -2.249   5.522  -1.219  0.00  0.00    -0.054 C 
ATOM     11  H7  <0> d          -2.427   4.448  -1.158  0.00  0.00     0.030 H 
ATOM     12  H8  <0> d          -3.199   6.052  -1.155  0.00  0.00     0.030 H 
ATOM     13  H9  <0> d          -1.766   5.757  -2.167  0.00  0.00     0.030 H 
ENDBRANCH   1  10
BRANCH   1  14
ATOM     14  N1  <0> d          -0.140   5.121  -0.048  0.00  0.00    -0.382 N 
ATOM     15  H10 <0> d           0.737   5.534  -0.071  0.00  0.00     0.160 HD
BRANCH  14  16
ATOM     16  C5  <0> d          -0.255   3.729  -0.000  0.00  0.00     0.028 A 
ATOM     17  C10 <0> d          -1.500   3.139   0.171  0.00  0.00    -0.058 A 
ATOM     18  C9  <0> d          -1.611   1.763   0.212  0.00  0.00    -0.081 A 
ATOM     19  H15 <0> d          -2.382   3.756   0.268  0.00  0.00     0.086 H 
ATOM     20  C8  <0> d          -0.482   0.973   0.093  0.00  0.00    -0.083 A 
ATOM     21  H14 <0> d          -2.580   1.304   0.340  0.00  0.00     0.083 H 
ATOM     22  C7  <0> d           0.759   1.558  -0.077  0.00  0.00    -0.081 A 
ATOM     23  H13 <0> d          -0.571  -0.102   0.130  0.00  0.00     0.083 H 
ATOM     24  C6  <0> d           0.877   2.933  -0.125  0.00  0.00    -0.058 A 
ATOM     25  H12 <0> d           1.638   0.938  -0.174  0.00  0.00     0.083 H 
ATOM     26  H11 <0> d           1.847   3.388  -0.258  0.00  0.00     0.086 H 
ENDBRANCH  14  16
ENDBRANCH   1  14
TORSDOF 5
