REMARK  0 active torsions:
REMARK  status: ('A' for Active; 'I' for Inactive)
ROOT
ATOM      1  C1  <0> d          -0.019   1.528   0.010  0.00  0.00     0.021 C 
ATOM      2  C2  <0> d           1.449   1.910  -0.002  0.00  0.00     0.218 C 
ATOM      3  O1  <0> d           1.881   3.013   0.258  0.00  0.00    -0.274 OA
ATOM      4  N1  <0> d           2.201   0.847  -0.342  0.00  0.00    -0.360 N 
ATOM      5  C3  <0> d           1.369  -0.338  -0.600  0.00  0.00     0.006 C 
ATOM      6  C4  <0> d           0.002  -0.004   0.002  0.00  0.00     0.027 C 
ATOM      7  C5  <0> d          -0.357  -0.698   1.312  0.00  0.00     0.030 C 
ATOM      8  O2  <0> d          -1.681  -0.808   0.744  0.00  0.00    -0.389 OA
ATOM      9  C6  <0> d          -1.206  -0.699  -0.617  0.00  0.00     0.030 C 
ATOM     10  H1  <0> d          -0.503   1.899   0.913  0.00  0.00     0.048 H 
ATOM     11  H2  <0> d          -0.521   1.909  -0.879  0.00  0.00     0.048 H 
ATOM     12  H3  <0> d           3.169   0.861  -0.408  0.00  0.00     0.162 HD
ATOM     13  H4  <0> d           1.278  -0.510  -1.672  0.00  0.00     0.065 H 
ATOM     14  H5  <0> d           1.795  -1.214  -0.110  0.00  0.00     0.065 H 
ATOM     15  H6  <0> d           0.143  -1.655   1.457  0.00  0.00     0.075 H 
ATOM     16  H7  <0> d          -0.303  -0.049   2.186  0.00  0.00     0.075 H 
ATOM     17  H8  <0> d          -1.815  -0.051  -1.247  0.00  0.00     0.075 H 
ATOM     18  H9  <0> d          -0.975  -1.657  -1.083  0.00  0.00     0.075 H 
ENDROOT
TORSDOF 0
