REMARK  3 active torsions:
REMARK  status: ('A' for Active; 'I' for Inactive)
REMARK    1  A    between atoms: C1_1  and  C2_2 
REMARK    2  A    between atoms: C5_6  and  C9_12 
REMARK    3  A    between atoms: C6_8  and  C8_11 
ROOT
ATOM      1  C2  <0> d           0.002  -0.004   0.002  0.00  0.00    -0.057 C 
ATOM      2  H1  <0> d          -1.020  -0.381   0.010  0.00  0.00     0.039 H 
ATOM      3  C3  <0> d           0.718  -0.497  -1.257  0.00  0.00    -0.062 C 
ATOM      4  C4  <0> d           0.739  -2.027  -1.265  0.00  0.00    -0.061 C 
ATOM      5  C5  <0> d           1.479  -2.534  -0.026  0.00  0.00    -0.054 C 
ATOM      6  H2  <0> d           2.502  -2.157  -0.033  0.00  0.00     0.040 H 
ATOM      7  C6  <0> d           0.763  -2.041   1.233  0.00  0.00    -0.054 C 
ATOM      8  H3  <0> d           1.290  -2.402   2.116  0.00  0.00     0.040 H 
ATOM      9  C7  <0> d           0.742  -0.511   1.242  0.00  0.00    -0.059 C 
ATOM     10  H7  <0> d           0.191  -0.136  -2.140  0.00  0.00     0.033 H 
ATOM     11  H8  <0> d           1.741  -0.120  -1.264  0.00  0.00     0.033 H 
ATOM     12  H9  <0> d          -0.284  -2.405  -1.258  0.00  0.00     0.033 H 
ATOM     13  H10 <0> d           1.249  -2.379  -2.162  0.00  0.00     0.033 H 
ATOM     14  H11 <0> d           1.765  -0.134   1.234  0.00  0.00     0.034 H 
ATOM     15  H12 <0> d           0.232  -0.159   2.138  0.00  0.00     0.034 H 
ENDROOT
BRANCH   1  16
ATOM     16  C1  <0> d          -0.019   1.526   0.010  0.00  0.00    -0.073 C 
ATOM     17  H4  <0> d           1.004   1.903   0.003  0.00  0.00     0.028 H 
ATOM     18  H5  <0> d          -0.546   1.887  -0.873  0.00  0.00     0.028 H 
ATOM     19  H6  <0> d          -0.529   1.877   0.907  0.00  0.00     0.028 H 
ENDBRANCH   1  16
BRANCH   7  20
ATOM     20  C8  <0> d          -0.673  -2.570   1.244  0.00  0.00    -0.073 C 
ATOM     21  H13 <0> d          -0.658  -3.660   1.238  0.00  0.00     0.028 H 
ATOM     22  H14 <0> d          -1.183  -2.219   2.141  0.00  0.00     0.028 H 
ATOM     23  H15 <0> d          -1.200  -2.209   0.361  0.00  0.00     0.028 H 
ENDBRANCH   7  20
BRANCH   5  24
ATOM     24  C9  <0> d           1.500  -4.064  -0.034  0.00  0.00    -0.073 C 
ATOM     25  H16 <0> d           2.010  -4.415  -0.931  0.00  0.00     0.028 H 
ATOM     26  H17 <0> d           2.027  -4.425   0.849  0.00  0.00     0.028 H 
ATOM     27  H18 <0> d           0.477  -4.441  -0.026  0.00  0.00     0.028 H 
ENDBRANCH   5  24
TORSDOF 3
