REMARK  2 active torsions:
REMARK  status: ('A' for Active; 'I' for Inactive)
REMARK    1  A    between atoms: C1_1  and  C2_2 
REMARK    2  A    between atoms: C2_2  and  C3_3 
ROOT
ATOM      1  C3  <0> d          -1.248   2.118   0.019  0.00  0.00     0.020 C 
ATOM      2  C4  <0> d          -1.252   2.779  -1.419  0.00  0.00    -0.051 C 
ATOM      3  C5  <0> d          -0.050   3.751  -1.398  0.00  0.00    -0.060 C 
ATOM      4  C6  <0> d           0.568   3.575   0.024  0.00  0.00    -0.047 C 
ATOM      5  H1  <0> d           1.227   4.375   0.362  0.00  0.00     0.040 H 
ATOM      6  C7  <0> d          -0.716   3.315   0.890  0.00  0.00    -0.048 C 
ATOM      7  C8  <0> d           1.183   2.143   0.002  0.00  0.00    -0.005 C 
ATOM      8  C9  <0> d          -0.014   1.203   0.009  0.00  0.00     0.136 C 
ATOM      9  O1  <0> d           0.002  -0.004   0.002  0.00  0.00    -0.297 OA
ATOM     10  H7  <0> d          -2.180   3.326  -1.581  0.00  0.00     0.034 H 
ATOM     11  H8  <0> d          -1.116   2.025  -2.195  0.00  0.00     0.034 H 
ATOM     12  H9  <0> d          -0.388   4.778  -1.542  0.00  0.00     0.033 H 
ATOM     13  H10 <0> d           0.676   3.480  -2.164  0.00  0.00     0.033 H 
ATOM     14  H11 <0> d          -0.469   3.009   1.906  0.00  0.00     0.035 H 
ATOM     15  H12 <0> d          -1.398   4.164   0.877  0.00  0.00     0.035 H 
ATOM     16  H13 <0> d           1.765   2.018   0.806  0.00  0.00     0.044 H 
ATOM     17  H14 <0> d           1.775   1.996  -0.901  0.00  0.00     0.044 H 
ENDROOT
BRANCH   1  18
ATOM     18  C2  <0> d          -2.557   1.466   0.467  0.00  0.00    -0.055 C 
ATOM     19  H5  <0> d          -2.442   1.077   1.478  0.00  0.00     0.034 H 
ATOM     20  H6  <0> d          -3.356   2.208   0.452  0.00  0.00     0.034 H 
BRANCH  18  21
ATOM     21  C1  <0> d          -2.908   0.320  -0.484  0.00  0.00    -0.075 C 
ATOM     22  H2  <0> d          -3.024   0.709  -1.496  0.00  0.00     0.027 H 
ATOM     23  H3  <0> d          -2.110  -0.422  -0.469  0.00  0.00     0.027 H 
ATOM     24  H4  <0> d          -3.841  -0.144  -0.165  0.00  0.00     0.027 H 
ENDBRANCH  18  21
ENDBRANCH   1  18
TORSDOF 2
