REMARK  1 active torsions:
REMARK  status: ('A' for Active; 'I' for Inactive)
REMARK    1  A    between atoms: C5_6  and  C6_7 
ROOT
ATOM      1  C1  <0> d          -0.017   1.393   0.010  0.00  0.00    -0.052 A 
ATOM      2  C2  <0> d           1.180   2.079   0.002  0.00  0.00     0.003 A 
ATOM      3  N1  <0> d           2.331   1.433  -0.013  0.00  0.00    -0.273 NA
ATOM      4  C3  <0> d           2.392   0.115  -0.020  0.00  0.00     0.003 A 
ATOM      5  C4  <0> d           1.243  -0.647  -0.013  0.00  0.00    -0.052 A 
ATOM      6  C5  <0> d           0.002  -0.004   0.002  0.00  0.00     0.016 A 
ATOM      7  H2  <0> d          -0.955   1.929   0.026  0.00  0.00     0.087 H 
ATOM      8  H3  <0> d           1.176   3.159   0.007  0.00  0.00     0.114 H 
ATOM      9  H4  <0> d           3.356  -0.373  -0.032  0.00  0.00     0.114 H 
ATOM     10  H5  <0> d           1.301  -1.726  -0.020  0.00  0.00     0.087 H 
ENDROOT
BRANCH   6  11
ATOM     11  C6  <0> d          -1.261  -0.783   0.010  0.00  0.00     0.180 A 
ATOM     12  N4  <0> d          -1.352  -2.095   0.004  0.00  0.00    -0.153 NA
ATOM     13  N3  <0> d          -2.721  -2.405   0.019  0.00  0.00    -0.270 N 
ATOM     14  C7  <0> d          -3.379  -1.231   0.025  0.00  0.00     0.082 A 
ATOM     15  H1  <0> d          -3.116  -3.291   0.021  0.00  0.00     0.190 HD
ATOM     16  N2  <0> d          -2.497  -0.267   0.020  0.00  0.00    -0.221 NA
ATOM     17  H6  <0> d          -4.452  -1.107   0.033  0.00  0.00     0.145 H 
ENDBRANCH   6  11
TORSDOF 1
