REMARK  4 active torsions:
REMARK  status: ('A' for Active; 'I' for Inactive)
REMARK    1  A    between atoms: C1_1  and  C2_2 
REMARK    2  A    between atoms: C2_2  and  C3_3 
REMARK    3  A    between atoms: C3_3  and  N1_4 
REMARK    4  A    between atoms: C4_5  and  C7_9 
ROOT
ATOM      1  N1  <0> d          -0.755   3.484   1.277  0.00  0.00    -0.274 N 
ATOM      2  C4  <0> d          -1.716   4.268   0.745  0.00  0.00     0.036 A 
ATOM      3  C5  <0> d          -1.363   5.556   0.961  0.00  0.00    -0.041 A 
ATOM      4  C6  <0> d          -0.146   5.560   1.649  0.00  0.00     0.024 A 
ATOM      5  N2  <0> d           0.217   4.318   1.844  0.00  0.00    -0.185 NA
ATOM      6  H8  <0> d          -1.924   6.428   0.657  0.00  0.00     0.088 H 
ATOM      7  H9  <0> d           0.399   6.437   1.969  0.00  0.00     0.117 H 
ENDROOT
BRANCH   1   8
ATOM      8  C3  <0> d          -0.735   2.019   1.269  0.00  0.00     0.017 C 
ATOM      9  H6  <0> d          -1.757   1.642   1.277  0.00  0.00     0.067 H 
ATOM     10  H7  <0> d          -0.208   1.658   2.152  0.00  0.00     0.067 H 
BRANCH   8  11
ATOM     11  C2  <0> d          -0.019   1.526   0.010  0.00  0.00    -0.052 C 
ATOM     12  H4  <0> d           1.004   1.903   0.003  0.00  0.00     0.035 H 
ATOM     13  H5  <0> d          -0.546   1.887  -0.873  0.00  0.00     0.035 H 
BRANCH  11  14
ATOM     14  C1  <0> d           0.002  -0.004   0.002  0.00  0.00    -0.075 C 
ATOM     15  H1  <0> d           0.512  -0.356  -0.895  0.00  0.00     0.027 H 
ATOM     16  H2  <0> d           0.529  -0.365   0.885  0.00  0.00     0.027 H 
ATOM     17  H3  <0> d          -1.020  -0.381   0.010  0.00  0.00     0.027 H 
ENDBRANCH  11  14
ENDBRANCH   8  11
ENDBRANCH   1   8
BRANCH   2  18
ATOM     18  C7  <0> d          -2.958   3.793   0.036  0.00  0.00    -0.012 A 
ATOM     19  C9  <0> d          -4.234   4.617   0.220  0.00  0.00    -0.056 A 
ATOM     20  C8  <0> d          -3.487   4.652  -1.114  0.00  0.00    -0.056 A 
ATOM     21  H13 <0> d          -5.181   4.077   0.253  0.00  0.00     0.034 H 
ATOM     22  H14 <0> d          -4.176   5.501   0.854  0.00  0.00     0.034 H 
ATOM     23  H11 <0> d          -2.936   5.561  -1.358  0.00  0.00     0.034 H 
ATOM     24  H12 <0> d          -3.941   4.136  -1.960  0.00  0.00     0.034 H 
ATOM     25  H10 <0> d          -3.065   2.712  -0.052  0.00  0.00     0.049 H 
ENDBRANCH   2  18
TORSDOF 4
