REMARK  0 active torsions:
REMARK  status: ('A' for Active; 'I' for Inactive)
ROOT
ATOM      1  C1  <0> d           3.453   2.370  -0.018  0.00  0.00    -0.061 A 
ATOM      2  C2  <0> d           2.470   1.410  -0.014  0.00  0.00    -0.056 A 
ATOM      3  C3  <0> d           1.119   1.777   0.001  0.00  0.00     0.034 A 
ATOM      4  C4  <0> d           0.782   3.125   0.011  0.00  0.00    -0.029 A 
ATOM      5  C5  <0> d           1.761   4.093   0.007  0.00  0.00    -0.055 A 
ATOM      6  C6  <0> d           3.109   3.725  -0.007  0.00  0.00     0.045 A 
ATOM      7  C7  <0> d           4.131   4.728  -0.011  0.00  0.00     0.099 C 
ATOM      8  N1  <0> d           4.942   5.524  -0.013  0.00  0.00    -0.191 NA
ATOM      9  C8  <0> d          -0.726   3.242   0.026  0.00  0.00    -0.024 A 
ATOM     10  C9  <0> d          -1.224   1.788   0.017  0.00  0.00    -0.004 A 
ATOM     11  N2  <0> d          -0.011   0.966   0.007  0.00  0.00    -0.389 N 
ATOM     12  H1  <0> d           4.492   2.077  -0.029  0.00  0.00     0.085 H 
ATOM     13  H2  <0> d           2.741   0.365  -0.022  0.00  0.00     0.087 H 
ATOM     14  H3  <0> d           1.487   5.138   0.015  0.00  0.00     0.086 H 
ATOM     15  H4  <0> d          -1.043   3.779   0.933  0.00  0.00     0.042 H 
ATOM     16  H5  <0> d          -1.060   3.796  -0.863  0.00  0.00     0.042 H 
ATOM     17  H6  <0> d          -1.831   1.602   0.915  0.00  0.00     0.064 H 
ATOM     18  H7  <0> d          -1.836   1.615  -0.881  0.00  0.00     0.064 H 
ATOM     19  H8  <0> d          -0.090  -0.131   0.006  0.00  0.00     0.159 HD
ENDROOT
TORSDOF 0
