REMARK  8 active torsions:
REMARK  status: ('A' for Active; 'I' for Inactive)
REMARK    1  A    between atoms: C1_1  and  C2_2 
REMARK    2  A    between atoms: C2_2  and  C3_4 
REMARK    3  A    between atoms: C2_2  and  O1_10 
REMARK    4  A    between atoms: C3_4  and  C4_5 
REMARK    5  A    between atoms: C4_5  and  C5_6 
REMARK    6  A    between atoms: C5_6  and  C6_7 
REMARK    7  A    between atoms: C6_7  and  C7_8 
REMARK    8  A    between atoms: C6_7  and  C8_9 
ROOT
ATOM      1  C4  <0> d           2.187   1.018   1.151  0.00  0.00     0.010 C 
ATOM      2  H7  <0> d           1.810   1.119   2.158  0.00  0.00     0.060 H 
ENDROOT
BRANCH   1   3
ATOM      3  C3  <0> d           1.423   1.615  -0.003  0.00  0.00    -0.028 C 
ATOM      4  H5  <0> d           1.905   1.339  -0.940  0.00  0.00     0.038 H 
ATOM      5  H6  <0> d           1.410   2.701   0.093  0.00  0.00     0.038 H 
BRANCH   3   6
ATOM      6  C2  <0> d          -0.013   1.086   0.008  0.00  0.00     0.033 C 
ATOM      7  H1  <0> d           0.002  -0.004   0.002  0.00  0.00     0.082 H 
BRANCH   6   8
ATOM      8  C1  <0> d          -0.753   1.593  -1.232  0.00  0.00    -0.052 C 
ATOM      9  H2  <0> d          -0.242   1.241  -2.128  0.00  0.00     0.030 H 
ATOM     10  H3  <0> d          -1.775   1.215  -1.224  0.00  0.00     0.030 H 
ATOM     11  H4  <0> d          -0.767   2.683  -1.226  0.00  0.00     0.030 H 
ENDBRANCH   6   8
BRANCH   6  12
ATOM     12  O1  <0> d          -0.682   1.547   1.184  0.00  0.00    -0.396 OA
ATOM     13  H14 <0> d          -0.732   2.510   1.256  0.00  0.00     0.210 HD
ENDBRANCH   6  12
ENDBRANCH   3   6
ENDBRANCH   1   3
BRANCH   1  14
ATOM     14  C5  <0> d           3.306   0.379   0.932  0.00  0.00    -0.166 C 
BRANCH  14  15
ATOM     15  C6  <0> d           4.425  -0.260   0.714  0.00  0.00     0.022 C 
BRANCH  15  16
ATOM     16  C7  <0> d           4.406  -1.744   0.451  0.00  0.00    -0.058 C 
ATOM     17  H8  <0> d           3.808  -1.948  -0.438  0.00  0.00     0.029 H 
ATOM     18  H9  <0> d           5.425  -2.098   0.292  0.00  0.00     0.029 H 
ATOM     19  H10 <0> d           3.971  -2.259   1.307  0.00  0.00     0.029 H 
ENDBRANCH  15  16
BRANCH  15  20
ATOM     20  C8  <0> d           5.734   0.486   0.725  0.00  0.00    -0.058 C 
ATOM     21  H11 <0> d           6.143   0.487   1.735  0.00  0.00     0.029 H 
ATOM     22  H12 <0> d           6.436  -0.001   0.048  0.00  0.00     0.029 H 
ATOM     23  H13 <0> d           5.569   1.514   0.399  0.00  0.00     0.029 H 
ENDBRANCH  15  20
ENDBRANCH  14  15
ENDBRANCH   1  14
TORSDOF 8
