REMARK  9 active torsions:
REMARK  status: ('A' for Active; 'I' for Inactive)
REMARK    1  A    between atoms: C1_1  and  C2_2 
REMARK    2  A    between atoms: C2_2  and  C3_3 
REMARK    3  A    between atoms: C3_3  and  C4_4 
REMARK    4  A    between atoms: C4_4  and  C5_5 
REMARK    5  A    between atoms: C6_6  and  C7_7 
REMARK    6  A    between atoms: C7_7  and  C8_8 
REMARK    7  A    between atoms: C8_8  and  C9_9 
REMARK    8  A    between atoms: C9_9  and  C10_10 
REMARK    9  A    between atoms: C10_10  and  O1_11 
ROOT
ATOM      1  C5  <0> d           4.795   6.359  -0.010  0.00  0.00    -0.107 C 
ATOM      2  C6  <0> d           3.729   5.867  -0.002  0.00  0.00    -0.107 C 
ENDROOT
BRANCH   2   3
ATOM      3  C7  <0> d           2.393   5.250   0.007  0.00  0.00    -0.009 C 
ATOM      4  H10 <0> d           1.839   5.569  -0.876  0.00  0.00     0.051 H 
ATOM      5  H11 <0> d           1.856   5.559   0.904  0.00  0.00     0.051 H 
BRANCH   3   6
ATOM      6  C8  <0> d           2.534   3.726  -0.002  0.00  0.00    -0.054 C 
ATOM      7  H12 <0> d           3.088   3.407   0.881  0.00  0.00     0.034 H 
ATOM      8  H13 <0> d           3.071   3.417  -0.899  0.00  0.00     0.034 H 
BRANCH   6   9
ATOM      9  C9  <0> d           1.145   3.085   0.008  0.00  0.00    -0.045 C 
ATOM     10  H14 <0> d           0.591   3.404  -0.875  0.00  0.00     0.036 H 
ATOM     11  H15 <0> d           0.608   3.395   0.904  0.00  0.00     0.036 H 
BRANCH   9  12
ATOM     12  C10 <0> d           1.286   1.562  -0.002  0.00  0.00     0.017 C 
ATOM     13  H16 <0> d           1.840   1.243   0.881  0.00  0.00     0.073 H 
ATOM     14  H17 <0> d           1.823   1.252  -0.899  0.00  0.00     0.073 H 
BRANCH  12  15
ATOM     15  O1  <0> d          -0.011   0.963   0.007  0.00  0.00    -0.401 OA
ATOM     16  H18 <0> d           0.002  -0.004   0.002  0.00  0.00     0.209 HD
ENDBRANCH  12  15
ENDBRANCH   9  12
ENDBRANCH   6   9
ENDBRANCH   3   6
ENDBRANCH   2   3
BRANCH   1  17
ATOM     17  C4  <0> d           6.131   6.976  -0.019  0.00  0.00    -0.009 C 
ATOM     18  H8  <0> d           6.030   8.061  -0.012  0.00  0.00     0.051 H 
ATOM     19  H9  <0> d           6.685   6.657   0.864  0.00  0.00     0.051 H 
BRANCH  17  20
ATOM     20  C3  <0> d           6.885   6.542  -1.278  0.00  0.00    -0.056 C 
ATOM     21  H6  <0> d           6.985   5.456  -1.285  0.00  0.00     0.034 H 
ATOM     22  H7  <0> d           6.331   6.861  -2.161  0.00  0.00     0.034 H 
BRANCH  20  23
ATOM     23  C2  <0> d           8.274   7.183  -1.288  0.00  0.00    -0.068 C 
ATOM     24  H4  <0> d           8.173   8.268  -1.281  0.00  0.00     0.032 H 
ATOM     25  H5  <0> d           8.827   6.864  -0.405  0.00  0.00     0.032 H 
BRANCH  23  26
ATOM     26  C1  <0> d           9.027   6.748  -2.546  0.00  0.00    -0.076 C 
ATOM     27  H1  <0> d          10.017   7.205  -2.554  0.00  0.00     0.027 H 
ATOM     28  H2  <0> d           9.128   5.663  -2.553  0.00  0.00     0.027 H 
ATOM     29  H3  <0> d           8.473   7.067  -3.430  0.00  0.00     0.027 H 
ENDBRANCH  23  26
ENDBRANCH  20  23
ENDBRANCH  17  20
ENDBRANCH   1  17
TORSDOF 9
