REMARK  3 active torsions:
REMARK  status: ('A' for Active; 'I' for Inactive)
REMARK    1  A    between atoms: C1_1  and  C2_2 
REMARK    2  A    between atoms: C2_2  and  N1_3 
REMARK       I    between atoms: N1_3  and  C3_4 
REMARK       I    between atoms: C3_4  and  N2_6 
REMARK    3  A    between atoms: N2_6  and  C4_7 
ROOT
ATOM      1  N1  <0> d          -0.172   2.865   4.477  0.00  0.00    -0.343 N 
ATOM      2  C3  <0> d          -0.832   2.343   3.424  0.00  0.00     0.316 C 
ATOM      3  O1  <0> d          -1.978   1.957   3.554  0.00  0.00    -0.247 OA
ATOM      4  N2  <0> d          -0.222   2.250   2.225  0.00  0.00    -0.339 N 
ATOM      5  H6  <0> d           0.742   3.173   4.373  0.00  0.00     0.164 HD
ATOM      6  H7  <0> d           0.692   2.558   2.121  0.00  0.00     0.164 HD
ENDROOT
BRANCH   4   7
ATOM      7  C4  <0> d          -0.939   1.683   1.080  0.00  0.00     0.014 C 
ATOM      8  C7  <0> d          -1.349   2.730   0.028  0.00  0.00    -0.046 C 
ATOM      9  C6  <0> d          -0.959   1.695  -1.040  0.00  0.00    -0.061 C 
ATOM     10  H13 <0> d          -0.716   3.618   0.028  0.00  0.00     0.035 H 
ATOM     11  H14 <0> d          -2.412   2.969   0.038  0.00  0.00     0.035 H 
ATOM     12  C5  <0> d          -0.013   1.086   0.008  0.00  0.00    -0.046 C 
ATOM     13  H11 <0> d          -0.442   2.126  -1.897  0.00  0.00     0.033 H 
ATOM     14  H12 <0> d          -1.777   1.034  -1.326  0.00  0.00     0.033 H 
ATOM     15  H9  <0> d           0.002  -0.004   0.002  0.00  0.00     0.035 H 
ATOM     16  H10 <0> d           0.986   1.523   0.001  0.00  0.00     0.035 H 
ATOM     17  H8  <0> d          -1.751   1.019   1.375  0.00  0.00     0.072 H 
ENDBRANCH   4   7
BRANCH   1  18
ATOM     18  C2  <0> d          -0.836   2.966   5.779  0.00  0.00    -0.006 C 
ATOM     19  H4  <0> d          -1.723   3.593   5.687  0.00  0.00     0.063 H 
ATOM     20  H5  <0> d          -1.127   1.972   6.117  0.00  0.00     0.063 H 
BRANCH  18  21
ATOM     21  C1  <0> d           0.126   3.588   6.794  0.00  0.00    -0.061 C 
ATOM     22  H1  <0> d          -0.368   3.663   7.763  0.00  0.00     0.029 H 
ATOM     23  H2  <0> d           1.013   2.961   6.886  0.00  0.00     0.029 H 
ATOM     24  H3  <0> d           0.417   4.582   6.456  0.00  0.00     0.029 H 
ENDBRANCH  18  21
ENDBRANCH   1  18
TORSDOF 3
