REMARK  3 active torsions:
REMARK  status: ('A' for Active; 'I' for Inactive)
REMARK    1  A    between atoms: C1_1  and  N1_2 
REMARK    2  A    between atoms: C3_4  and  C6_9 
REMARK    3  A    between atoms: N2_5  and  C5_8 
ROOT
ATOM      1  N1  <0> d           0.002  -0.004   0.002  0.00  0.00    -0.312 N 
ATOM      2  C2  <0> d           0.008  -0.794  -1.114  0.00  0.00     0.017 A 
ATOM      3  C3  <0> d           0.027  -2.086  -0.708  0.00  0.00     0.131 A 
ATOM      4  N2  <0> d           0.033  -2.080   0.691  0.00  0.00    -0.297 N 
ATOM      5  C4  <0> d           0.023  -0.793   1.092  0.00  0.00     0.328 A 
ATOM      6  O1  <0> d           0.029  -0.409   2.247  0.00  0.00    -0.246 OA
ATOM      7  H4  <0> d          -0.001  -0.449  -2.137  0.00  0.00     0.115 H 
ENDROOT
BRANCH   1   8
ATOM      8  C1  <0> d          -0.018   1.461   0.010  0.00  0.00    -0.010 C 
ATOM      9  H1  <0> d           1.005   1.838   0.002  0.00  0.00     0.057 H 
ATOM     10  H2  <0> d          -0.545   1.822  -0.873  0.00  0.00     0.057 H 
ATOM     11  H3  <0> d          -0.528   1.812   0.907  0.00  0.00     0.057 H 
ENDBRANCH   1   8
BRANCH   4  12
ATOM     12  C5  <0> d           0.052  -3.258   1.562  0.00  0.00    -0.009 C 
ATOM     13  H5  <0> d           1.085  -3.536   1.774  0.00  0.00     0.057 H 
ATOM     14  H6  <0> d          -0.461  -3.028   2.496  0.00  0.00     0.057 H 
ATOM     15  H7  <0> d          -0.453  -4.086   1.064  0.00  0.00     0.057 H 
ENDBRANCH   4  12
BRANCH   3  16
ATOM     16  C6  <0> d           0.039  -3.266  -1.571  0.00  0.00     0.228 C 
ATOM     17  O2  <0> d           0.033  -3.135  -2.788  0.00  0.00    -0.643 OA
ATOM     18  O3  <0> d           0.056  -4.386  -1.076  0.00  0.00    -0.643 OA
ENDBRANCH   3  16
TORSDOF 3
