REMARK  3 active torsions:
REMARK  status: ('A' for Active; 'I' for Inactive)
REMARK    1  A    between atoms: C1_1  and  C2_2 
REMARK    2  A    between atoms: C2_2  and  N1_3 
REMARK    3  A    between atoms: C5_6  and  N2_7 
ROOT
ATOM      1  N1  <0> d          -1.372  -0.511   0.012  0.00  0.00    -0.367 N 
ATOM      2  C3  <0> d          -1.979  -0.740   1.209  0.00  0.00    -0.019 C 
ATOM      3  C4  <0> d          -3.107  -1.476   1.280  0.00  0.00    -0.043 C 
ATOM      4  C5  <0> d          -3.660  -2.015   0.029  0.00  0.00     0.028 C 
ATOM      5  C6  <0> d          -3.127  -1.473  -1.229  0.00  0.00    -0.043 C 
ATOM      6  C7  <0> d          -2.000  -0.732  -1.175  0.00  0.00    -0.019 C 
ATOM      7  H6  <0> d          -1.553  -0.327   2.111  0.00  0.00     0.111 H 
ATOM      8  H7  <0> d          -3.589  -1.664   2.228  0.00  0.00     0.089 H 
ATOM      9  H9  <0> d          -3.625  -1.658  -2.170  0.00  0.00     0.089 H 
ATOM     10  H10 <0> d          -1.590  -0.314  -2.082  0.00  0.00     0.111 H 
ENDROOT
BRANCH   1  11
ATOM     11  C2  <0> d           0.002  -0.004   0.002  0.00  0.00    -0.005 C 
ATOM     12  H4  <0> d           0.512  -0.356  -0.895  0.00  0.00     0.064 H 
ATOM     13  H5  <0> d           0.529  -0.365   0.885  0.00  0.00     0.064 H 
BRANCH  11  14
ATOM     14  C1  <0> d          -0.019   1.526   0.010  0.00  0.00    -0.061 C 
ATOM     15  H1  <0> d           1.004   1.903   0.003  0.00  0.00     0.029 H 
ATOM     16  H2  <0> d          -0.546   1.887  -0.873  0.00  0.00     0.029 H 
ATOM     17  H3  <0> d          -0.529   1.877   0.907  0.00  0.00     0.029 H 
ENDBRANCH  11  14
ENDBRANCH   1  11
BRANCH   4  18
ATOM     18  N2  <0> d          -4.598  -2.947   0.035  0.00  0.00    -0.399 N 
ATOM     19  H8  <0> d          -4.935  -3.290   0.878  0.00  0.00     0.156 HD
ATOM     20  H11 <0> d          -4.949  -3.288  -0.802  0.00  0.00     0.156 HD
ENDBRANCH   4  18
TORSDOF 3
