REMARK  1 active torsions:
REMARK  status: ('A' for Active; 'I' for Inactive)
REMARK    1  A    between atoms: C4_4  and  C6_6 
ROOT
ATOM      1  C6  <0> d           1.943   3.321   0.353  0.00  0.00     0.025 C 
ATOM      2  H1  <0> d           2.941   3.337   0.281  0.00  0.00     0.058 H 
ATOM      3  C7  <0> d           1.323   4.370  -0.593  0.00  0.00    -0.051 C 
ATOM      4  C8  <0> d           1.075   5.593   0.327  0.00  0.00    -0.058 C 
ATOM      5  C9  <0> d           0.641   4.926   1.655  0.00  0.00    -0.009 C 
ATOM      6  C10 <0> d           1.512   3.685   1.758  0.00  0.00     0.135 C 
ATOM      7  O1  <0> d           1.806   3.098   2.772  0.00  0.00    -0.297 OA
ATOM      8  H9  <0> d           2.020   4.627  -1.391  0.00  0.00     0.034 H 
ATOM      9  H10 <0> d           0.384   4.004  -1.008  0.00  0.00     0.034 H 
ATOM     10  H11 <0> d           1.991   6.168   0.463  0.00  0.00     0.033 H 
ATOM     11  H12 <0> d           0.279   6.223  -0.072  0.00  0.00     0.033 H 
ATOM     12  H13 <0> d           0.792   5.561   2.413  0.00  0.00     0.044 H 
ATOM     13  H14 <0> d          -0.413   4.651   1.617  0.00  0.00     0.044 H 
ENDROOT
BRANCH   1  14
ATOM     14  C4  <0> d           1.437   1.946  -0.001  0.00  0.00    -0.072 C 
ATOM     15  C3  <0> d           2.199   0.948  -0.358  0.00  0.00    -0.100 C 
ATOM     16  C2  <0> d           1.378  -0.288  -0.644  0.00  0.00    -0.049 C 
ATOM     17  H6  <0> d           3.275   0.999  -0.439  0.00  0.00     0.077 H 
ATOM     18  C1  <0> d           0.002  -0.004   0.002  0.00  0.00    -0.059 C 
ATOM     19  H4  <0> d           1.839  -1.164  -0.188  0.00  0.00     0.038 H 
ATOM     20  H5  <0> d           1.270  -0.433  -1.719  0.00  0.00     0.038 H 
ATOM     21  C5  <0> d          -0.019   1.542   0.011  0.00  0.00    -0.044 C 
ATOM     22  H2  <0> d          -0.043  -0.402   1.016  0.00  0.00     0.033 H 
ATOM     23  H3  <0> d          -0.808  -0.403  -0.609  0.00  0.00     0.033 H 
ATOM     24  H7  <0> d          -0.525   1.920  -0.878  0.00  0.00     0.039 H 
ATOM     25  H8  <0> d          -0.508   1.910   0.912  0.00  0.00     0.039 H 
ENDBRANCH   1  14
TORSDOF 1
