REMARK  4 active torsions:
REMARK  status: ('A' for Active; 'I' for Inactive)
REMARK    1  A    between atoms: C1_1  and  C2_2 
REMARK       I    between atoms: C2_2  and  N1_4 
REMARK    2  A    between atoms: N1_4  and  C3_5 
REMARK    3  A    between atoms: C3_5  and  C4_6 
REMARK    4  A    between atoms: C3_5  and  C5_7 
ROOT
ATOM      1  C3  <0> d          -1.290   1.681   0.017  0.00  0.00     0.114 C 
ATOM      2  C6  <0> d          -2.395   0.709   0.017  0.00  0.00     0.090 C 
ATOM      3  N2  <0> d          -3.249  -0.041   0.017  0.00  0.00    -0.195 NA
ENDROOT
BRANCH   1   4
ATOM      4  N1  <0> d          -0.011   0.966   0.007  0.00  0.00    -0.340 N 
ATOM      5  C2  <0> d           1.147   1.655  -0.000  0.00  0.00     0.214 C 
ATOM      6  O1  <0> d           1.130   2.868   0.007  0.00  0.00    -0.274 OA
ATOM      7  H4  <0> d           0.002  -0.004   0.002  0.00  0.00     0.164 HD
BRANCH   5   8
ATOM      8  C1  <0> d           2.462   0.920  -0.017  0.00  0.00    -0.003 C 
ATOM      9  H1  <0> d           2.769   0.748  -1.048  0.00  0.00     0.040 H 
ATOM     10  H2  <0> d           3.218   1.516   0.493  0.00  0.00     0.040 H 
ATOM     11  H3  <0> d           2.349  -0.037   0.493  0.00  0.00     0.040 H 
ENDBRANCH   5   8
ENDBRANCH   1   4
BRANCH   1  12
ATOM     12  C4  <0> d          -1.377   2.553   1.272  0.00  0.00    -0.041 C 
ATOM     13  H5  <0> d          -0.558   3.272   1.272  0.00  0.00     0.032 H 
ATOM     14  H6  <0> d          -2.328   3.085   1.279  0.00  0.00     0.032 H 
ATOM     15  H7  <0> d          -1.306   1.922   2.158  0.00  0.00     0.032 H 
ENDBRANCH   1  12
BRANCH   1  16
ATOM     16  C5  <0> d          -1.389   2.566  -1.227  0.00  0.00    -0.041 C 
ATOM     17  H8  <0> d          -1.327   1.945  -2.120  0.00  0.00     0.032 H 
ATOM     18  H9  <0> d          -2.340   3.098  -1.219  0.00  0.00     0.032 H 
ATOM     19  H10 <0> d          -0.570   3.286  -1.227  0.00  0.00     0.032 H 
ENDBRANCH   1  16
TORSDOF 4
