REMARK  1 active torsions:
REMARK  status: ('A' for Active; 'I' for Inactive)
REMARK    1  A    between atoms: C3_3  and  N1_4 
ROOT
ATOM      1  N1  <0> d          -0.392  -0.681  -1.241  0.00  0.00     0.114 N 
ATOM      2  C4  <0> d           0.576  -0.416  -2.315  0.00  0.00     0.138 C 
ATOM      3  C5  <0> d           0.099  -1.088  -3.604  0.00  0.00     0.106 C 
ATOM      4  N2  <0> d          -0.030  -2.534  -3.384  0.00  0.00    -0.070 N 
ATOM      5  C6  <0> d          -1.018  -2.784  -2.326  0.00  0.00     0.122 C 
ATOM      6  C7  <0> d          -0.551  -2.126  -1.026  0.00  0.00     0.239 C 
ATOM      7  H1  <0> d           0.405  -2.556  -0.724  0.00  0.00     0.115 H 
ATOM      8  C8  <0> d          -1.550  -2.359   0.029  0.00  0.00     0.097 C 
ATOM      9  N3  <0> d          -2.321  -2.539   0.844  0.00  0.00    -0.195 NA
ATOM     10  H7  <0> d           0.657   0.659  -2.474  0.00  0.00     0.082 H 
ATOM     11  H8  <0> d           1.549  -0.817  -2.034  0.00  0.00     0.082 H 
ATOM     12  H9  <0> d          -0.869  -0.676  -3.892  0.00  0.00     0.078 H 
ATOM     13  H10 <0> d           0.822  -0.904  -4.399  0.00  0.00     0.078 H 
ATOM     14  H11 <0> d          -0.333  -2.978  -4.238  0.00  0.00     0.277 HD
ATOM     15  H12 <0> d          -1.980  -2.364  -2.620  0.00  0.00     0.080 H 
ATOM     16  H13 <0> d          -1.123  -3.858  -2.173  0.00  0.00     0.080 H 
ATOM     17  H14 <0> d           0.863  -2.913  -3.107  0.00  0.00     0.277 HD
ENDROOT
BRANCH   1  18
ATOM     18  C3  <0> d           0.002  -0.004   0.002  0.00  0.00     0.137 A 
ATOM     19  C1  <0> d          -0.019   1.526   0.010  0.00  0.00    -0.034 A 
ATOM     20  C2  <0> d           1.317   0.779  -0.006  0.00  0.00    -0.034 A 
ATOM     21  H2  <0> d          -0.307   2.020   0.938  0.00  0.00     0.036 H 
ATOM     22  H3  <0> d          -0.325   2.030  -0.906  0.00  0.00     0.036 H 
ATOM     23  H4  <0> d           1.889   0.792  -0.934  0.00  0.00     0.036 H 
ATOM     24  H5  <0> d           1.906   0.782   0.910  0.00  0.00     0.036 H 
ATOM     25  H6  <0> d          -0.273  -0.516   0.924  0.00  0.00     0.088 H 
ENDBRANCH   1  18
TORSDOF 1
