REMARK  2 active torsions:
REMARK  status: ('A' for Active; 'I' for Inactive)
REMARK    1  A    between atoms: C1_1  and  N1_2 
REMARK    2  A    between atoms: N1_2  and  C2_3 
ROOT
ATOM      1  C2  <0> d          -1.199  -0.720   0.010  0.00  0.00     0.069 A 
ATOM      2  C3  <0> d          -2.412  -0.043   0.019  0.00  0.00    -0.054 A 
ATOM      3  C4  <0> d          -3.598  -0.752   0.026  0.00  0.00    -0.078 A 
ATOM      4  C5  <0> d          -3.581  -2.134   0.024  0.00  0.00    -0.042 A 
ATOM      5  C6  <0> d          -2.374  -2.814   0.015  0.00  0.00     0.157 A 
ATOM      6  C7  <0> d          -1.182  -2.110   0.002  0.00  0.00     0.181 A 
ATOM      7  F1  <0> d          -0.005  -2.772  -0.013  0.00  0.00    -0.200 F 
ATOM      8  F2  <0> d          -2.361  -4.165   0.013  0.00  0.00    -0.203 F 
ATOM      9  H5  <0> d          -2.428   1.037   0.021  0.00  0.00     0.087 H 
ATOM     10  H6  <0> d          -4.541  -0.225   0.034  0.00  0.00     0.083 H 
ATOM     11  H7  <0> d          -4.510  -2.685   0.029  0.00  0.00     0.088 H 
ENDROOT
BRANCH   1  12
ATOM     12  N1  <0> d           0.002  -0.004   0.002  0.00  0.00    -0.392 N 
ATOM     13  H4  <0> d           0.849  -0.478  -0.009  0.00  0.00     0.159 HD
BRANCH  12  14
ATOM     14  C1  <0> d          -0.018   1.461   0.010  0.00  0.00    -0.021 C 
ATOM     15  H1  <0> d           1.005   1.838   0.002  0.00  0.00     0.056 H 
ATOM     16  H2  <0> d          -0.545   1.822  -0.873  0.00  0.00     0.056 H 
ATOM     17  H3  <0> d          -0.528   1.812   0.907  0.00  0.00     0.056 H 
ENDBRANCH  12  14
ENDBRANCH   1  12
TORSDOF 2
