REMARK  9 active torsions:
REMARK  status: ('A' for Active; 'I' for Inactive)
REMARK    1  A    between atoms: C1_1  and  C2_2 
REMARK    2  A    between atoms: C2_2  and  C3_3 
REMARK    3  A    between atoms: C3_3  and  C4_4 
REMARK    4  A    between atoms: C4_4  and  C5_5 
REMARK    5  A    between atoms: C5_5  and  C6_6 
REMARK    6  A    between atoms: C6_6  and  C7_7 
REMARK    7  A    between atoms: C7_7  and  C8_8 
REMARK    8  A    between atoms: C7_7  and  C9_9 
REMARK    9  A    between atoms: C7_7  and  O1_11 
ROOT
ATOM      1  C9  <0> d          -0.731   2.013  -1.182  0.00  0.00    -0.080 C 
ATOM      2  C10 <0> d          -1.298   2.402  -2.133  0.00  0.00    -0.151 C 
ATOM      3  H17 <0> d          -1.806   2.750  -2.984  0.00  0.00     0.166 H 
ENDROOT
BRANCH   1   4
ATOM      4  C7  <0> d          -0.019   1.526   0.010  0.00  0.00     0.116 C 
BRANCH   4   5
ATOM      5  C6  <0> d          -0.735   2.019   1.269  0.00  0.00    -0.026 C 
ATOM      6  H12 <0> d          -0.750   3.109   1.275  0.00  0.00     0.038 H 
ATOM      7  H13 <0> d          -1.757   1.642   1.277  0.00  0.00     0.038 H 
BRANCH   5   8
ATOM      8  C5  <0> d           0.005   1.512   2.509  0.00  0.00    -0.061 C 
ATOM      9  H10 <0> d           0.020   0.422   2.503  0.00  0.00     0.033 H 
ATOM     10  H11 <0> d           1.028   1.890   2.501  0.00  0.00     0.033 H 
BRANCH   8  11
ATOM     11  C4  <0> d          -0.711   2.006   3.768  0.00  0.00    -0.065 C 
ATOM     12  H8  <0> d          -0.726   3.096   3.774  0.00  0.00     0.033 H 
ATOM     13  H9  <0> d          -1.734   1.629   3.775  0.00  0.00     0.033 H 
BRANCH  11  14
ATOM     14  C3  <0> d           0.029   1.499   5.007  0.00  0.00    -0.065 C 
ATOM     15  H6  <0> d           0.044   0.409   5.001  0.00  0.00     0.033 H 
ATOM     16  H7  <0> d           1.052   1.876   4.999  0.00  0.00     0.033 H 
BRANCH  14  17
ATOM     17  C2  <0> d          -0.687   1.992   6.266  0.00  0.00    -0.069 C 
ATOM     18  H4  <0> d          -0.702   3.082   6.272  0.00  0.00     0.032 H 
ATOM     19  H5  <0> d          -1.710   1.615   6.274  0.00  0.00     0.032 H 
BRANCH  17  20
ATOM     20  C1  <0> d           0.053   1.486   7.505  0.00  0.00    -0.077 C 
ATOM     21  H1  <0> d           0.068   0.396   7.499  0.00  0.00     0.027 H 
ATOM     22  H2  <0> d           1.075   1.863   7.498  0.00  0.00     0.027 H 
ATOM     23  H3  <0> d          -0.457   1.837   8.402  0.00  0.00     0.027 H 
ENDBRANCH  17  20
ENDBRANCH  14  17
ENDBRANCH  11  14
ENDBRANCH   8  11
ENDBRANCH   5   8
ENDBRANCH   4   5
BRANCH   4  24
ATOM     24  C8  <0> d           0.002  -0.004   0.002  0.00  0.00    -0.037 C 
ATOM     25  H14 <0> d           0.529  -0.365   0.885  0.00  0.00     0.033 H 
ATOM     26  H15 <0> d          -1.020  -0.381   0.010  0.00  0.00     0.033 H 
ATOM     27  H16 <0> d           0.512  -0.356  -0.895  0.00  0.00     0.033 H 
ENDBRANCH   4  24
BRANCH   4  28
ATOM     28  O1  <0> d           1.322   2.020   0.000  0.00  0.00    -0.378 OA
ATOM     29  H18 <0> d           1.385   2.985   0.005  0.00  0.00     0.211 HD
ENDBRANCH   4  28
ENDBRANCH   1   4
TORSDOF 9
