REMARK  2 active torsions:
REMARK  status: ('A' for Active; 'I' for Inactive)
REMARK    1  A    between atoms: C2_2  and  C4_8 
REMARK    2  A    between atoms: C3_6  and  N3_7 
ROOT
ATOM      1  C1  <0> d          -0.016   1.357   0.009  0.00  0.00    -0.014 A 
ATOM      2  C2  <0> d           1.308   1.803  -0.001  0.00  0.00     0.062 A 
ATOM      3  N1  <0> d           2.094   0.757  -0.014  0.00  0.00    -0.177 NA
ATOM      4  N2  <0> d           1.297  -0.395  -0.012  0.00  0.00    -0.263 N 
ATOM      5  H1  <0> d           1.617  -1.310  -0.021  0.00  0.00     0.190 HD
ATOM      6  C3  <0> d           0.002  -0.004   0.002  0.00  0.00     0.117 A 
ATOM      7  H2  <0> d          -0.898   1.982   0.025  0.00  0.00     0.092 H 
ENDROOT
BRANCH   2   8
ATOM      8  C4  <0> d           1.755   3.242   0.002  0.00  0.00    -0.010 A 
ATOM      9  C6  <0> d           1.839   3.959  -1.347  0.00  0.00    -0.056 A 
ATOM     10  C5  <0> d           0.718   4.305  -0.365  0.00  0.00    -0.056 A 
ATOM     11  H8  <0> d           2.635   4.691  -1.480  0.00  0.00     0.034 H 
ATOM     12  H9  <0> d           1.571   3.389  -2.237  0.00  0.00     0.034 H 
ATOM     13  H6  <0> d          -0.288   3.963  -0.609  0.00  0.00     0.034 H 
ATOM     14  H7  <0> d           0.776   5.265   0.148  0.00  0.00     0.034 H 
ATOM     15  H5  <0> d           2.497   3.503   0.757  0.00  0.00     0.049 H 
ENDBRANCH   2   8
BRANCH   6  16
ATOM     16  N3  <0> d          -1.110  -0.842   0.009  0.00  0.00    -0.384 N 
ATOM     17  H3  <0> d          -2.002  -0.463   0.019  0.00  0.00     0.157 HD
ATOM     18  H4  <0> d          -0.992  -1.805   0.002  0.00  0.00     0.157 HD
ENDBRANCH   6  16
TORSDOF 2
