REMARK  4 active torsions:
REMARK  status: ('A' for Active; 'I' for Inactive)
REMARK    1  A    between atoms: C1_1  and  C2_2 
REMARK    2  A    between atoms: C1_1  and  C6_7 
REMARK    3  A    between atoms: C3_3  and  C4_4 
REMARK    4  A    between atoms: C4_4  and  C5_5 
ROOT
ATOM      1  C2  <0> d          -0.016   1.306   0.009  0.00  0.00    -0.097 C 
ATOM      2  C3  <0> d           0.002  -0.004   0.002  0.00  0.00    -0.097 C 
ATOM      3  H3  <0> d           0.912   1.859   0.003  0.00  0.00     0.077 H 
ATOM      4  H4  <0> d          -0.926  -0.557   0.008  0.00  0.00     0.077 H 
ENDROOT
BRANCH   1   5
ATOM      5  C1  <0> d          -1.331   2.042   0.019  0.00  0.00     0.030 C 
ATOM      6  H1  <0> d          -1.440   2.603  -0.908  0.00  0.00     0.055 H 
ATOM      7  H2  <0> d          -2.147   1.325   0.109  0.00  0.00     0.055 H 
BRANCH   5   8
ATOM      8  C6  <0> d          -1.366   2.992   1.189  0.00  0.00     0.176 C 
ATOM      9  O2  <0> d          -0.420   3.064   1.937  0.00  0.00    -0.648 OA
ATOM     10  O4  <0> d          -2.448   3.757   1.399  0.00  0.00    -0.648 OA
ENDBRANCH   5   8
ENDBRANCH   1   5
BRANCH   2  11
ATOM     11  C4  <0> d           1.317  -0.740  -0.015  0.00  0.00     0.030 C 
ATOM     12  H5  <0> d           1.413  -1.291  -0.950  0.00  0.00     0.055 H 
ATOM     13  H6  <0> d           2.135  -0.024   0.071  0.00  0.00     0.055 H 
BRANCH  11  14
ATOM     14  C5  <0> d           1.369  -1.702   1.144  0.00  0.00     0.176 C 
ATOM     15  O1  <0> d           0.434  -1.783   1.905  0.00  0.00    -0.648 OA
ATOM     16  O3  <0> d           2.454  -2.470   1.330  0.00  0.00    -0.648 OA
ENDBRANCH  11  14
ENDBRANCH   2  11
TORSDOF 4
