REMARK  2 active torsions:
REMARK  status: ('A' for Active; 'I' for Inactive)
REMARK    1  A    between atoms: C1_1  and  O1_2 
REMARK    2  A    between atoms: O1_2  and  N1_3 
ROOT
ATOM      1  N1  <0> d          -0.073   1.130   2.393  0.00  0.00    -0.214 N 
ATOM      2  C2  <0> d           1.040   0.358   2.511  0.00  0.00     0.093 A 
ATOM      3  N2  <0> d           1.324   0.172   3.767  0.00  0.00    -0.239 NA
ATOM      4  C3  <0> d           0.405   0.804   4.542  0.00  0.00     0.087 A 
ATOM      5  C4  <0> d          -0.504   1.428   3.670  0.00  0.00     0.092 A 
ATOM      6  C5  <0> d          -1.566   2.157   4.187  0.00  0.00    -0.052 A 
ATOM      7  C6  <0> d          -1.720   2.264   5.553  0.00  0.00    -0.081 A 
ATOM      8  C7  <0> d          -0.823   1.648   6.413  0.00  0.00    -0.081 A 
ATOM      9  C8  <0> d           0.228   0.926   5.922  0.00  0.00    -0.053 A 
ATOM     10  H4  <0> d           1.608  -0.039   1.683  0.00  0.00     0.147 H 
ATOM     11  H5  <0> d          -2.268   2.639   3.522  0.00  0.00     0.087 H 
ATOM     12  H6  <0> d          -2.546   2.832   5.957  0.00  0.00     0.083 H 
ATOM     13  H7  <0> d          -0.956   1.740   7.480  0.00  0.00     0.083 H 
ATOM     14  H8  <0> d           0.922   0.451   6.600  0.00  0.00     0.087 H 
ENDROOT
BRANCH   1  15
ATOM     15  O1  <0> d          -0.682   1.547   1.184  0.00  0.00    -0.277 OA
BRANCH  15  16
ATOM     16  C1  <0> d          -0.013   1.086   0.008  0.00  0.00     0.030 C 
ATOM     17  H1  <0> d          -0.545   1.450  -0.883  0.00  0.00     0.070 H 
ATOM     18  H2  <0> d           0.002  -0.014   0.002  0.00  0.00     0.070 H 
ATOM     19  H3  <0> d           1.019   1.466   0.000  0.00  0.00     0.070 H 
ENDBRANCH  15  16
ENDBRANCH   1  15
TORSDOF 2
