REMARK  2 active torsions:
REMARK  status: ('A' for Active; 'I' for Inactive)
REMARK    1  A    between atoms: C2_2  and  C3_3 
REMARK    2  A    between atoms: C6_6  and  C9_9 
ROOT
ATOM      1  C3  <0> d          -3.718   3.283   0.038  0.00  0.00    -0.037 A 
ATOM      2  C4  <0> d          -3.700   1.886   0.030  0.00  0.00    -0.072 A 
ATOM      3  C5  <0> d          -2.503   1.216   0.021  0.00  0.00    -0.066 A 
ATOM      4  C6  <0> d          -1.302   1.931   0.019  0.00  0.00     0.040 A 
ATOM      5  C7  <0> d          -1.321   3.329   0.032  0.00  0.00    -0.066 A 
ATOM      6  C8  <0> d          -2.518   3.998   0.036  0.00  0.00    -0.072 A 
ATOM      7  H4  <0> d          -4.628   1.333   0.031  0.00  0.00     0.084 H 
ATOM      8  H5  <0> d          -2.489   0.136   0.014  0.00  0.00     0.085 H 
ATOM      9  H6  <0> d          -0.394   3.882   0.035  0.00  0.00     0.085 H 
ATOM     10  H7  <0> d          -2.533   5.078   0.042  0.00  0.00     0.084 H 
ENDROOT
BRANCH   1  11
ATOM     11  C2  <0> d          -5.007   4.003   0.049  0.00  0.00    -0.082 C 
ATOM     12  C1  <0> d          -5.025   5.330   0.057  0.00  0.00    -0.120 C 
ATOM     13  H1  <0> d          -5.968   5.857   0.065  0.00  0.00     0.066 H 
ATOM     14  H2  <0> d          -4.097   5.883   0.055  0.00  0.00     0.066 H 
ATOM     15  H3  <0> d          -5.935   3.451   0.050  0.00  0.00     0.083 H 
ENDBRANCH   1  11
BRANCH   4  16
ATOM     16  C9  <0> d          -0.014   1.211   0.009  0.00  0.00     0.209 C 
ATOM     17  O1  <0> d           0.002  -0.004   0.002  0.00  0.00    -0.644 OA
ATOM     18  O2  <0> d           1.143   1.900   0.001  0.00  0.00    -0.644 OA
ENDBRANCH   4  16
TORSDOF 2
