REMARK  0 active torsions:
REMARK  status: ('A' for Active; 'I' for Inactive)
ROOT
ATOM      1  C1  <0> d          -1.242   3.406   0.032  0.00  0.00    -0.077 A 
ATOM      2  C2  <0> d          -0.060   4.124   0.025  0.00  0.00    -0.044 A 
ATOM      3  C3  <0> d           1.154   3.464   0.010  0.00  0.00     0.140 A 
ATOM      4  C4  <0> d           1.185   2.065   0.002  0.00  0.00     0.121 A 
ATOM      5  C5  <0> d          -0.016   1.347   0.009  0.00  0.00     0.140 A 
ATOM      6  C6  <0> d          -1.221   2.023   0.019  0.00  0.00    -0.044 A 
ATOM      7  F1  <0> d           0.002  -0.004   0.002  0.00  0.00    -0.204 F 
ATOM      8  C7  <0> d           2.438   1.372  -0.013  0.00  0.00     0.105 C 
ATOM      9  N1  <0> d           3.432   0.822  -0.025  0.00  0.00    -0.191 NA
ATOM     10  F2  <0> d           2.308   4.167   0.002  0.00  0.00    -0.204 F 
ATOM     11  H1  <0> d          -2.187   3.929   0.043  0.00  0.00     0.083 H 
ATOM     12  H2  <0> d          -0.085   5.204   0.031  0.00  0.00     0.088 H 
ATOM     13  H3  <0> d          -2.149   1.471   0.020  0.00  0.00     0.088 H 
ENDROOT
TORSDOF 0
