REMARK  0 active torsions:
REMARK  status: ('A' for Active; 'I' for Inactive)
ROOT
ATOM      1  C1  <0> d          -1.636   4.116   0.038  0.00  0.00    -0.030 A 
ATOM      2  C2  <0> d          -0.679   3.092   0.024  0.00  0.00     0.016 A 
ATOM      3  C3  <0> d           0.732   3.050   0.011  0.00  0.00     0.034 A 
ATOM      4  N1  <0> d           1.112   1.804   0.001  0.00  0.00    -0.186 NA
ATOM      5  N2  <0> d          -0.011   0.966   0.007  0.00  0.00    -0.276 N 
ATOM      6  H1  <0> d           0.118  -0.127   0.005  0.00  0.00     0.189 HD
ATOM      7  C4  <0> d          -1.131   1.755   0.016  0.00  0.00     0.079 A 
ATOM      8  C5  <0> d          -2.500   1.511   0.032  0.00  0.00     0.032 A 
ATOM      9  N3  <0> d          -3.352   2.515   0.045  0.00  0.00    -0.246 NA
ATOM     10  C6  <0> d          -2.960   3.780   0.048  0.00  0.00     0.126 A 
ATOM     11 Cl1  <0> d          -4.155   5.038   0.065  0.00  0.00    -0.062 Cl
ATOM     12  H2  <0> d          -1.332   5.153   0.040  0.00  0.00     0.089 H 
ATOM     13  H3  <0> d           1.388   3.908   0.009  0.00  0.00     0.118 H 
ATOM     14  H4  <0> d          -2.866   0.495   0.031  0.00  0.00     0.118 H 
ENDROOT
TORSDOF 0
