REMARK  4 active torsions:
REMARK  status: ('A' for Active; 'I' for Inactive)
REMARK    1  A    between atoms: C1_1  and  C2_2 
REMARK    2  A    between atoms: C2_2  and  C3_3 
REMARK    3  A    between atoms: C2_2  and  C4_4 
REMARK    4  A    between atoms: C6_6  and  N3_10 
ROOT
ATOM      1  C4  <0> d          -1.412  -0.526   0.013  0.00  0.00     0.043 A 
ATOM      2  C5  <0> d          -2.094  -0.671   1.205  0.00  0.00    -0.015 A 
ATOM      3  C6  <0> d          -3.402  -1.158   1.164  0.00  0.00     0.124 A 
ATOM      4  N1  <0> d          -3.940  -1.461  -0.013  0.00  0.00    -0.225 NA
ATOM      5  C7  <0> d          -3.252  -1.307  -1.126  0.00  0.00     0.089 A 
ATOM      6  N2  <0> d          -2.017  -0.845  -1.122  0.00  0.00    -0.246 NA
ATOM      7  H8  <0> d          -1.627  -0.415   2.144  0.00  0.00     0.092 H 
ATOM      8  H9  <0> d          -3.714  -1.562  -2.069  0.00  0.00     0.146 H 
ENDROOT
BRANCH   1   9
ATOM      9  C2  <0> d           0.002  -0.004   0.002  0.00  0.00    -0.019 C 
ATOM     10  H4  <0> d           0.512  -0.356  -0.895  0.00  0.00     0.048 H 
BRANCH   9  11
ATOM     11  C1  <0> d          -0.019   1.526   0.010  0.00  0.00    -0.068 C 
ATOM     12  H1  <0> d           1.004   1.903   0.003  0.00  0.00     0.028 H 
ATOM     13  H2  <0> d          -0.546   1.887  -0.873  0.00  0.00     0.028 H 
ATOM     14  H3  <0> d          -0.529   1.877   0.907  0.00  0.00     0.028 H 
ENDBRANCH   9  11
BRANCH   9  15
ATOM     15  C3  <0> d           0.742  -0.511   1.242  0.00  0.00    -0.068 C 
ATOM     16  H5  <0> d           0.232  -0.159   2.138  0.00  0.00     0.028 H 
ATOM     17  H6  <0> d           0.757  -1.601   1.236  0.00  0.00     0.028 H 
ATOM     18  H7  <0> d           1.765  -0.134   1.234  0.00  0.00     0.028 H 
ENDBRANCH   9  15
ENDBRANCH   1   9
BRANCH   3  19
ATOM     19  N3  <0> d          -4.128  -1.322   2.333  0.00  0.00    -0.384 N 
ATOM     20  H10 <0> d          -3.728  -1.098   3.188  0.00  0.00     0.157 HD
ATOM     21  H11 <0> d          -5.037  -1.661   2.296  0.00  0.00     0.157 HD
ENDBRANCH   3  19
TORSDOF 4
