REMARK  4 active torsions:
REMARK  status: ('A' for Active; 'I' for Inactive)
REMARK    1  A    between atoms: C3_3  and  C5_6 
REMARK    2  A    between atoms: C5_6  and  O2_7 
REMARK    3  A    between atoms: O2_7  and  C6_8 
REMARK    4  A    between atoms: C6_8  and  C7_9 
ROOT
ATOM      1  C5  <0> d           0.002  -0.004   0.002  0.00  0.00     0.064 C 
ATOM      2  H4  <0> d           0.534  -0.368   0.893  0.00  0.00     0.084 H 
ATOM      3  H5  <0> d           0.517  -0.359  -0.903  0.00  0.00     0.084 H 
ENDROOT
BRANCH   1   4
ATOM      4  C3  <0> d          -1.412  -0.526   0.013  0.00  0.00     0.076 A 
ATOM      5  C2  <0> d          -2.160  -0.792  -1.073  0.00  0.00    -0.050 A 
ATOM      6  C1  <0> d          -3.410  -1.257  -0.604  0.00  0.00    -0.059 A 
ATOM      7  H2  <0> d          -1.863  -0.673  -2.104  0.00  0.00     0.087 H 
ATOM      8  C4  <0> d          -3.351  -1.248   0.740  0.00  0.00     0.019 A 
ATOM      9  H1  <0> d          -4.252  -1.562  -1.209  0.00  0.00     0.086 H 
ATOM     10  O1  <0> d          -2.136  -0.809   1.108  0.00  0.00    -0.325 OA
ATOM     11  H3  <0> d          -4.144  -1.546   1.409  0.00  0.00     0.123 H 
ENDBRANCH   1   4
BRANCH   1  12
ATOM     12  O2  <0> d          -0.017   1.425   0.010  0.00  0.00    -0.374 OA
BRANCH  12  13
ATOM     13  C6  <0> d           1.280   2.024   0.001  0.00  0.00     0.100 C 
ATOM     14  H6  <0> d           1.839   1.702   0.892  0.00  0.00     0.091 H 
ATOM     15  H7  <0> d           1.822   1.711  -0.904  0.00  0.00     0.091 H 
BRANCH  13  16
ATOM     16  C7  <0> d           1.141   3.524   0.010  0.00  0.00     0.197 C 
ATOM     17  O3  <0> d           0.043   4.029   0.023  0.00  0.00    -0.646 OA
ATOM     18  O4  <0> d           2.236   4.300   0.004  0.00  0.00    -0.646 OA
ENDBRANCH  13  16
ENDBRANCH  12  13
ENDBRANCH   1  12
TORSDOF 4
