REMARK  2 active torsions:
REMARK  status: ('A' for Active; 'I' for Inactive)
REMARK    1  A    between atoms: C3_3  and  C7_11 
REMARK    2  A    between atoms: C4_5  and  C6_8 
REMARK       I    between atoms: C6_8  and  N1_10 
REMARK       I    between atoms: C7_11  and  N2_13 
ROOT
ATOM      1  C1  <0> d          -0.421  -1.920  -1.644  0.00  0.00    -0.063 C 
ATOM      2  C2  <0> d           0.429  -0.631  -1.518  0.00  0.00    -0.053 C 
ATOM      3  C3  <0> d          -0.020  -0.011  -0.179  0.00  0.00     0.035 C 
ATOM      4  H1  <0> d           0.678  -0.249   0.637  0.00  0.00     0.056 H 
ATOM      5  C4  <0> d          -1.433  -0.551   0.104  0.00  0.00     0.035 C 
ATOM      6  H2  <0> d          -1.481  -1.075   1.070  0.00  0.00     0.056 H 
ATOM      7  C5  <0> d          -1.793  -1.482  -1.073  0.00  0.00    -0.053 C 
ATOM      8  H3  <0> d          -0.023  -2.752  -1.044  0.00  0.00     0.033 H 
ATOM      9  H4  <0> d          -0.546  -2.247  -2.687  0.00  0.00     0.033 H 
ATOM     10  H5  <0> d           1.497  -0.896  -1.514  0.00  0.00     0.034 H 
ATOM     11  H6  <0> d           0.219   0.031  -2.371  0.00  0.00     0.034 H 
ATOM     12  H7  <0> d          -2.364  -0.958  -1.853  0.00  0.00     0.034 H 
ATOM     13  H8  <0> d          -2.353  -2.369  -0.741  0.00  0.00     0.034 H 
ENDROOT
BRANCH   3  14
ATOM     14  C7  <0> d          -0.055   1.492  -0.293  0.00  0.00     0.220 C 
ATOM     15  O2  <0> d          -0.315   2.013  -1.356  0.00  0.00    -0.273 OA
ATOM     16  N2  <0> d           0.208   2.255   0.786  0.00  0.00    -0.370 N 
ATOM     17  H11 <0> d           0.182   3.352   0.703  0.00  0.00     0.159 HD
ATOM     18  H12 <0> d           0.448   1.782   1.750  0.00  0.00     0.159 HD
ENDBRANCH   3  14
BRANCH   5  19
ATOM     19  C6  <0> d          -2.415   0.589   0.181  0.00  0.00     0.220 C 
ATOM     20  O1  <0> d          -2.956   0.992  -0.827  0.00  0.00    -0.273 OA
ATOM     21  N1  <0> d          -2.694   1.159   1.369  0.00  0.00    -0.370 N 
ATOM     22  H9  <0> d          -3.411   1.991   1.426  0.00  0.00     0.159 HD
ATOM     23  H10 <0> d          -2.203   0.793   2.284  0.00  0.00     0.159 HD
ENDBRANCH   5  19
TORSDOF 2
