REMARK  2 active torsions:
REMARK  status: ('A' for Active; 'I' for Inactive)
REMARK    1  A    between atoms: C1_1  and  C4_10 
REMARK    2  A    between atoms: C2_2  and  C3_7 
REMARK       I    between atoms: C3_7  and  N4_9 
REMARK       I    between atoms: C4_10  and  N5_12 
ROOT
ATOM      1  C1  <0> d          -1.506   3.471   0.034  0.00  0.00     0.181 A 
ATOM      2  C2  <0> d          -1.307   2.066   0.019  0.00  0.00     0.181 A 
ATOM      3  N1  <0> d          -2.518   1.539   0.023  0.00  0.00    -0.149 NA
ATOM      4  N2  <0> d          -3.384   2.488   0.032  0.00  0.00    -0.195 N 
ATOM      5  H1  <0> d          -4.374   2.348   0.036  0.00  0.00     0.213 HD
ATOM      6  N3  <0> d          -2.816   3.641   0.035  0.00  0.00    -0.149 NA
ENDROOT
BRANCH   1   7
ATOM      7  C4  <0> d          -0.466   4.523   0.042  0.00  0.00     0.272 C 
ATOM      8  O2  <0> d           0.710   4.215   0.036  0.00  0.00    -0.266 OA
ATOM      9  N5  <0> d          -0.823   5.823   0.056  0.00  0.00    -0.365 N 
ATOM     10  H4  <0> d          -1.761   6.068   0.060  0.00  0.00     0.159 HD
ATOM     11  H5  <0> d          -0.141   6.513   0.061  0.00  0.00     0.159 HD
ENDBRANCH   1   7
BRANCH   2  12
ATOM     12  C3  <0> d          -0.016   1.344   0.009  0.00  0.00     0.272 C 
ATOM     13  O1  <0> d           1.028   1.966   0.003  0.00  0.00    -0.266 OA
ATOM     14  N4  <0> d           0.002  -0.004   0.002  0.00  0.00    -0.365 N 
ATOM     15  H2  <0> d           0.849  -0.478  -0.009  0.00  0.00     0.159 HD
ATOM     16  H3  <0> d          -0.831  -0.500   0.007  0.00  0.00     0.159 HD
ENDBRANCH   2  12
TORSDOF 2
