REMARK  0 active torsions:
REMARK  status: ('A' for Active; 'I' for Inactive)
ROOT
ATOM      1  C1  <0> d          -0.019   1.527   0.010  0.00  0.00    -0.045 C 
ATOM      2  C2  <0> d           1.413   2.077  -0.000  0.00  0.00    -0.018 C 
ATOM      3  C3  <0> d           2.176   1.397  -1.111  0.00  0.00     0.103 A 
ATOM      4  C4  <0> d           1.751   0.188  -1.694  0.00  0.00     0.171 A 
ATOM      5  N1  <0> d           2.622  -0.120  -2.613  0.00  0.00    -0.137 NA
ATOM      6  N2  <0> d           3.592   0.897  -2.603  0.00  0.00    -0.195 N 
ATOM      7  N3  <0> d           3.277   1.762  -1.698  0.00  0.00    -0.158 NA
ATOM      8  H1  <0> d           4.370   0.941  -3.181  0.00  0.00     0.213 HD
ATOM      9  N4  <0> d           0.586  -0.471  -1.271  0.00  0.00    -0.372 N 
ATOM     10  C5  <0> d           0.002  -0.004   0.002  0.00  0.00    -0.005 C 
ATOM     11  H2  <0> d          -0.533   1.876   0.906  0.00  0.00     0.035 H 
ATOM     12  H3  <0> d          -0.550   1.886  -0.871  0.00  0.00     0.035 H 
ATOM     13  H4  <0> d           1.392   3.152  -0.174  0.00  0.00     0.042 H 
ATOM     14  H5  <0> d           1.893   1.869   0.956  0.00  0.00     0.042 H 
ATOM     15  H6  <0> d           0.188  -1.191  -1.785  0.00  0.00     0.161 HD
ATOM     16  H7  <0> d           0.606  -0.365   0.835  0.00  0.00     0.064 H 
ATOM     17  H8  <0> d          -1.016  -0.383   0.097  0.00  0.00     0.064 H 
ENDROOT
TORSDOF 0
