REMARK  3 active torsions:
REMARK  status: ('A' for Active; 'I' for Inactive)
REMARK    1  A    between atoms: C1_1  and  S1_2 
REMARK    2  A    between atoms: S1_2  and  C2_3 
REMARK    3  A    between atoms: C3_5  and  N3_8 
ROOT
ATOM      1  C2  <0> d           1.262   2.003   0.001  0.00  0.00     0.197 A 
ATOM      2  N1  <0> d           2.152   1.032  -0.013  0.00  0.00    -0.197 NA
ATOM      3  C3  <0> d           1.723  -0.222  -0.016  0.00  0.00     0.185 A 
ATOM      4  S2  <0> d           0.002  -0.004   0.002  0.00  0.00     0.052 SA
ATOM      5  N2  <0> d          -0.021   1.708   0.011  0.00  0.00    -0.181 NA
ENDROOT
BRANCH   1   6
ATOM      6  S1  <0> d           1.785   3.686   0.004  0.00  0.00    -0.094 SA
BRANCH   6   7
ATOM      7  C1  <0> d           0.234   4.627   0.024  0.00  0.00    -0.027 C 
ATOM      8  H1  <0> d          -0.352   4.381  -0.861  0.00  0.00     0.042 H 
ATOM      9  H2  <0> d          -0.334   4.372   0.919  0.00  0.00     0.042 H 
ATOM     10  H3  <0> d           0.457   5.694   0.028  0.00  0.00     0.042 H 
ENDBRANCH   6   7
ENDBRANCH   1   6
BRANCH   3  11
ATOM     11  N3  <0> d           2.455  -1.395  -0.028  0.00  0.00    -0.377 N 
ATOM     12  H4  <0> d           1.999  -2.252  -0.028  0.00  0.00     0.158 HD
ATOM     13  H5  <0> d           3.424  -1.362  -0.037  0.00  0.00     0.158 HD
ENDBRANCH   3  11
TORSDOF 3
