REMARK  5 active torsions:
REMARK  status: ('A' for Active; 'I' for Inactive)
REMARK    1  A    between atoms: C1_1  and  C2_2 
REMARK    2  A    between atoms: C5_6  and  C6_8 
REMARK    3  A    between atoms: C6_8  and  C7_9 
REMARK    4  A    between atoms: C6_8  and  C8_10 
REMARK    5  A    between atoms: C6_8  and  C9_11 
ROOT
ATOM      1  C6  <0> d          -4.139   2.425   2.265  0.00  0.00     0.011 C 
ENDROOT
BRANCH   1   2
ATOM      2  C5  <0> d          -2.650   2.203   2.319  0.00  0.00     0.133 A 
ATOM      3  N1  <0> d          -2.006   2.439   3.444  0.00  0.00    -0.245 NA
ATOM      4  C4  <0> d          -0.698   2.255   3.529  0.00  0.00     0.006 A 
ATOM      5  C3  <0> d          -0.006   1.809   2.413  0.00  0.00    -0.043 A 
ATOM      6  H5  <0> d          -0.176   2.450   4.454  0.00  0.00     0.114 H 
ATOM      7  C2  <0> d          -0.718   1.572   1.248  0.00  0.00     0.034 A 
ATOM      8  H4  <0> d           1.061   1.651   2.452  0.00  0.00     0.088 H 
ATOM      9  N2  <0> d          -2.024   1.783   1.237  0.00  0.00    -0.238 NA
BRANCH   7  10
ATOM     10  C1  <0> d          -0.013   1.086   0.008  0.00  0.00    -0.035 C 
ATOM     11  H1  <0> d           1.061   0.972   0.218  0.00  0.00     0.035 H 
ATOM     12  H2  <0> d          -0.153   1.815  -0.803  0.00  0.00     0.035 H 
ATOM     13  H3  <0> d          -0.432   0.115  -0.295  0.00  0.00     0.035 H 
ENDBRANCH   7  10
ENDBRANCH   1   2
BRANCH   1  14
ATOM     14  C7  <0> d          -4.631   2.914   3.629  0.00  0.00    -0.063 C 
ATOM     15  H6  <0> d          -5.718   3.077   3.590  0.00  0.00     0.029 H 
ATOM     16  H7  <0> d          -4.128   3.859   3.883  0.00  0.00     0.029 H 
ATOM     17  H8  <0> d          -4.400   2.159   4.395  0.00  0.00     0.029 H 
ENDBRANCH   1  14
BRANCH   1  18
ATOM     18  C8  <0> d          -4.460   3.475   1.200  0.00  0.00    -0.063 C 
ATOM     19  H9  <0> d          -5.548   3.637   1.161  0.00  0.00     0.029 H 
ATOM     20  H10 <0> d          -4.107   3.123   0.220  0.00  0.00     0.029 H 
ATOM     21  H11 <0> d          -3.957   4.420   1.454  0.00  0.00     0.029 H 
ENDBRANCH   1  18
BRANCH   1  22
ATOM     22  C9  <0> d          -4.838   1.111   1.913  0.00  0.00    -0.063 C 
ATOM     23  H12 <0> d          -5.926   1.273   1.874  0.00  0.00     0.029 H 
ATOM     24  H13 <0> d          -4.607   0.355   2.679  0.00  0.00     0.029 H 
ATOM     25  H14 <0> d          -4.485   0.758   0.933  0.00  0.00     0.029 H 
ENDBRANCH   1  22
TORSDOF 5
