REMARK  8 active torsions:
REMARK  status: ('A' for Active; 'I' for Inactive)
REMARK    1  A    between atoms: C1_1  and  C2_2 
REMARK    2  A    between atoms: C2_2  and  C3_3 
REMARK    3  A    between atoms: C3_3  and  C4_5 
REMARK    4  A    between atoms: C3_3  and  C5_6 
REMARK    5  A    between atoms: C5_6  and  C6_7 
REMARK    6  A    between atoms: C6_7  and  C7_8 
REMARK    7  A    between atoms: C7_8  and  C8_9 
REMARK    8  A    between atoms: C8_9  and  C9_10 
ROOT
ATOM      1  C5  <0> d          -0.064   0.971   2.503  0.00  0.00    -0.062 C 
ATOM      2  H10 <0> d          -0.047  -0.115   2.410  0.00  0.00     0.033 H 
ATOM      3  H11 <0> d           0.957   1.344   2.587  0.00  0.00     0.033 H 
ENDROOT
BRANCH   1   4
ATOM      4  C3  <0> d          -0.729   1.579   1.267  0.00  0.00    -0.058 C 
ATOM      5  H1  <0> d          -1.776   1.277   1.232  0.00  0.00     0.039 H 
BRANCH   4   6
ATOM      6  C2  <0> d          -0.013   1.086   0.008  0.00  0.00    -0.065 C 
ATOM      7  H5  <0> d           0.002  -0.004   0.002  0.00  0.00     0.033 H 
ATOM      8  H6  <0> d           1.010   1.463   0.000  0.00  0.00     0.033 H 
BRANCH   6   9
ATOM      9  C1  <0> d          -0.753   1.593  -1.232  0.00  0.00    -0.076 C 
ATOM     10  H2  <0> d          -1.775   1.215  -1.224  0.00  0.00     0.027 H 
ATOM     11  H3  <0> d          -0.767   2.683  -1.226  0.00  0.00     0.027 H 
ATOM     12  H4  <0> d          -0.242   1.241  -2.128  0.00  0.00     0.027 H 
ENDBRANCH   6   9
ENDBRANCH   4   6
BRANCH   4  13
ATOM     13  C4  <0> d          -0.641   3.105   1.339  0.00  0.00    -0.073 C 
ATOM     14  H7  <0> d          -1.151   3.457   2.235  0.00  0.00     0.028 H 
ATOM     15  H8  <0> d           0.406   3.407   1.374  0.00  0.00     0.028 H 
ATOM     16  H9  <0> d          -1.115   3.538   0.458  0.00  0.00     0.028 H 
ENDBRANCH   4  13
ENDBRANCH   1   4
BRANCH   1  17
ATOM     17  C6  <0> d          -0.855   1.364   3.753  0.00  0.00    -0.064 C 
ATOM     18  H12 <0> d          -0.871   2.450   3.846  0.00  0.00     0.033 H 
ATOM     19  H13 <0> d          -1.875   0.991   3.669  0.00  0.00     0.033 H 
BRANCH  17  20
ATOM     20  C7  <0> d          -0.190   0.756   4.989  0.00  0.00    -0.056 C 
ATOM     21  H14 <0> d          -0.173  -0.330   4.896  0.00  0.00     0.033 H 
ATOM     22  H15 <0> d           0.831   1.129   5.073  0.00  0.00     0.033 H 
BRANCH  20  23
ATOM     23  C8  <0> d          -0.981   1.149   6.239  0.00  0.00     0.016 C 
ATOM     24  H16 <0> d          -0.997   2.235   6.332  0.00  0.00     0.049 H 
ATOM     25  H17 <0> d          -2.001   0.776   6.155  0.00  0.00     0.049 H 
BRANCH  23  26
ATOM     26  C9  <0> d          -0.325   0.550   7.457  0.00  0.00     0.172 C 
ATOM     27  O1  <0> d           0.672  -0.122   7.338  0.00  0.00    -0.648 OA
ATOM     28  O2  <0> d          -0.850   0.763   8.674  0.00  0.00    -0.648 OA
ENDBRANCH  23  26
ENDBRANCH  20  23
ENDBRANCH  17  20
ENDBRANCH   1  17
TORSDOF 8
