REMARK  3 active torsions:
REMARK  status: ('A' for Active; 'I' for Inactive)
REMARK    1  A    between atoms: C2_2  and  C7_9 
REMARK    2  A    between atoms: C4_4  and  N2_8 
REMARK    3  A    between atoms: C6_6  and  N1_7 
ROOT
ATOM      1  C1  <0> d           2.407   0.019  -0.021  0.00  0.00    -0.041 A 
ATOM      2  C2  <0> d           2.392   1.415  -0.013  0.00  0.00     0.045 A 
ATOM      3  C3  <0> d           1.174   2.096   0.002  0.00  0.00    -0.041 A 
ATOM      4  C4  <0> d          -0.017   1.385   0.010  0.00  0.00     0.028 A 
ATOM      5  C5  <0> d           0.002  -0.004   0.002  0.00  0.00    -0.033 A 
ATOM      6  C6  <0> d           1.212  -0.685  -0.013  0.00  0.00     0.028 A 
ATOM      7  H1  <0> d           3.347  -0.511  -0.033  0.00  0.00     0.088 H 
ATOM      8  H2  <0> d           1.159   3.176   0.008  0.00  0.00     0.088 H 
ATOM      9  H3  <0> d          -0.927  -0.555   0.008  0.00  0.00     0.090 H 
ENDROOT
BRANCH   2  10
ATOM     10  C7  <0> d           3.662   2.169  -0.021  0.00  0.00     0.209 C 
ATOM     11  O1  <0> d           4.721   1.575  -0.034  0.00  0.00    -0.644 OA
ATOM     12  O2  <0> d           3.646   3.516  -0.013  0.00  0.00    -0.644 OA
ENDBRANCH   2  10
BRANCH   6  13
ATOM     13  N1  <0> d           1.226  -2.082  -0.021  0.00  0.00    -0.399 N 
ATOM     14  H4  <0> d           0.391  -2.576  -0.016  0.00  0.00     0.156 HD
ATOM     15  H5  <0> d           2.071  -2.559  -0.032  0.00  0.00     0.156 HD
ENDBRANCH   6  13
BRANCH   4  16
ATOM     16  N2  <0> d          -1.236   2.066   0.019  0.00  0.00    -0.399 N 
ATOM     17  H6  <0> d          -2.070   1.569   0.020  0.00  0.00     0.156 HD
ATOM     18  H7  <0> d          -1.250   3.035   0.025  0.00  0.00     0.156 HD
ENDBRANCH   4  16
TORSDOF 3
