REMARK  3 active torsions:
REMARK  status: ('A' for Active; 'I' for Inactive)
REMARK    1  A    between atoms: C1_1  and  S1_2 
REMARK    2  A    between atoms: S1_2  and  C2_4 
REMARK    3  A    between atoms: C5_7  and  O2_10 
ROOT
ATOM      1  C2  <0> d           0.002  -0.004   0.002  0.00  0.00     0.031 A 
ATOM      2  C3  <0> d           1.108  -0.682   0.481  0.00  0.00    -0.062 A 
ATOM      3  C4  <0> d           1.127  -2.063   0.480  0.00  0.00    -0.050 A 
ATOM      4  C5  <0> d           0.039  -2.770  -0.013  0.00  0.00     0.065 A 
ATOM      5  C6  <0> d          -1.067  -2.088  -0.498  0.00  0.00    -0.050 A 
ATOM      6  C7  <0> d          -1.083  -0.706  -0.490  0.00  0.00    -0.062 A 
ATOM      7  H4  <0> d           1.956  -0.131   0.861  0.00  0.00     0.085 H 
ATOM      8  H5  <0> d           1.989  -2.592   0.859  0.00  0.00     0.087 H 
ATOM      9  H6  <0> d          -1.914  -2.636  -0.882  0.00  0.00     0.087 H 
ATOM     10  H7  <0> d          -1.943  -0.174  -0.868  0.00  0.00     0.085 H 
ENDROOT
BRANCH   1  11
ATOM     11  S1  <0> d          -0.022   1.758   0.012  0.00  0.00     0.045 S 
ATOM     12  O1  <0> d           1.352   2.120   0.001  0.00  0.00    -0.253 OA
BRANCH  11  13
ATOM     13  C1  <0> d          -0.745   2.178   1.621  0.00  0.00    -0.004 C 
ATOM     14  H1  <0> d          -0.121   1.771   2.417  0.00  0.00     0.045 H 
ATOM     15  H2  <0> d          -0.802   3.262   1.722  0.00  0.00     0.045 H 
ATOM     16  H3  <0> d          -1.746   1.753   1.692  0.00  0.00     0.045 H 
ENDBRANCH  11  13
ENDBRANCH   1  11
BRANCH   4  17
ATOM     17  O2  <0> d           0.058  -4.129  -0.020  0.00  0.00    -0.361 OA
ATOM     18  H8  <0> d           0.423  -4.513  -0.829  0.00  0.00     0.217 HD
ENDBRANCH   4  17
TORSDOF 3
