REMARK  2 active torsions:
REMARK  status: ('A' for Active; 'I' for Inactive)
REMARK    1  A    between atoms: C3_3  and  C5_5 
REMARK    2  A    between atoms: C3_3  and  N1_9 
ROOT
ATOM      1  C1  <0> d          -0.019   1.534   0.011  0.00  0.00    -0.060 C 
ATOM      2  C2  <0> d           1.518   1.476  -0.004  0.00  0.00    -0.023 C 
ATOM      3  C3  <0> d           1.381   0.097  -0.670  0.00  0.00     0.251 C 
ATOM      4  C4  <0> d           0.002  -0.004   0.002  0.00  0.00    -0.023 C 
ATOM      5  H1  <0> d          -0.431   1.960   0.925  0.00  0.00     0.033 H 
ATOM      6  H2  <0> d          -0.448   1.969  -0.892  0.00  0.00     0.033 H 
ATOM      7  H3  <0> d           1.977   2.228  -0.647  0.00  0.00     0.037 H 
ATOM      8  H4  <0> d           1.963   1.439   0.990  0.00  0.00     0.037 H 
ATOM      9  H5  <0> d           0.033  -0.446   0.998  0.00  0.00     0.037 H 
ATOM     10  H6  <0> d          -0.763  -0.448  -0.635  0.00  0.00     0.037 H 
ENDROOT
BRANCH   3  11
ATOM     11  C5  <0> d           2.390  -0.934  -0.158  0.00  0.00     0.422 C 
ATOM     12  F1  <0> d           2.213  -1.115   1.218  0.00  0.00    -0.168 F 
ATOM     13  F2  <0> d           2.189  -2.151  -0.818  0.00  0.00    -0.168 F 
ATOM     14  F3  <0> d           3.689  -0.477  -0.405  0.00  0.00    -0.168 F 
ENDBRANCH   3  11
BRANCH   3  15
ATOM     15  N1  <0> d           1.319   0.155  -2.137  0.00  0.00     0.097 N 
ATOM     16  H7  <0> d           1.230  -0.770  -2.532  0.00  0.00     0.314 HD
ATOM     17  H8  <0> d           0.566   0.753  -2.443  0.00  0.00     0.314 HD
ENDBRANCH   3  15
TORSDOF 2
