REMARK  0 active torsions:
REMARK  status: ('A' for Active; 'I' for Inactive)
ROOT
ATOM      1  C1  <0> d          -0.016   1.355   0.009  0.00  0.00    -0.078 A 
ATOM      2  C2  <0> d           1.195   2.068   0.002  0.00  0.00    -0.067 A 
ATOM      3  C3  <0> d           2.372   1.411  -0.013  0.00  0.00    -0.014 A 
ATOM      4  N1  <0> d           2.407   0.045  -0.021  0.00  0.00    -0.315 N 
ATOM      5  C4  <0> d           3.439  -0.846  -0.035  0.00  0.00     0.024 A 
ATOM      6  C5  <0> d           2.889  -2.096  -0.037  0.00  0.00     0.154 A 
ATOM      7  N2  <0> d           1.550  -1.966  -0.023  0.00  0.00    -0.218 NA
ATOM      8  C6  <0> d           1.242  -0.679  -0.013  0.00  0.00     0.135 A 
ATOM      9  C7  <0> d           0.002  -0.004   0.002  0.00  0.00    -0.038 A 
ATOM     10  C8  <0> d           3.612  -3.332  -0.051  0.00  0.00     0.121 C 
ATOM     11  N3  <0> d           4.186  -4.313  -0.062  0.00  0.00    -0.190 NA
ATOM     12  H1  <0> d          -0.958   1.885   0.026  0.00  0.00     0.083 H 
ATOM     13  H2  <0> d           1.182   3.148   0.007  0.00  0.00     0.085 H 
ATOM     14  H3  <0> d           3.296   1.970  -0.019  0.00  0.00     0.112 H 
ATOM     15  H4  <0> d           4.492  -0.608  -0.044  0.00  0.00     0.117 H 
ATOM     16  H5  <0> d          -0.923  -0.562   0.008  0.00  0.00     0.089 H 
ENDROOT
TORSDOF 0
