REMARK  4 active torsions:
REMARK  status: ('A' for Active; 'I' for Inactive)
REMARK    1  A    between atoms: C1_1  and  C2_2 
REMARK    2  A    between atoms: C6_7  and  C7_8 
REMARK    3  A    between atoms: C7_8  and  O2_10 
REMARK    4  A    between atoms: O2_10  and  C8_11 
ROOT
ATOM      1  C2  <0> d           1.459  -0.310  -0.415  0.00  0.00     0.042 C 
ATOM      2  H1  <0> d           1.530  -0.415  -1.498  0.00  0.00     0.083 H 
ATOM      3  C3  <0> d           0.002  -0.004   0.002  0.00  0.00    -0.035 C 
ATOM      4  C4  <0> d          -0.019   1.540   0.011  0.00  0.00    -0.018 C 
ATOM      5  C5  <0> d           1.438   1.949  -0.001  0.00  0.00     0.052 C 
ATOM      6  C6  <0> d           1.887   3.216  -0.042  0.00  0.00     0.018 C 
ATOM      7  O3  <0> d           2.218   0.851   0.035  0.00  0.00    -0.350 OA
ATOM      8  H5  <0> d          -0.208  -0.400   0.995  0.00  0.00     0.037 H 
ATOM      9  H6  <0> d          -0.705  -0.398  -0.729  0.00  0.00     0.037 H 
ATOM     10  H7  <0> d          -0.525   1.918  -0.878  0.00  0.00     0.043 H 
ATOM     11  H8  <0> d          -0.508   1.908   0.912  0.00  0.00     0.043 H 
ATOM     12  H9  <0> d           1.185   4.037  -0.070  0.00  0.00     0.096 H 
ENDROOT
BRANCH   6  13
ATOM     13  C7  <0> d           3.279   3.474  -0.049  0.00  0.00     0.284 C 
ATOM     14  O1  <0> d           4.069   2.550  -0.018  0.00  0.00    -0.260 OA
BRANCH  13  15
ATOM     15  O2  <0> d           3.729   4.746  -0.090  0.00  0.00    -0.323 OA
BRANCH  15  16
ATOM     16  C8  <0> d           5.146   4.933  -0.095  0.00  0.00     0.013 C 
ATOM     17  H10 <0> d           5.372   5.998  -0.130  0.00  0.00     0.067 H 
ATOM     18  H11 <0> d           5.572   4.500   0.810  0.00  0.00     0.067 H 
ATOM     19  H12 <0> d           5.574   4.442  -0.969  0.00  0.00     0.067 H 
ENDBRANCH  15  16
ENDBRANCH  13  15
ENDBRANCH   6  13
BRANCH   1  20
ATOM     20  C1  <0> d           1.958  -1.579   0.278  0.00  0.00    -0.052 C 
ATOM     21  H2  <0> d           1.324  -2.420  -0.004  0.00  0.00     0.030 H 
ATOM     22  H3  <0> d           2.985  -1.780  -0.026  0.00  0.00     0.030 H 
ATOM     23  H4  <0> d           1.919  -1.442   1.359  0.00  0.00     0.030 H 
ENDBRANCH   1  20
TORSDOF 4
