REMARK  1 active torsions:
REMARK  status: ('A' for Active; 'I' for Inactive)
REMARK    1  A    between atoms: C6_6  and  N1_7 
ROOT
ATOM      1  C1  <0> d          -0.017   1.391   0.010  0.00  0.00    -0.056 A 
ATOM      2  C2  <0> d           1.147   2.105   0.002  0.00  0.00    -0.053 A 
ATOM      3  C3  <0> d           2.372   1.443  -0.013  0.00  0.00     0.062 A 
ATOM      4  C4  <0> d           2.403   0.035  -0.021  0.00  0.00     0.013 A 
ATOM      5  C5  <0> d           1.203  -0.685  -0.013  0.00  0.00    -0.044 A 
ATOM      6  C6  <0> d           0.002  -0.004   0.002  0.00  0.00     0.026 A 
ATOM      7  C7  <0> d           3.812  -0.344  -0.037  0.00  0.00     0.034 A 
ATOM      8  N2  <0> d           4.519   0.749  -0.038  0.00  0.00    -0.186 NA
ATOM      9  N3  <0> d           3.678   1.866  -0.024  0.00  0.00    -0.278 N 
ATOM     10  H1  <0> d           3.970   2.791  -0.022  0.00  0.00     0.189 HD
ATOM     11  H2  <0> d          -0.963   1.912   0.026  0.00  0.00     0.087 H 
ATOM     12  H3  <0> d           1.117   3.184   0.008  0.00  0.00     0.087 H 
ATOM     13  H4  <0> d           1.217  -1.765  -0.019  0.00  0.00     0.088 H 
ATOM     14  H7  <0> d           4.199  -1.352  -0.046  0.00  0.00     0.118 H 
ENDROOT
BRANCH   6  15
ATOM     15  N1  <0> d          -1.202  -0.717   0.010  0.00  0.00    -0.399 N 
ATOM     16  H5  <0> d          -2.047  -0.241   0.020  0.00  0.00     0.156 HD
ATOM     17  H6  <0> d          -1.192  -1.687   0.004  0.00  0.00     0.156 HD
ENDBRANCH   6  15
TORSDOF 1
