REMARK  5 active torsions:
REMARK  status: ('A' for Active; 'I' for Inactive)
REMARK    1  A    between atoms: C1_1  and  C2_3 
REMARK    2  A    between atoms: C1_1  and  C4_9 
REMARK    3  A    between atoms: C1_1  and  O4_12 
REMARK    4  A    between atoms: C2_3  and  C3_5 
REMARK    5  A    between atoms: C2_3  and  O2_8 
REMARK       I    between atoms: C3_5  and  N1_7 
REMARK       I    between atoms: C4_9  and  N2_11 
ROOT
ATOM      1  C1  <0> d           2.064   1.114   1.238  0.00  0.00     0.145 C 
ATOM      2  H1  <0> d           3.018   1.639   1.277  0.00  0.00     0.102 H 
ENDROOT
BRANCH   1   3
ATOM      3  C2  <0> d           1.286   1.562  -0.002  0.00  0.00     0.145 C 
ATOM      4  H2  <0> d           1.186   2.647   0.005  0.00  0.00     0.102 H 
BRANCH   3   5
ATOM      5  C3  <0> d           2.028   1.134  -1.242  0.00  0.00     0.247 C 
ATOM      6  O1  <0> d           1.535   0.319  -1.993  0.00  0.00    -0.271 OA
ATOM      7  N1  <0> d           3.240   1.657  -1.516  0.00  0.00    -0.368 N 
ATOM      8  H3  <0> d           3.635   2.308  -0.915  0.00  0.00     0.159 HD
ATOM      9  H4  <0> d           3.718   1.381  -2.314  0.00  0.00     0.159 HD
ENDBRANCH   3   5
BRANCH   3  10
ATOM     10  O2  <0> d          -0.011   0.963   0.007  0.00  0.00    -0.383 OA
ATOM     11  H5  <0> d           0.002  -0.004   0.002  0.00  0.00     0.210 HD
ENDBRANCH   3  10
ENDBRANCH   1   3
BRANCH   1  12
ATOM     12  C4  <0> d           1.264   1.432   2.474  0.00  0.00     0.247 C 
ATOM     13  O3  <0> d           0.849   0.534   3.176  0.00  0.00    -0.271 OA
ATOM     14  N2  <0> d           1.009   2.715   2.801  0.00  0.00    -0.368 N 
ATOM     15  H6  <0> d           1.341   3.433   2.239  0.00  0.00     0.159 HD
ATOM     16  H7  <0> d           0.494   2.920   3.597  0.00  0.00     0.159 HD
ENDBRANCH   1  12
BRANCH   1  17
ATOM     17  O4  <0> d           2.297  -0.294   1.171  0.00  0.00    -0.383 OA
ATOM     18  H8  <0> d           1.490  -0.825   1.133  0.00  0.00     0.210 HD
ENDBRANCH   1  17
TORSDOF 5
