REMARK  3 active torsions:
REMARK  status: ('A' for Active; 'I' for Inactive)
REMARK    1  A    between atoms: C1_1  and  O1_2 
REMARK    2  A    between atoms: O1_2  and  C2_3 
REMARK    3  A    between atoms: C7_8  and  N1_9 
ROOT
ATOM      1  C2  <0> d           2.400   0.021  -0.021  0.00  0.00     0.097 A 
ATOM      2  C3  <0> d           1.206  -0.683  -0.013  0.00  0.00    -0.048 A 
ATOM      3  C4  <0> d           0.002  -0.004   0.002  0.00  0.00    -0.077 A 
ATOM      4  C5  <0> d          -0.017   1.379   0.010  0.00  0.00    -0.043 A 
ATOM      5  C6  <0> d           1.171   2.090   0.002  0.00  0.00     0.145 A 
ATOM      6  C7  <0> d           2.384   1.413  -0.014  0.00  0.00     0.098 A 
ATOM      7  F1  <0> d           1.150   3.440   0.010  0.00  0.00    -0.204 F 
ATOM      8  H4  <0> d           1.217  -1.763  -0.019  0.00  0.00     0.087 H 
ATOM      9  H5  <0> d          -0.927  -0.555   0.008  0.00  0.00     0.083 H 
ATOM     10  H6  <0> d          -0.960   1.905   0.017  0.00  0.00     0.088 H 
ENDROOT
BRANCH   1  11
ATOM     11  O1  <0> d           3.585  -0.646  -0.036  0.00  0.00    -0.354 OA
BRANCH  11  12
ATOM     12  C1  <0> d           3.525  -2.074  -0.043  0.00  0.00     0.010 C 
ATOM     13  H1  <0> d           3.005  -2.420   0.851  0.00  0.00     0.066 H 
ATOM     14  H2  <0> d           2.988  -2.411  -0.929  0.00  0.00     0.066 H 
ATOM     15  H3  <0> d           4.536  -2.480  -0.055  0.00  0.00     0.066 H 
ENDBRANCH  11  12
ENDBRANCH   1  11
BRANCH   6  16
ATOM     16  N1  <0> d           3.588   2.130  -0.021  0.00  0.00    -0.394 N 
ATOM     17  H7  <0> d           4.434   1.656  -0.032  0.00  0.00     0.156 HD
ATOM     18  H8  <0> d           3.575   3.100  -0.016  0.00  0.00     0.156 HD
ENDBRANCH   6  16
TORSDOF 3
