REMARK  2 active torsions:
REMARK  status: ('A' for Active; 'I' for Inactive)
REMARK    1  A    between atoms: C1_1  and  C2_2 
REMARK    2  A    between atoms: C1_1  and  O1_4 
ROOT
ATOM      1  C1  <0> d          -0.019   1.526   0.010  0.00  0.00     0.041 C 
ATOM      2  H1  <0> d          -0.546   1.887  -0.873  0.00  0.00     0.077 H 
ATOM      3  H2  <0> d          -0.529   1.877   0.907  0.00  0.00     0.077 H 
ENDROOT
BRANCH   1   4
ATOM      4  C2  <0> d           0.002  -0.004   0.002  0.00  0.00     0.077 C 
ATOM      5  F1  <0> d           0.577  -0.469   1.190  0.00  0.00    -0.253 F 
ATOM      6  H3  <0> d          -1.018  -0.381  -0.080  0.00  0.00     0.085 H 
ATOM      7  H4  <0> d           0.588  -0.355  -0.847  0.00  0.00     0.085 H 
ENDBRANCH   1   4
BRANCH   1   8
ATOM      8  O1  <0> d           1.322   2.020   0.000  0.00  0.00    -0.399 OA
ATOM      9  H5  <0> d           1.385   2.985   0.005  0.00  0.00     0.209 HD
ENDBRANCH   1   8
TORSDOF 2
