REMARK  2 active torsions:
REMARK  status: ('A' for Active; 'I' for Inactive)
REMARK    1  A    between atoms: C1_1  and  C2_2 
REMARK    2  A    between atoms: C4_4  and  C7_9 
ROOT
ATOM      1  C2  <0> d           2.472   5.112   0.005  0.00  0.00    -0.003 A 
ATOM      2  C3  <0> d           2.472   3.730   0.004  0.00  0.00    -0.055 A 
ATOM      3  C4  <0> d           1.238   3.066   0.007  0.00  0.00     0.059 A 
ATOM      4  C5  <0> d           0.064   3.821   0.022  0.00  0.00     0.022 A 
ATOM      5  N1  <0> d           0.114   5.136   0.028  0.00  0.00    -0.231 NA
ATOM      6  C6  <0> d           1.262   5.791   0.021  0.00  0.00     0.215 A 
ATOM      7  F1  <0> d           1.258   7.142   0.027  0.00  0.00    -0.184 F 
ATOM      8  H4  <0> d           3.399   3.177  -0.003  0.00  0.00     0.086 H 
ATOM      9  H5  <0> d          -0.893   3.322   0.029  0.00  0.00     0.116 H 
ENDROOT
BRANCH   1  10
ATOM     10  C1  <0> d           3.773   5.874  -0.004  0.00  0.00    -0.047 C 
ATOM     11  H1  <0> d           4.096   6.052   1.022  0.00  0.00     0.033 H 
ATOM     12  H2  <0> d           4.531   5.292  -0.528  0.00  0.00     0.033 H 
ATOM     13  H3  <0> d           3.631   6.828  -0.511  0.00  0.00     0.033 H 
ENDBRANCH   1  10
BRANCH   3  14
ATOM     14  C7  <0> d           1.181   1.591  -0.001  0.00  0.00     0.210 C 
ATOM     15  O1  <0> d           2.209   0.943  -0.014  0.00  0.00    -0.644 OA
ATOM     16  O2  <0> d          -0.011   0.963   0.007  0.00  0.00    -0.644 OA
ENDBRANCH   3  14
TORSDOF 2
