REMARK  0 active torsions:
REMARK  status: ('A' for Active; 'I' for Inactive)
ROOT
ATOM      1  C1  <0> d           1.546  -0.340  -0.001  0.00  0.00    -0.040 C 
ATOM      2  C2  <0> d           1.937   0.816  -1.006  0.00  0.00    -0.047 C 
ATOM      3  C3  <0> d           1.512   1.953  -0.002  0.00  0.00    -0.040 C 
ATOM      4  C4  <0> d          -0.019   1.571   0.011  0.00  0.00     0.070 C 
ATOM      5  C5  <0> d           0.002  -0.004   0.002  0.00  0.00     0.070 C 
ATOM      6  C6  <0> d          -0.190  -0.355  -1.527  0.00  0.00    -0.040 C 
ATOM      7  C7  <0> d           0.745   0.805  -2.054  0.00  0.00    -0.047 C 
ATOM      8  C8  <0> d          -0.207   1.938  -1.512  0.00  0.00    -0.040 C 
ATOM      9  C9  <0> d          -0.845  -0.689   0.992  0.00  0.00     0.071 C 
ATOM     10  N1  <0> d          -1.498  -1.218   1.756  0.00  0.00    -0.196 NA
ATOM     11  C10 <0> d          -0.884   2.225   1.006  0.00  0.00     0.071 C 
ATOM     12  N2  <0> d          -1.551   2.729   1.775  0.00  0.00    -0.196 NA
ATOM     13  H1  <0> d           2.000  -0.203   0.980  0.00  0.00     0.036 H 
ATOM     14  H2  <0> d           1.752  -1.329  -0.409  0.00  0.00     0.036 H 
ATOM     15  H3  <0> d           2.956   0.831  -1.393  0.00  0.00     0.040 H 
ATOM     16  H4  <0> d           1.684   2.949  -0.411  0.00  0.00     0.036 H 
ATOM     17  H5  <0> d           1.974   1.832   0.978  0.00  0.00     0.036 H 
ATOM     18  H6  <0> d           0.199  -1.342  -1.775  0.00  0.00     0.036 H 
ATOM     19  H7  <0> d          -1.223  -0.232  -1.851  0.00  0.00     0.036 H 
ATOM     20  H8  <0> d           1.012   0.804  -3.110  0.00  0.00     0.040 H 
ATOM     21  H9  <0> d          -1.237   1.804  -1.844  0.00  0.00     0.036 H 
ATOM     22  H10 <0> d           0.167   2.936  -1.744  0.00  0.00     0.036 H 
ENDROOT
TORSDOF 0
