REMARK  2 active torsions:
REMARK  status: ('A' for Active; 'I' for Inactive)
REMARK    1  A    between atoms: C5_5  and  C7_7 
REMARK    2  A    between atoms: C7_7  and  N2_11 
ROOT
ATOM      1  C7  <0> d           3.710  -0.732  -0.037  0.00  0.00     0.237 C 
ATOM      2  H1  <0> d           4.525  -0.085  -0.395  0.00  0.00     0.119 H 
ATOM      3  C8  <0> d           4.030  -1.192   1.325  0.00  0.00     0.100 C 
ATOM      4  N1  <0> d           4.276  -1.547   2.375  0.00  0.00    -0.195 NA
ENDROOT
BRANCH   1   5
ATOM      5  C5  <0> d           2.402   0.016  -0.020  0.00  0.00    -0.010 A 
ATOM      6  C4  <0> d           2.398   1.395  -0.013  0.00  0.00    -0.054 A 
ATOM      7  C3  <0> d           1.185   2.087   0.002  0.00  0.00     0.045 A 
ATOM      8  H4  <0> d           3.331   1.939  -0.020  0.00  0.00     0.086 H 
ATOM      9  C2  <0> d          -0.017   1.375   0.010  0.00  0.00    -0.063 A 
ATOM     10  C9  <0> d           1.173   3.519   0.010  0.00  0.00     0.099 C 
ATOM     11  C1  <0> d           0.002  -0.004   0.002  0.00  0.00    -0.081 A 
ATOM     12  H3  <0> d          -0.959   1.904   0.017  0.00  0.00     0.085 H 
ATOM     13  C6  <0> d           1.208  -0.683  -0.013  0.00  0.00    -0.074 A 
ATOM     14  H2  <0> d          -0.926  -0.555   0.008  0.00  0.00     0.083 H 
ATOM     15  H5  <0> d           1.216  -1.762  -0.019  0.00  0.00     0.084 H 
ATOM     16  N3  <0> d           1.164   4.655   0.017  0.00  0.00    -0.191 NA
ENDBRANCH   1   5
BRANCH   1  17
ATOM     17  N2  <0> d           3.600  -1.891  -0.932  0.00  0.00     0.100 N 
ATOM     18  H6  <0> d           4.555  -2.437  -0.944  0.00  0.00     0.315 HD
ATOM     19  H7  <0> d           2.802  -2.557  -0.574  0.00  0.00     0.315 HD
ENDBRANCH   1  17
TORSDOF 2
