REMARK  0 active torsions:
REMARK  status: ('A' for Active; 'I' for Inactive)
ROOT
ATOM      1  C1  <0> d          -0.016   1.336   0.009  0.00  0.00     0.037 A 
ATOM      2  C2  <0> d           1.251   1.782  -0.000  0.00  0.00     0.023 A 
ATOM      3  N1  <0> d           2.068   0.669  -0.014  0.00  0.00    -0.120 N 
ATOM      4  C3  <0> d           1.255  -0.432  -0.012  0.00  0.00     0.737 A 
ATOM      5  N2  <0> d           0.002  -0.004   0.002  0.00  0.00    -0.073 NA
ATOM      6  N3  <0> d           1.733  -1.702  -0.024  0.00  0.00    -0.049 NA
ATOM      7  C4  <0> d           3.004  -1.986  -0.037  0.00  0.00     0.125 A 
ATOM      8  C5  <0> d           3.998  -0.843  -0.041  0.00  0.00     0.065 A 
ATOM      9  C6  <0> d           3.413   0.556  -0.028  0.00  0.00     0.249 A 
ATOM     10  O1  <0> d           4.125   1.533  -0.029  0.00  0.00    -0.272 OA
ATOM     11  N4  <0> d           3.430  -3.283  -0.048  0.00  0.00    -0.387 N 
ATOM     12  H1  <0> d          -0.902   1.954   0.025  0.00  0.00     0.117 H 
ATOM     13  H2  <0> d           1.570   2.814   0.002  0.00  0.00     0.115 H 
ATOM     14  H3  <0> d           4.641  -0.950   0.833  0.00  0.00     0.059 H 
ATOM     15  H4  <0> d           4.624  -0.940  -0.928  0.00  0.00     0.059 H 
ATOM     16  H5  <0> d           2.784  -4.006  -0.045  0.00  0.00     0.157 HD
ATOM     17  H6  <0> d           4.380  -3.481  -0.058  0.00  0.00     0.157 HD
ENDROOT
TORSDOF 0
