REMARK  7 active torsions:
REMARK  status: ('A' for Active; 'I' for Inactive)
REMARK    1  A    between atoms: C1_1  and  C2_2 
REMARK    2  A    between atoms: C2_2  and  C3_3 
REMARK    3  A    between atoms: C3_3  and  C4_4 
REMARK    4  A    between atoms: C3_3  and  C5_6 
REMARK    5  A    between atoms: C3_3  and  C6_8 
REMARK    6  A    between atoms: C4_4  and  O1_5 
REMARK    7  A    between atoms: C5_6  and  O2_7 
ROOT
ATOM      1  C3  <0> d          -0.018   1.503   0.010  0.00  0.00     0.090 C 
ENDROOT
BRANCH   1   2
ATOM      2  C2  <0> d          -0.735   1.996   1.269  0.00  0.00    -0.048 C 
ATOM      3  H4  <0> d          -0.749   3.086   1.275  0.00  0.00     0.034 H 
ATOM      4  H5  <0> d          -1.757   1.619   1.277  0.00  0.00     0.034 H 
BRANCH   2   5
ATOM      5  C1  <0> d           0.005   1.489   2.509  0.00  0.00    -0.075 C 
ATOM      6  H1  <0> d          -0.505   1.841   3.405  0.00  0.00     0.027 H 
ATOM      7  H2  <0> d           0.020   0.400   2.503  0.00  0.00     0.027 H 
ATOM      8  H3  <0> d           1.028   1.867   2.501  0.00  0.00     0.027 H 
ENDBRANCH   2   5
ENDBRANCH   1   2
BRANCH   1   9
ATOM      9  C4  <0> d           1.417   2.032  -0.001  0.00  0.00     0.035 C 
ATOM     10  H6  <0> d           1.944   1.671   0.882  0.00  0.00     0.076 H 
ATOM     11  H7  <0> d           1.927   1.681  -0.897  0.00  0.00     0.076 H 
BRANCH   9  12
ATOM     12  O1  <0> d           1.398   3.461   0.007  0.00  0.00    -0.399 OA
ATOM     13  H8  <0> d           2.276   3.866   0.001  0.00  0.00     0.209 HD
ENDBRANCH   9  12
ENDBRANCH   1   9
BRANCH   1  14
ATOM     14  C5  <0> d          -0.758   2.010  -1.229  0.00  0.00     0.035 C 
ATOM     15  H9  <0> d          -1.781   1.632  -1.222  0.00  0.00     0.076 H 
ATOM     16  H10 <0> d          -0.773   3.099  -1.223  0.00  0.00     0.076 H 
BRANCH  14  17
ATOM     17  O2  <0> d          -0.089   1.549  -2.405  0.00  0.00    -0.399 OA
ATOM     18  H11 <0> d          -0.505   1.833  -3.231  0.00  0.00     0.209 HD
ENDBRANCH  14  17
ENDBRANCH   1  14
BRANCH   1  19
ATOM     19  C6  <0> d           0.002  -0.004   0.002  0.00  0.00     0.186 C 
ATOM     20  O3  <0> d           1.056  -0.594  -0.011  0.00  0.00    -0.647 OA
ATOM     21  O4  <0> d          -1.151  -0.691   0.009  0.00  0.00    -0.647 OA
ENDBRANCH   1  19
TORSDOF 7
