REMARK  8 active torsions:
REMARK  status: ('A' for Active; 'I' for Inactive)
REMARK    1  A    between atoms: C1_1  and  C2_2 
REMARK    2  A    between atoms: C2_2  and  C3_3 
REMARK    3  A    between atoms: C2_2  and  C4_4 
REMARK    4  A    between atoms: C4_4  and  C5_6 
REMARK    5  A    between atoms: C4_4  and  O3_10 
REMARK    6  A    between atoms: C5_6  and  O2_8 
REMARK    7  A    between atoms: O2_8  and  C6_9 
REMARK    8  A    between atoms: O3_10  and  C7_11 
ROOT
ATOM      1  C4  <0> d          -0.608   1.560   1.196  0.00  0.00     0.124 C 
ATOM      2  H1  <0> d          -0.662   2.659   1.213  0.00  0.00     0.099 H 
ENDROOT
BRANCH   1   3
ATOM      3  C2  <0> d           0.087   1.049  -0.068  0.00  0.00    -0.027 C 
ATOM      4  H5  <0> d           1.129   1.403  -0.082  0.00  0.00     0.043 H 
BRANCH   3   5
ATOM      5  C1  <0> d          -0.647   1.574  -1.302  0.00  0.00    -0.070 C 
ATOM      6  H2  <0> d          -0.634   2.674  -1.296  0.00  0.00     0.028 H 
ATOM      7  H3  <0> d          -1.689   1.220  -1.288  0.00  0.00     0.028 H 
ATOM      8  H4  <0> d          -0.148   1.207  -2.211  0.00  0.00     0.028 H 
ENDBRANCH   3   5
BRANCH   3   9
ATOM      9  C3  <0> d           0.069  -0.481  -0.076  0.00  0.00    -0.070 C 
ATOM     10  H6  <0> d           0.598  -0.859   0.812  0.00  0.00     0.028 H 
ATOM     11  H7  <0> d           0.569  -0.849  -0.985  0.00  0.00     0.028 H 
ATOM     12  H8  <0> d          -0.972  -0.835  -0.062  0.00  0.00     0.028 H 
ENDBRANCH   3   9
ENDBRANCH   1   3
BRANCH   1  13
ATOM     13  C5  <0> d          -1.988   0.963   1.286  0.00  0.00     0.288 C 
ATOM     14  O1  <0> d          -2.262   0.209   2.190  0.00  0.00    -0.262 OA
BRANCH  13  15
ATOM     15  O2  <0> d          -2.914   1.269   0.363  0.00  0.00    -0.324 OA
BRANCH  15  16
ATOM     16  C6  <0> d          -4.222   0.657   0.514  0.00  0.00     0.013 C 
ATOM     17  H9  <0> d          -4.878   0.990  -0.303  0.00  0.00     0.067 H 
ATOM     18  H10 <0> d          -4.657   0.954   1.479  0.00  0.00     0.067 H 
ATOM     19  H11 <0> d          -4.120  -0.438   0.479  0.00  0.00     0.067 H 
ENDBRANCH  15  16
ENDBRANCH  13  15
ENDBRANCH   1  13
BRANCH   1  20
ATOM     20  O3  <0> d           0.152   1.180   2.345  0.00  0.00    -0.380 OA
BRANCH  20  21
ATOM     21  C7  <0> d           1.076   2.176   2.787  0.00  0.00     0.005 C 
ATOM     22  H12 <0> d           1.618   1.808   3.670  0.00  0.00     0.066 H 
ATOM     23  H13 <0> d           0.528   3.094   3.049  0.00  0.00     0.066 H 
ATOM     24  H14 <0> d           1.793   2.395   1.981  0.00  0.00     0.066 H 
ENDBRANCH  20  21
ENDBRANCH   1  20
TORSDOF 8
