REMARK  4 active torsions:
REMARK  status: ('A' for Active; 'I' for Inactive)
REMARK    1  A    between atoms: C1_1  and  C2_2 
REMARK    2  A    between atoms: C2_2  and  C3_3 
REMARK    3  A    between atoms: C3_3  and  O1_11 
REMARK    4  A    between atoms: C7_7  and  C9_10 
ROOT
ATOM      1  C3  <0> d           2.185   1.805   1.155  0.00  0.00     0.058 C 
ATOM      2  C4  <0> d           2.343   0.285   1.221  0.00  0.00    -0.036 C 
ATOM      3  C5  <0> d           0.963  -0.368   1.311  0.00  0.00    -0.062 C 
ATOM      4  C6  <0> d           0.140   0.005   0.077  0.00  0.00    -0.062 C 
ATOM      5  C7  <0> d          -0.019   1.526   0.010  0.00  0.00    -0.055 C 
ATOM      6  H1  <0> d          -0.605   1.792  -0.869  0.00  0.00     0.039 H 
ATOM      7  C8  <0> d           1.362   2.179  -0.080  0.00  0.00    -0.033 C 
ATOM      8  H7  <0> d           2.930   0.019   2.100  0.00  0.00     0.037 H 
ATOM      9  H8  <0> d           2.853  -0.067   0.324  0.00  0.00     0.037 H 
ATOM     10  H9  <0> d           0.453  -0.017   2.208  0.00  0.00     0.033 H 
ATOM     11  H10 <0> d           1.076  -1.451   1.358  0.00  0.00     0.033 H 
ATOM     12  H11 <0> d          -0.844  -0.460   0.141  0.00  0.00     0.033 H 
ATOM     13  H12 <0> d           0.650  -0.346  -0.820  0.00  0.00     0.033 H 
ATOM     14  H13 <0> d           1.872   1.827  -0.977  0.00  0.00     0.037 H 
ATOM     15  H14 <0> d           1.249   3.262  -0.127  0.00  0.00     0.037 H 
ENDROOT
BRANCH   1  16
ATOM     16  C2  <0> d           3.565   2.458   1.064  0.00  0.00    -0.040 C 
ATOM     17  H5  <0> d           4.040   2.177   0.124  0.00  0.00     0.036 H 
ATOM     18  H6  <0> d           3.458   3.542   1.106  0.00  0.00     0.036 H 
BRANCH  16  19
ATOM     19  C1  <0> d           4.431   1.986   2.234  0.00  0.00    -0.074 C 
ATOM     20  H2  <0> d           3.957   2.267   3.174  0.00  0.00     0.027 H 
ATOM     21  H3  <0> d           4.538   0.902   2.191  0.00  0.00     0.027 H 
ATOM     22  H4  <0> d           5.415   2.451   2.169  0.00  0.00     0.027 H 
ENDBRANCH  16  19
ENDBRANCH   1  16
BRANCH   1  23
ATOM     23  O1  <0> d           1.516   2.266   2.330  0.00  0.00    -0.390 OA
ATOM     24  H18 <0> d           1.982   2.063   3.153  0.00  0.00     0.210 HD
ENDBRANCH   1  23
BRANCH   5  25
ATOM     25  C9  <0> d          -0.735   2.019   1.269  0.00  0.00    -0.073 C 
ATOM     26  H15 <0> d          -0.261   1.586   2.150  0.00  0.00     0.028 H 
ATOM     27  H16 <0> d          -0.672   3.106   1.320  0.00  0.00     0.028 H 
ATOM     28  H17 <0> d          -1.781   1.717   1.234  0.00  0.00     0.028 H 
ENDBRANCH   5  25
TORSDOF 4
