REMARK  4 active torsions:
REMARK  status: ('A' for Active; 'I' for Inactive)
REMARK    1  A    between atoms: C1_1  and  C2_2 
REMARK    2  A    between atoms: C2_2  and  N1_3 
REMARK    3  A    between atoms: C4_5  and  C7_10 
REMARK    4  A    between atoms: C7_10  and  O2_11 
ROOT
ATOM      1  N1  <0> d           0.688  -0.476  -1.203  0.00  0.00    -0.352 N 
ATOM      2  C3  <0> d           0.021  -0.749  -2.482  0.00  0.00     0.003 C 
ATOM      3  C4  <0> d           1.151  -0.789  -3.535  0.00  0.00    -0.010 C 
ATOM      4  H1  <0> d           0.950  -1.545  -4.294  0.00  0.00     0.046 H 
ATOM      5  C5  <0> d           2.373  -1.181  -2.673  0.00  0.00     0.016 C 
ATOM      6  C6  <0> d           2.009  -0.711  -1.282  0.00  0.00     0.220 C 
ATOM      7  O1  <0> d           2.795  -0.568  -0.369  0.00  0.00    -0.273 OA
ATOM      8  H7  <0> d          -0.492  -1.710  -2.443  0.00  0.00     0.065 H 
ATOM      9  H8  <0> d          -0.685   0.047  -2.716  0.00  0.00     0.065 H 
ATOM     10  H9  <0> d           2.519  -2.261  -2.688  0.00  0.00     0.048 H 
ATOM     11  H10 <0> d           3.268  -0.668  -3.024  0.00  0.00     0.048 H 
ENDROOT
BRANCH   1  12
ATOM     12  C2  <0> d           0.002  -0.004   0.002  0.00  0.00    -0.006 C 
ATOM     13  H5  <0> d           0.529  -0.365   0.885  0.00  0.00     0.063 H 
ATOM     14  H6  <0> d          -1.020  -0.381   0.010  0.00  0.00     0.063 H 
BRANCH  12  15
ATOM     15  C1  <0> d          -0.019   1.526   0.010  0.00  0.00    -0.061 C 
ATOM     16  H2  <0> d           1.004   1.903   0.003  0.00  0.00     0.029 H 
ATOM     17  H3  <0> d          -0.546   1.887  -0.873  0.00  0.00     0.029 H 
ATOM     18  H4  <0> d          -0.529   1.877   0.907  0.00  0.00     0.029 H 
ENDBRANCH  12  15
ENDBRANCH   1  12
BRANCH   3  19
ATOM     19  C7  <0> d           1.351   0.586  -4.176  0.00  0.00     0.022 C 
ATOM     20  H11 <0> d           0.404   0.936  -4.587  0.00  0.00     0.074 H 
ATOM     21  H12 <0> d           1.702   1.291  -3.422  0.00  0.00     0.074 H 
BRANCH  19  22
ATOM     22  O2  <0> d           2.318   0.488  -5.223  0.00  0.00    -0.400 OA
ATOM     23  H13 <0> d           2.495   1.325  -5.674  0.00  0.00     0.209 HD
ENDBRANCH  19  22
ENDBRANCH   3  19
TORSDOF 4
