REMARK  4 active torsions:
REMARK  status: ('A' for Active; 'I' for Inactive)
REMARK    1  A    between atoms: C1_1  and  N1_2 
REMARK       I    between atoms: N1_2  and  C2_3 
REMARK    2  A    between atoms: C2_3  and  O2_5 
REMARK    3  A    between atoms: O2_5  and  C3_6 
REMARK    4  A    between atoms: C3_6  and  C4_7 
ROOT
ATOM      1  C4  <0> d          -0.018   1.468   0.010  0.00  0.00     0.035 C 
ATOM      2  C5  <0> d           0.002  -0.004   0.002  0.00  0.00     0.061 C 
ATOM      3  N2  <0> d           0.018  -1.140  -0.004  0.00  0.00    -0.197 NA
ATOM      4  H7  <0> d           1.005   1.845   0.002  0.00  0.00     0.058 H 
ATOM      5  H8  <0> d          -0.545   1.829  -0.873  0.00  0.00     0.058 H 
ENDROOT
BRANCH   1   6
ATOM      6  C3  <0> d          -0.734   1.961   1.269  0.00  0.00     0.042 C 
ATOM      7  H5  <0> d          -1.757   1.584   1.277  0.00  0.00     0.076 H 
ATOM      8  H6  <0> d          -0.207   1.600   2.152  0.00  0.00     0.076 H 
BRANCH   6   9
ATOM      9  O2  <0> d          -0.754   3.413   1.277  0.00  0.00    -0.303 OA
BRANCH   9  10
ATOM     10  C2  <0> d          -1.352   4.011   2.325  0.00  0.00     0.360 C 
ATOM     11  N1  <0> d          -1.405   5.355   2.394  0.00  0.00    -0.341 N 
ATOM     12  H4  <0> d          -1.012   5.893   1.688  0.00  0.00     0.164 HD
ATOM     13  O1  <0> d          -1.844   3.337   3.208  0.00  0.00    -0.239 OA
BRANCH  11  14
ATOM     14  C1  <0> d          -2.055   6.005   3.534  0.00  0.00    -0.016 C 
ATOM     15  H1  <0> d          -2.000   7.088   3.415  0.00  0.00     0.056 H 
ATOM     16  H2  <0> d          -3.100   5.698   3.579  0.00  0.00     0.056 H 
ATOM     17  H3  <0> d          -1.550   5.714   4.455  0.00  0.00     0.056 H 
ENDBRANCH  11  14
ENDBRANCH   9  10
ENDBRANCH   6   9
ENDBRANCH   1   6
TORSDOF 4
