REMARK  3 active torsions:
REMARK  status: ('A' for Active; 'I' for Inactive)
REMARK    1  A    between atoms: C1_1  and  C2_2 
REMARK    2  A    between atoms: C1_1  and  C4_5 
REMARK    3  A    between atoms: C4_5  and  C5_6 
ROOT
ATOM      1  C2  <0> d          -0.018   1.468   0.010  0.00  0.00     0.015 C 
ATOM      2  C3  <0> d           0.002  -0.004   0.002  0.00  0.00     0.059 C 
ATOM      3  N1  <0> d           0.018  -1.140  -0.004  0.00  0.00    -0.197 NA
ATOM      4  H3  <0> d           1.005   1.845   0.002  0.00  0.00     0.054 H 
ATOM      5  H4  <0> d          -0.545   1.829  -0.873  0.00  0.00     0.054 H 
ENDROOT
BRANCH   1   6
ATOM      6  C1  <0> d          -0.734   1.961   1.269  0.00  0.00    -0.046 C 
ATOM      7  H1  <0> d          -1.757   1.584   1.277  0.00  0.00     0.034 H 
ATOM      8  H2  <0> d          -0.207   1.600   2.152  0.00  0.00     0.034 H 
BRANCH   6   9
ATOM      9  C4  <0> d          -0.755   3.491   1.277  0.00  0.00     0.027 C 
ATOM     10  H5  <0> d           0.268   3.868   1.270  0.00  0.00     0.046 H 
ATOM     11  H6  <0> d          -1.282   3.852   0.394  0.00  0.00     0.046 H 
BRANCH   9  12
ATOM     12  C5  <0> d          -1.471   3.984   2.536  0.00  0.00     0.387 C 
ATOM     13  F1  <0> d          -0.794   3.521   3.670  0.00  0.00    -0.171 F 
ATOM     14  F2  <0> d          -1.490   5.383   2.544  0.00  0.00    -0.171 F 
ATOM     15  F3  <0> d          -2.783   3.500   2.546  0.00  0.00    -0.171 F 
ENDBRANCH   9  12
ENDBRANCH   6   9
ENDBRANCH   1   6
TORSDOF 3
