REMARK  0 active torsions:
REMARK  status: ('A' for Active; 'I' for Inactive)
ROOT
ATOM      1  C1  <0> d           3.857   3.128  -0.019  0.00  0.00    -0.061 A 
ATOM      2  C2  <0> d           3.675   1.774  -0.024  0.00  0.00    -0.064 A 
ATOM      3  C3  <0> d           2.398   1.250  -0.014  0.00  0.00     0.015 A 
ATOM      4  C4  <0> d           1.244   2.066   0.001  0.00  0.00    -0.017 A 
ATOM      5  C5  <0> d          -0.016   1.336   0.009  0.00  0.00    -0.065 A 
ATOM      6  C6  <0> d           0.002  -0.004   0.002  0.00  0.00    -0.043 A 
ATOM      7  S1  <0> d           1.740  -0.399  -0.017  0.00  0.00    -0.101 SA
ATOM      8  C7  <0> d           1.454   3.462   0.006  0.00  0.00    -0.052 A 
ATOM      9  C8  <0> d           2.741   3.976  -0.004  0.00  0.00     0.045 A 
ATOM     10  C9  <0> d           2.933   5.395   0.002  0.00  0.00     0.099 C 
ATOM     11  N1  <0> d           3.085   6.521   0.007  0.00  0.00    -0.191 NA
ATOM     12  H1  <0> d           4.855   3.543  -0.026  0.00  0.00     0.085 H 
ATOM     13  H2  <0> d           4.530   1.114  -0.036  0.00  0.00     0.085 H 
ATOM     14  H3  <0> d          -0.956   1.869   0.017  0.00  0.00     0.085 H 
ATOM     15  H4  <0> d          -0.837  -0.684   0.007  0.00  0.00     0.095 H 
ATOM     16  H5  <0> d           0.608   4.133   0.018  0.00  0.00     0.087 H 
ENDROOT
TORSDOF 0
