REMARK  5 active torsions:
REMARK  status: ('A' for Active; 'I' for Inactive)
REMARK    1  A    between atoms: C1_1  and  C2_2 
REMARK    2  A    between atoms: C2_2  and  C3_3 
REMARK    3  A    between atoms: C3_3  and  O1_4 
REMARK    4  A    between atoms: O1_4  and  C4_5 
REMARK    5  A    between atoms: C7_8  and  N3_11 
ROOT
ATOM      1  C4  <0> d           1.093   1.999   0.002  0.00  0.00     0.185 A 
ATOM      2  C5  <0> d           2.334   1.363  -0.013  0.00  0.00    -0.027 A 
ATOM      3  C6  <0> d           2.354  -0.021  -0.021  0.00  0.00    -0.033 A 
ATOM      4  C7  <0> d           1.132  -0.693  -0.013  0.00  0.00     0.143 A 
ATOM      5  N1  <0> d           0.002  -0.004   0.002  0.00  0.00    -0.130 NA
ATOM      6  N2  <0> d          -0.015   1.279   0.009  0.00  0.00    -0.123 NA
ATOM      7  H8  <0> d           3.251   1.934  -0.018  0.00  0.00     0.090 H 
ATOM      8  H9  <0> d           3.288  -0.563  -0.032  0.00  0.00     0.089 H 
ENDROOT
BRANCH   1   9
ATOM      9  O1  <0> d           1.023   3.355   0.010  0.00  0.00    -0.333 OA
BRANCH   9  10
ATOM     10  C3  <0> d          -0.281   3.938   0.025  0.00  0.00     0.027 C 
ATOM     11  H6  <0> d          -0.819   3.609   0.927  0.00  0.00     0.075 H 
ATOM     12  H7  <0> d          -0.836   3.618  -0.870  0.00  0.00     0.075 H 
BRANCH  10  13
ATOM     13  C2  <0> d          -0.159   5.463   0.032  0.00  0.00    -0.048 C 
ATOM     14  H4  <0> d           0.379   5.791  -0.870  0.00  0.00     0.035 H 
ATOM     15  H5  <0> d           0.396   5.782   0.926  0.00  0.00     0.035 H 
BRANCH  13  16
ATOM     16  C1  <0> d          -1.556   6.087   0.048  0.00  0.00    -0.075 C 
ATOM     17  H1  <0> d          -1.468   7.183   0.052  0.00  0.00     0.027 H 
ATOM     18  H2  <0> d          -2.094   5.758   0.949  0.00  0.00     0.027 H 
ATOM     19  H3  <0> d          -2.110   5.767  -0.847  0.00  0.00     0.027 H 
ENDBRANCH  13  16
ENDBRANCH  10  13
ENDBRANCH   9  10
ENDBRANCH   1   9
BRANCH   4  20
ATOM     20  N3  <0> d           1.100  -2.086  -0.019  0.00  0.00    -0.383 N 
ATOM     21  H10 <0> d           0.136  -2.614  -0.013  0.00  0.00     0.157 HD
ATOM     22  H11 <0> d           2.040  -2.657  -0.031  0.00  0.00     0.157 HD
ENDBRANCH   4  20
TORSDOF 5
