REMARK  1 active torsions:
REMARK  status: ('A' for Active; 'I' for Inactive)
REMARK    1  A    between atoms: C6_6  and  N1_7 
ROOT
ATOM      1  C1  <0> d          -0.017   1.386   0.010  0.00  0.00    -0.057 A 
ATOM      2  C2  <0> d           1.171   2.096   0.002  0.00  0.00    -0.072 A 
ATOM      3  C3  <0> d           2.373   1.428  -0.013  0.00  0.00    -0.025 A 
ATOM      4  C4  <0> d           2.408   0.031  -0.021  0.00  0.00     0.042 A 
ATOM      5  C5  <0> d           1.210  -0.684  -0.014  0.00  0.00    -0.042 A 
ATOM      6  C6  <0> d           0.002  -0.004   0.002  0.00  0.00     0.026 A 
ATOM      7  C7  <0> d           3.820  -0.397  -0.037  0.00  0.00     0.252 A 
ATOM      8  O1  <0> d           4.196  -1.553  -0.047  0.00  0.00    -0.268 OA
ATOM      9  N2  <0> d           4.632   0.674  -0.039  0.00  0.00    -0.353 N 
ATOM     10  C8  <0> d           3.810   1.890  -0.025  0.00  0.00     0.020 A 
ATOM     11  H1  <0> d          -0.960   1.912   0.026  0.00  0.00     0.086 H 
ATOM     12  H2  <0> d           1.153   3.176   0.008  0.00  0.00     0.084 H 
ATOM     13  H3  <0> d           1.224  -1.764  -0.019  0.00  0.00     0.088 H 
ATOM     14  H6  <0> d           5.601   0.649  -0.049  0.00  0.00     0.163 HD
ATOM     15  H7  <0> d           4.005   2.485  -0.917  0.00  0.00     0.071 H 
ATOM     16  H8  <0> d           4.022   2.475   0.870  0.00  0.00     0.071 H 
ENDROOT
BRANCH   6  17
ATOM     17  N1  <0> d          -1.199  -0.717   0.010  0.00  0.00    -0.399 N 
ATOM     18  H4  <0> d          -2.045  -0.243   0.021  0.00  0.00     0.156 HD
ATOM     19  H5  <0> d          -1.187  -1.687   0.005  0.00  0.00     0.156 HD
ENDBRANCH   6  17
TORSDOF 1
