REMARK  2 active torsions:
REMARK  status: ('A' for Active; 'I' for Inactive)
REMARK    1  A    between atoms: C4_4  and  C7_7 
REMARK    2  A    between atoms: C7_7  and  C8_9 
ROOT
ATOM      1  C1  <0> d          -0.019   1.526   0.010  0.00  0.00    -0.065 C 
ATOM      2  C2  <0> d           1.417   2.055  -0.000  0.00  0.00    -0.064 C 
ATOM      3  C3  <0> d           2.133   1.562  -1.259  0.00  0.00    -0.055 C 
ATOM      4  C4  <0> d           2.154   0.032  -1.268  0.00  0.00     0.004 C 
ATOM      5  C5  <0> d           0.718  -0.497  -1.257  0.00  0.00    -0.055 C 
ATOM      6  C6  <0> d           0.002  -0.004   0.002  0.00  0.00    -0.064 C 
ATOM      7  H1  <0> d          -0.529   1.877   0.907  0.00  0.00     0.033 H 
ATOM      8  H2  <0> d          -0.546   1.887  -0.873  0.00  0.00     0.033 H 
ATOM      9  H3  <0> d           1.402   3.145   0.006  0.00  0.00     0.033 H 
ATOM     10  H4  <0> d           1.944   1.694   0.883  0.00  0.00     0.033 H 
ATOM     11  H5  <0> d           1.606   1.923  -2.142  0.00  0.00     0.034 H 
ATOM     12  H6  <0> d           3.155   1.939  -1.267  0.00  0.00     0.034 H 
ATOM     13  H7  <0> d           2.681  -0.329  -0.385  0.00  0.00     0.051 H 
ATOM     14  H8  <0> d           0.191  -0.136  -2.140  0.00  0.00     0.034 H 
ATOM     15  H9  <0> d           0.733  -1.587  -1.263  0.00  0.00     0.034 H 
ATOM     16  H10 <0> d           0.529  -0.365   0.885  0.00  0.00     0.033 H 
ATOM     17  H11 <0> d          -1.020  -0.381   0.010  0.00  0.00     0.033 H 
ENDROOT
BRANCH   4  18
ATOM     18  C7  <0> d           2.859  -0.454  -2.507  0.00  0.00     0.135 C 
ATOM     19  O1  <0> d           2.900   0.244  -3.492  0.00  0.00    -0.297 OA
BRANCH  18  20
ATOM     20  C8  <0> d           3.513  -1.812  -2.519  0.00  0.00     0.004 A 
ATOM     21  C10 <0> d           4.739  -1.997  -3.415  0.00  0.00    -0.055 A 
ATOM     22  C9  <0> d           3.405  -2.637  -3.803  0.00  0.00    -0.055 A 
ATOM     23  H15 <0> d           5.073  -1.137  -3.996  0.00  0.00     0.034 H 
ATOM     24  H16 <0> d           5.529  -2.658  -3.057  0.00  0.00     0.034 H 
ATOM     25  H13 <0> d           3.316  -3.719  -3.699  0.00  0.00     0.034 H 
ATOM     26  H14 <0> d           2.860  -2.198  -4.639  0.00  0.00     0.034 H 
ATOM     27  H12 <0> d           3.496  -2.349  -1.571  0.00  0.00     0.051 H 
ENDBRANCH  18  20
ENDBRANCH   4  18
TORSDOF 2
