REMARK  5 active torsions:
REMARK  status: ('A' for Active; 'I' for Inactive)
REMARK    1  A    between atoms: C1_1  and  C2_2 
REMARK    2  A    between atoms: C2_2  and  C3_3 
REMARK    3  A    between atoms: C3_3  and  C4_5 
REMARK    4  A    between atoms: C3_3  and  O2_7 
REMARK    5  A    between atoms: O2_7  and  C5_8 
ROOT
ATOM      1  C3  <0> d          -2.164   1.050   1.278  0.00  0.00     0.121 C 
ATOM      2  H1  <0> d          -2.152  -0.036   1.182  0.00  0.00     0.100 H 
ENDROOT
BRANCH   1   3
ATOM      3  C2  <0> d          -0.729   1.579   1.267  0.00  0.00    -0.035 C 
ATOM      4  H5  <0> d          -0.202   1.218   2.150  0.00  0.00     0.036 H 
ATOM      5  H6  <0> d          -0.744   2.669   1.273  0.00  0.00     0.036 H 
BRANCH   3   6
ATOM      6  C1  <0> d          -0.013   1.086   0.008  0.00  0.00    -0.074 C 
ATOM      7  H2  <0> d           0.002  -0.004   0.002  0.00  0.00     0.027 H 
ATOM      8  H3  <0> d           1.010   1.463   0.000  0.00  0.00     0.027 H 
ATOM      9  H4  <0> d          -0.540   1.447  -0.875  0.00  0.00     0.027 H 
ENDBRANCH   3   6
ENDBRANCH   1   3
BRANCH   1  10
ATOM     10  C4  <0> d          -2.831   1.432   2.574  0.00  0.00     0.203 C 
ATOM     11  O1  <0> d          -3.770   2.192   2.569  0.00  0.00    -0.646 OA
ATOM     12  O3  <0> d          -2.381   0.929   3.734  0.00  0.00    -0.646 OA
ENDBRANCH   1  10
BRANCH   1  13
ATOM     13  O2  <0> d          -2.889   1.616   0.184  0.00  0.00    -0.380 OA
BRANCH  13  14
ATOM     14  C5  <0> d          -3.925   0.773  -0.325  0.00  0.00     0.005 C 
ATOM     15  H7  <0> d          -4.427   1.274  -1.153  0.00  0.00     0.066 H 
ATOM     16  H8  <0> d          -3.491  -0.163  -0.677  0.00  0.00     0.066 H 
ATOM     17  H9  <0> d          -4.646   0.565   0.465  0.00  0.00     0.066 H 
ENDBRANCH  13  14
ENDBRANCH   1  13
TORSDOF 5
