REMARK  2 active torsions:
REMARK  status: ('A' for Active; 'I' for Inactive)
REMARK    1  A    between atoms: C1_1  and  O1_2 
REMARK    2  A    between atoms: O1_2  and  C2_3 
ROOT
ATOM      1  C2  <0> d           1.117   2.007   0.002  0.00  0.00     0.166 A 
ATOM      2  C3  <0> d           2.329   1.320  -0.013  0.00  0.00    -0.015 A 
ATOM      3  C4  <0> d           2.301  -0.061  -0.020  0.00  0.00     0.008 A 
ATOM      4  N1  <0> d           1.131  -0.683  -0.012  0.00  0.00    -0.254 NA
ATOM      5  C5  <0> d           0.002  -0.004   0.002  0.00  0.00     0.089 A 
ATOM      6  N2  <0> d          -0.016   1.314   0.009  0.00  0.00    -0.218 NA
ATOM      7  H4  <0> d           3.268   1.855  -0.019  0.00  0.00     0.092 H 
ATOM      8  H5  <0> d           3.221  -0.627  -0.032  0.00  0.00     0.115 H 
ATOM      9  H6  <0> d          -0.934  -0.542   0.008  0.00  0.00     0.146 H 
ENDROOT
BRANCH   1  10
ATOM     10  O1  <0> d           1.093   3.362   0.009  0.00  0.00    -0.339 OA
BRANCH  10  11
ATOM     11  C1  <0> d          -0.191   3.989   0.024  0.00  0.00     0.012 C 
ATOM     12  H1  <0> d          -0.734   3.682   0.918  0.00  0.00     0.067 H 
ATOM     13  H2  <0> d          -0.067   5.072   0.029  0.00  0.00     0.067 H 
ATOM     14  H3  <0> d          -0.751   3.691  -0.862  0.00  0.00     0.067 H 
ENDBRANCH  10  11
ENDBRANCH   1  10
TORSDOF 2
