REMARK  3 active torsions:
REMARK  status: ('A' for Active; 'I' for Inactive)
REMARK    1  A    between atoms: C1_1  and  C2_2 
REMARK    2  A    between atoms: C3_3  and  C4_8 
REMARK    3  A    between atoms: C4_8  and  C5_10 
ROOT
ATOM      1  C2  <0> d          -1.460   3.590   0.028  0.00  0.00     0.086 A 
ATOM      2  C3  <0> d          -1.299   2.219   0.024  0.00  0.00     0.149 A 
ATOM      3  N1  <0> d          -2.521   1.653   0.029  0.00  0.00    -0.152 NA
ATOM      4  N2  <0> d          -3.421   2.573   0.033  0.00  0.00    -0.196 N 
ATOM      5  N3  <0> d          -2.787   3.823   0.027  0.00  0.00    -0.160 NA
ATOM      6  H1  <0> d          -4.410   2.421   0.040  0.00  0.00     0.213 HD
ENDROOT
BRANCH   2   7
ATOM      7  C4  <0> d          -0.018   1.503   0.015  0.00  0.00     0.177 C 
ATOM      8  O1  <0> d           1.024   2.123   0.006  0.00  0.00    -0.291 OA
BRANCH   7   9
ATOM      9  C5  <0> d           0.002  -0.004   0.010  0.00  0.00    -0.015 C 
ATOM     10  H5  <0> d           0.949  -0.325  -0.000  0.00  0.00     0.038 H 
ATOM     11  H6  <0> d          -0.498  -0.377   0.904  0.00  0.00     0.038 H 
ATOM     12  H7  <0> d          -0.516  -0.372  -0.876  0.00  0.00     0.038 H 
ENDBRANCH   7   9
ENDBRANCH   2   7
BRANCH   1  13
ATOM     13  C1  <0> d          -0.365   4.625   0.033  0.00  0.00    -0.031 C 
ATOM     14  H2  <0> d          -0.101   4.880  -0.994  0.00  0.00     0.035 H 
ATOM     15  H3  <0> d          -0.711   5.518   0.552  0.00  0.00     0.035 H 
ATOM     16  H4  <0> d           0.511   4.224   0.544  0.00  0.00     0.035 H 
ENDBRANCH   1  13
TORSDOF 3
