REMARK  3 active torsions:
REMARK  status: ('A' for Active; 'I' for Inactive)
REMARK    1  A    between atoms: C4_5  and  C5_7 
REMARK    2  A    between atoms: C5_7  and  C6_8 
REMARK    3  A    between atoms: C6_8  and  O2_9 
ROOT
ATOM      1  C1  <0> d          -0.019   1.541   0.011  0.00  0.00    -0.040 C 
ATOM      2  C2  <0> d           1.474   1.937  -0.002  0.00  0.00     0.020 C 
ATOM      3  O1  <0> d           2.163   0.795   0.553  0.00  0.00    -0.391 OA
ATOM      4  C3  <0> d           1.506  -0.359  -0.014  0.00  0.00     0.023 C 
ATOM      5  C4  <0> d           0.002  -0.004   0.002  0.00  0.00    -0.030 C 
ATOM      6  H1  <0> d          -0.473  -0.397   0.900  0.00  0.00     0.043 H 
ATOM      7  H2  <0> d          -0.505   1.911   0.913  0.00  0.00     0.036 H 
ATOM      8  H3  <0> d          -0.522   1.921  -0.879  0.00  0.00     0.036 H 
ATOM      9  H4  <0> d           1.809   2.123  -1.022  0.00  0.00     0.074 H 
ATOM     10  H5  <0> d           1.639   2.817   0.619  0.00  0.00     0.074 H 
ATOM     11  H6  <0> d           1.845  -0.525  -1.037  0.00  0.00     0.074 H 
ATOM     12  H7  <0> d           1.694  -1.242   0.597  0.00  0.00     0.074 H 
ENDROOT
BRANCH   5  13
ATOM     13  C5  <0> d          -0.690  -0.543  -1.252  0.00  0.00    -0.040 C 
ATOM     14  H8  <0> d          -1.697  -0.131  -1.317  0.00  0.00     0.036 H 
ATOM     15  H9  <0> d          -0.120  -0.251  -2.135  0.00  0.00     0.036 H 
BRANCH  13  16
ATOM     16  C6  <0> d          -0.766  -2.069  -1.177  0.00  0.00     0.017 C 
ATOM     17  H10 <0> d           0.241  -2.480  -1.112  0.00  0.00     0.073 H 
ATOM     18  H11 <0> d          -1.335  -2.361  -0.294  0.00  0.00     0.073 H 
BRANCH  16  19
ATOM     19  O2  <0> d          -1.412  -2.572  -2.348  0.00  0.00    -0.401 OA
ATOM     20  H12 <0> d          -1.495  -3.535  -2.368  0.00  0.00     0.209 HD
ENDBRANCH  16  19
ENDBRANCH  13  16
ENDBRANCH   5  13
TORSDOF 3
