REMARK  3 active torsions:
REMARK  status: ('A' for Active; 'I' for Inactive)
REMARK    1  A    between atoms: C1_1  and  C2_2 
REMARK    2  A    between atoms: C2_2  and  C8_11 
REMARK    3  A    between atoms: C6_6  and  C7_8 
ROOT
ATOM      1  C2  <0> d           0.013  -0.002  -0.188  0.00  0.00    -0.034 C 
ATOM      2  C3  <0> d           0.899  -0.505  -1.346  0.00  0.00    -0.058 C 
ATOM      3  C4  <0> d           2.277  -0.763  -0.687  0.00  0.00    -0.064 C 
ATOM      4  C5  <0> d           1.890  -1.344   0.696  0.00  0.00    -0.052 C 
ATOM      5  C6  <0> d           0.643  -0.536   1.111  0.00  0.00     0.037 C 
ATOM      6  H1  <0> d           0.934   0.295   1.754  0.00  0.00     0.057 H 
ATOM      7  H5  <0> d           0.496  -1.429  -1.762  0.00  0.00     0.034 H 
ATOM      8  H6  <0> d           0.984   0.258  -2.121  0.00  0.00     0.034 H 
ATOM      9  H7  <0> d           2.851  -1.488  -1.263  0.00  0.00     0.033 H 
ATOM     10  H8  <0> d           2.831   0.168  -0.573  0.00  0.00     0.033 H 
ATOM     11  H9  <0> d           1.647  -2.403   0.610  0.00  0.00     0.034 H 
ATOM     12  H10 <0> d           2.698  -1.194   1.412  0.00  0.00     0.034 H 
ENDROOT
BRANCH   1  13
ATOM     13  C1  <0> d          -0.008   1.528  -0.170  0.00  0.00    -0.069 C 
ATOM     14  H2  <0> d           1.012   1.904  -0.085  0.00  0.00     0.028 H 
ATOM     15  H3  <0> d          -0.456   1.895  -1.093  0.00  0.00     0.028 H 
ATOM     16  H4  <0> d          -0.595   1.873   0.681  0.00  0.00     0.028 H 
ENDBRANCH   1  13
BRANCH   1  17
ATOM     17  C8  <0> d          -1.409  -0.544  -0.341  0.00  0.00    -0.069 C 
ATOM     18  H11 <0> d          -1.863  -0.124  -1.239  0.00  0.00     0.028 H 
ATOM     19  H12 <0> d          -1.377  -1.630  -0.425  0.00  0.00     0.028 H 
ATOM     20  H13 <0> d          -2.001  -0.264   0.530  0.00  0.00     0.028 H 
ENDBRANCH   1  17
BRANCH   5  21
ATOM     21  C7  <0> d          -0.335  -1.428   1.830  0.00  0.00     0.177 C 
ATOM     22  O1  <0> d          -0.468  -2.590   1.485  0.00  0.00    -0.648 OA
ATOM     23  O2  <0> d          -0.993  -0.989   2.757  0.00  0.00    -0.648 OA
ENDBRANCH   5  21
TORSDOF 3
