REMARK  2 active torsions:
REMARK  status: ('A' for Active; 'I' for Inactive)
REMARK    1  A    between atoms: C3_3  and  N1_8 
REMARK    2  A    between atoms: C5_5  and  O1_7 
REMARK       I    between atoms: N1_8  and  C7_9 
REMARK       I    between atoms: C7_9  and  N2_11 
ROOT
ATOM      1  C1  <0> d           3.034   2.535   1.183  0.00  0.00    -0.078 A 
ATOM      2  C2  <0> d           3.653   2.839  -0.014  0.00  0.00    -0.057 A 
ATOM      3  C3  <0> d           3.101   2.405  -1.213  0.00  0.00     0.038 A 
ATOM      4  C4  <0> d           1.927   1.665  -1.206  0.00  0.00    -0.025 A 
ATOM      5  C5  <0> d           1.309   1.362  -0.003  0.00  0.00     0.067 A 
ATOM      6  C6  <0> d           1.862   1.803   1.191  0.00  0.00    -0.051 A 
ATOM      7  H1  <0> d           3.465   2.874   2.113  0.00  0.00     0.083 H 
ATOM      8  H2  <0> d           4.567   3.415  -0.018  0.00  0.00     0.086 H 
ATOM      9  H3  <0> d           1.496   1.326  -2.136  0.00  0.00     0.091 H 
ATOM     10  H4  <0> d           1.378   1.571   2.128  0.00  0.00     0.087 H 
ENDROOT
BRANCH   3  11
ATOM     11  N1  <0> d           3.728   2.713  -2.425  0.00  0.00    -0.309 N 
ATOM     12  C7  <0> d           2.988   2.926  -3.531  0.00  0.00     0.318 C 
ATOM     13  O2  <0> d           1.774   2.946  -3.456  0.00  0.00    -0.247 OA
ATOM     14  N2  <0> d           3.593   3.117  -4.720  0.00  0.00    -0.352 N 
ATOM     15  H7  <0> d           4.561   3.101  -4.780  0.00  0.00     0.160 HD
ATOM     16  H8  <0> d           3.060   3.270  -5.516  0.00  0.00     0.160 HD
ATOM     17  H6  <0> d           4.695   2.773  -2.470  0.00  0.00     0.170 HD
ENDBRANCH   3  11
BRANCH   5  18
ATOM     18  O1  <0> d           0.159   0.638   0.007  0.00  0.00    -0.361 OA
ATOM     19  H5  <0> d           0.296  -0.318   0.064  0.00  0.00     0.217 HD
ENDBRANCH   5  18
TORSDOF 2
