REMARK  4 active torsions:
REMARK  status: ('A' for Active; 'I' for Inactive)
REMARK    1  A    between atoms: C1_1  and  C2_2 
REMARK    2  A    between atoms: C2_2  and  C3_3 
REMARK    3  A    between atoms: C3_3  and  C4_4 
REMARK    4  A    between atoms: C5_5  and  C7_10 
ROOT
ATOM      1  C4  <0> d           2.407   3.857  -0.000  0.00  0.00     0.073 A 
ATOM      2  C5  <0> d           1.238   3.063   0.007  0.00  0.00     0.084 A 
ATOM      3  C6  <0> d           0.160   3.925   0.016  0.00  0.00     0.014 A 
ATOM      4  N1  <0> d           0.646   5.176   0.024  0.00  0.00    -0.288 N 
ATOM      5  H1  <0> d           0.101   6.015   0.037  0.00  0.00     0.188 HD
ATOM      6  N2  <0> d           2.043   5.110   0.010  0.00  0.00    -0.179 NA
ATOM      7  H9  <0> d          -0.883   3.645   0.018  0.00  0.00     0.115 H 
ENDROOT
BRANCH   1   8
ATOM      8  C3  <0> d           3.825   3.347  -0.017  0.00  0.00    -0.022 C 
ATOM      9  H7  <0> d           4.473   4.058   0.495  0.00  0.00     0.042 H 
ATOM     10  H8  <0> d           3.870   2.384   0.492  0.00  0.00     0.042 H 
BRANCH   8  11
ATOM     11  C2  <0> d           4.291   3.182  -1.464  0.00  0.00    -0.063 C 
ATOM     12  H5  <0> d           3.643   2.470  -1.976  0.00  0.00     0.033 H 
ATOM     13  H6  <0> d           4.246   4.145  -1.973  0.00  0.00     0.033 H 
BRANCH  11  14
ATOM     14  C1  <0> d           5.731   2.663  -1.481  0.00  0.00    -0.076 C 
ATOM     15  H2  <0> d           6.379   3.375  -0.970  0.00  0.00     0.027 H 
ATOM     16  H3  <0> d           5.776   1.700  -0.973  0.00  0.00     0.027 H 
ATOM     17  H4  <0> d           6.062   2.546  -2.513  0.00  0.00     0.027 H 
ENDBRANCH  11  14
ENDBRANCH   8  11
ENDBRANCH   1   8
BRANCH   2  18
ATOM     18  C7  <0> d           1.181   1.591  -0.001  0.00  0.00     0.212 C 
ATOM     19  O1  <0> d           2.209   0.943  -0.014  0.00  0.00    -0.644 OA
ATOM     20  O2  <0> d          -0.011   0.963   0.007  0.00  0.00    -0.644 OA
ENDBRANCH   2  18
TORSDOF 4
