REMARK  0 active torsions:
REMARK  status: ('A' for Active; 'I' for Inactive)
ROOT
ATOM      1  C1  <0> d          -0.013   1.076   0.008  0.00  0.00    -0.040 A 
ATOM      2  C2  <0> d          -1.221   1.778   0.017  0.00  0.00     0.063 A 
ATOM      3  C3  <0> d          -1.194   3.175   0.029  0.00  0.00     0.022 A 
ATOM      4  N1  <0> d          -0.050   3.828   0.022  0.00  0.00    -0.270 NA
ATOM      5  C4  <0> d           1.111   3.206   0.008  0.00  0.00     0.022 A 
ATOM      6  C5  <0> d           1.177   1.810   0.001  0.00  0.00     0.063 A 
ATOM      7  C6  <0> d           2.443   1.143  -0.015  0.00  0.00     0.101 C 
ATOM      8  N2  <0> d           3.448   0.613  -0.028  0.00  0.00    -0.191 NA
ATOM      9  C7  <0> d          -2.470   1.076   0.019  0.00  0.00     0.101 C 
ATOM     10  N3  <0> d          -3.460   0.519   0.021  0.00  0.00    -0.191 NA
ATOM     11  H1  <0> d           0.002  -0.004   0.002  0.00  0.00     0.088 H 
ATOM     12  H2  <0> d          -2.122   3.726   0.041  0.00  0.00     0.117 H 
ATOM     13  H3  <0> d           2.025   3.782   0.002  0.00  0.00     0.117 H 
ENDROOT
TORSDOF 0
