REMARK  10 active torsions:
REMARK  status: ('A' for Active; 'I' for Inactive)
REMARK    1  A    between atoms: C1_1  and  C2_2 
REMARK    2  A    between atoms: C2_2  and  C3_3 
REMARK    3  A    between atoms: C2_2  and  C4_4 
REMARK    4  A    between atoms: C4_4  and  C5_5 
REMARK    5  A    between atoms: C4_4  and  C8_8 
REMARK    6  A    between atoms: C4_4  and  O1_11 
REMARK    7  A    between atoms: C5_5  and  C6_6 
REMARK    8  A    between atoms: C5_5  and  C7_7 
REMARK    9  A    between atoms: C8_8  and  C9_9 
REMARK   10  A    between atoms: C8_8  and  C10_10 
ROOT
ATOM      1  C4  <0> d          -1.840  -1.487   0.144  0.00  0.00     0.067 C 
ENDROOT
BRANCH   1   2
ATOM      2  C2  <0> d          -0.417  -0.928   0.068  0.00  0.00    -0.031 C 
ATOM      3  H4  <0> d          -0.456   0.161   0.048  0.00  0.00     0.043 H 
BRANCH   2   4
ATOM      4  C1  <0> d           0.378  -1.389   1.291  0.00  0.00    -0.070 C 
ATOM      5  H1  <0> d           1.441  -1.402   1.049  0.00  0.00     0.028 H 
ATOM      6  H2  <0> d           0.203  -0.701   2.118  0.00  0.00     0.028 H 
ATOM      7  H3  <0> d           0.058  -2.391   1.576  0.00  0.00     0.028 H 
ENDBRANCH   2   4
BRANCH   2   8
ATOM      8  C3  <0> d           0.263  -1.437  -1.205  0.00  0.00    -0.070 C 
ATOM      9  H5  <0> d           1.337  -1.263  -1.137  0.00  0.00     0.028 H 
ATOM     10  H6  <0> d           0.074  -2.505  -1.315  0.00  0.00     0.028 H 
ATOM     11  H7  <0> d          -0.138  -0.907  -2.068  0.00  0.00     0.028 H 
ENDBRANCH   2   8
ENDBRANCH   1   2
BRANCH   1  12
ATOM     12  C5  <0> d          -2.576  -0.849   1.324  0.00  0.00    -0.031 C 
ATOM     13  H8  <0> d          -2.521   0.237   1.242  0.00  0.00     0.043 H 
BRANCH  12  14
ATOM     14  C6  <0> d          -4.041  -1.287   1.309  0.00  0.00    -0.070 C 
ATOM     15  H9  <0> d          -4.096  -2.373   1.391  0.00  0.00     0.028 H 
ATOM     16  H10 <0> d          -4.566  -0.833   2.149  0.00  0.00     0.028 H 
ATOM     17  H11 <0> d          -4.506  -0.969   0.376  0.00  0.00     0.028 H 
ENDBRANCH  12  14
BRANCH  12  18
ATOM     18  C7  <0> d          -1.923  -1.295   2.634  0.00  0.00    -0.070 C 
ATOM     19  H12 <0> d          -1.084  -0.638   2.864  0.00  0.00     0.028 H 
ATOM     20  H13 <0> d          -2.655  -1.245   3.440  0.00  0.00     0.028 H 
ATOM     21  H14 <0> d          -1.566  -2.319   2.531  0.00  0.00     0.028 H 
ENDBRANCH  12  18
ENDBRANCH   1  12
BRANCH   1  22
ATOM     22  C8  <0> d          -2.584  -1.168  -1.154  0.00  0.00    -0.031 C 
ATOM     23  H15 <0> d          -3.658  -1.229  -0.981  0.00  0.00     0.043 H 
BRANCH  22  24
ATOM     24  C9  <0> d          -2.221   0.245  -1.616  0.00  0.00    -0.070 C 
ATOM     25  H16 <0> d          -1.158   0.288  -1.852  0.00  0.00     0.028 H 
ATOM     26  H17 <0> d          -2.801   0.497  -2.503  0.00  0.00     0.028 H 
ATOM     27  H18 <0> d          -2.445   0.956  -0.820  0.00  0.00     0.028 H 
ENDBRANCH  22  24
BRANCH  22  28
ATOM     28  C10 <0> d          -2.182  -2.176  -2.233  0.00  0.00    -0.070 C 
ATOM     29  H19 <0> d          -2.401  -3.186  -1.886  0.00  0.00     0.028 H 
ATOM     30  H20 <0> d          -2.745  -1.975  -3.145  0.00  0.00     0.028 H 
ATOM     31  H21 <0> d          -1.115  -2.084  -2.436  0.00  0.00     0.028 H 
ENDBRANCH  22  28
ENDBRANCH   1  22
BRANCH   1  32
ATOM     32  O1  <0> d          -1.786  -2.903   0.327  0.00  0.00    -0.389 OA
ATOM     33  H22 <0> d          -2.654  -3.326   0.384  0.00  0.00     0.210 HD
ENDBRANCH   1  32
TORSDOF 10
