REMARK  0 active torsions:
REMARK  status: ('A' for Active; 'I' for Inactive)
ROOT
ATOM      1  C1  <0> d          -0.017   1.381   0.010  0.00  0.00    -0.045 A 
ATOM      2  C2  <0> d           1.171   2.093   0.002  0.00  0.00    -0.071 A 
ATOM      3  C3  <0> d           2.373   1.425  -0.013  0.00  0.00    -0.025 A 
ATOM      4  C4  <0> d           2.405   0.028  -0.021  0.00  0.00     0.042 A 
ATOM      5  C5  <0> d           1.205  -0.684  -0.013  0.00  0.00    -0.030 A 
ATOM      6  C6  <0> d           0.002  -0.004   0.002  0.00  0.00     0.117 A 
ATOM      7  F1  <0> d          -1.160  -0.693   0.010  0.00  0.00    -0.206 F 
ATOM      8  C7  <0> d           3.816  -0.402  -0.036  0.00  0.00     0.252 A 
ATOM      9  O1  <0> d           4.190  -1.559  -0.046  0.00  0.00    -0.268 OA
ATOM     10  N1  <0> d           4.630   0.668  -0.038  0.00  0.00    -0.353 N 
ATOM     11  C8  <0> d           3.810   1.884  -0.024  0.00  0.00     0.020 A 
ATOM     12  H1  <0> d          -0.960   1.907   0.026  0.00  0.00     0.088 H 
ATOM     13  H2  <0> d           1.153   3.173   0.008  0.00  0.00     0.084 H 
ATOM     14  H3  <0> d           1.217  -1.764  -0.020  0.00  0.00     0.089 H 
ATOM     15  H4  <0> d           5.599   0.640  -0.048  0.00  0.00     0.163 HD
ATOM     16  H5  <0> d           4.006   2.479  -0.916  0.00  0.00     0.071 H 
ATOM     17  H6  <0> d           4.023   2.469   0.871  0.00  0.00     0.071 H 
ENDROOT
TORSDOF 0
