REMARK  1 active torsions:
REMARK  status: ('A' for Active; 'I' for Inactive)
REMARK    1  A    between atoms: C3_3  and  C5_6 
ROOT
ATOM      1  C1  <0> d          -0.019   1.526   0.010  0.00  0.00    -0.034 A 
ATOM      2  C2  <0> d           0.002  -0.004   0.002  0.00  0.00    -0.034 A 
ATOM      3  C3  <0> d           1.317   0.779  -0.006  0.00  0.00     0.137 A 
ATOM      4  C4  <0> d           2.089   0.796  -1.259  0.00  0.00     0.080 C 
ATOM      5  N1  <0> d           2.686   0.810  -2.226  0.00  0.00    -0.196 NA
ATOM      6  H1  <0> d          -0.325   2.030  -0.906  0.00  0.00     0.036 H 
ATOM      7  H2  <0> d          -0.307   2.020   0.938  0.00  0.00     0.036 H 
ATOM      8  H3  <0> d          -0.273  -0.516   0.924  0.00  0.00     0.036 H 
ATOM      9  H4  <0> d          -0.290  -0.506  -0.920  0.00  0.00     0.036 H 
ENDROOT
BRANCH   3  10
ATOM     10  C5  <0> d           2.132   0.783   1.261  0.00  0.00     0.196 C 
ATOM     11  O1  <0> d           1.724   1.362   2.240  0.00  0.00    -0.647 OA
ATOM     12  O2  <0> d           3.312   0.143   1.302  0.00  0.00    -0.647 OA
ENDBRANCH   3  10
TORSDOF 1
