REMARK  2 active torsions:
REMARK  status: ('A' for Active; 'I' for Inactive)
REMARK    1  A    between atoms: C1_1  and  C2_2 
REMARK    2  A    between atoms: C2_2  and  C3_3 
ROOT
ATOM      1  C3  <0> d          -0.749   3.086   1.275  0.00  0.00    -0.040 A 
ATOM      2  C4  <0> d           0.269   3.780   1.865  0.00  0.00    -0.063 A 
ATOM      3  C5  <0> d           0.212   5.186   1.845  0.00  0.00    -0.007 A 
ATOM      4  C6  <0> d           1.224   5.967   2.428  0.00  0.00    -0.071 A 
ATOM      5  C7  <0> d           1.129   7.325   2.393  0.00  0.00    -0.082 A 
ATOM      6  C8  <0> d           0.042   7.951   1.787  0.00  0.00    -0.081 A 
ATOM      7  C9  <0> d          -0.956   7.226   1.213  0.00  0.00    -0.054 A 
ATOM      8  C10 <0> d          -0.895   5.821   1.229  0.00  0.00     0.066 A 
ATOM      9  N1  <0> d          -1.861   5.082   0.674  0.00  0.00    -0.260 NA
ATOM     10  C11 <0> d          -1.809   3.772   0.686  0.00  0.00     0.009 A 
ATOM     11  H6  <0> d           1.095   3.265   2.331  0.00  0.00     0.085 H 
ATOM     12  H7  <0> d           2.071   5.494   2.900  0.00  0.00     0.084 H 
ATOM     13  H8  <0> d           1.908   7.925   2.840  0.00  0.00     0.083 H 
ATOM     14  H9  <0> d          -0.010   9.030   1.772  0.00  0.00     0.083 H 
ATOM     15  H10 <0> d          -1.792   7.726   0.748  0.00  0.00     0.087 H 
ATOM     16  H11 <0> d          -2.608   3.210   0.227  0.00  0.00     0.115 H 
ENDROOT
BRANCH   1  17
ATOM     17  C2  <0> d          -0.729   1.579   1.267  0.00  0.00    -0.043 C 
ATOM     18  H4  <0> d          -1.751   1.202   1.275  0.00  0.00     0.039 H 
ATOM     19  H5  <0> d          -0.202   1.218   2.150  0.00  0.00     0.039 H 
BRANCH  17  20
ATOM     20  C1  <0> d          -0.013   1.086   0.008  0.00  0.00    -0.073 C 
ATOM     21  H1  <0> d           0.002  -0.004   0.002  0.00  0.00     0.028 H 
ATOM     22  H2  <0> d           1.010   1.463   0.000  0.00  0.00     0.028 H 
ATOM     23  H3  <0> d          -0.540   1.447  -0.875  0.00  0.00     0.028 H 
ENDBRANCH  17  20
ENDBRANCH   1  17
TORSDOF 2
