REMARK  2 active torsions:
REMARK  status: ('A' for Active; 'I' for Inactive)
REMARK    1  A    between atoms: C1_1  and  C3_8 
REMARK    2  A    between atoms: C2_4  and  N4_7 
ROOT
ATOM      1  C1  <0> d           0.002  -0.004   0.002  0.00  0.00     0.271 A 
ATOM      2  N1  <0> d          -0.017   1.363   0.009  0.00  0.00    -0.037 NA
ATOM      3  H1  <0> d           3.110   0.531  -0.024  0.00  0.00     0.208 HD
ATOM      4  C2  <0> d           1.292   1.751  -0.001  0.00  0.00     0.716 A 
ATOM      5  N2  <0> d           2.017   0.657  -0.013  0.00  0.00    -0.106 N 
ATOM      6  N3  <0> d           1.251  -0.375  -0.011  0.00  0.00    -0.134 NA
ENDROOT
BRANCH   1   7
ATOM      7  C3  <0> d          -1.199  -0.914   0.008  0.00  0.00     0.455 C 
ATOM      8  F1  <0> d          -0.799  -2.213   0.337  0.00  0.00    -0.163 F 
ATOM      9  F2  <0> d          -2.125  -0.458   0.953  0.00  0.00    -0.163 F 
ATOM     10  F3  <0> d          -1.790  -0.915  -1.260  0.00  0.00    -0.163 F 
ENDBRANCH   1   7
BRANCH   4  11
ATOM     11  N4  <0> d           1.765   3.053   0.001  0.00  0.00    -0.231 N 
ATOM     12  H2  <0> d           2.848   3.245  -0.008  0.00  0.00     0.174 HD
ATOM     13  H3  <0> d           1.058   3.896   0.012  0.00  0.00     0.174 HD
ENDBRANCH   4  11
TORSDOF 2
