REMARK  3 active torsions:
REMARK  status: ('A' for Active; 'I' for Inactive)
REMARK    1  A    between atoms: C1_1  and  C2_2 
REMARK    2  A    between atoms: C4_5  and  C6_9 
REMARK    3  A    between atoms: C4_5  and  C7_10 
ROOT
ATOM      1  C2  <0> d           0.697   3.200   0.023  0.00  0.00     0.022 C 
ATOM      2  H1  <0> d           0.796   3.637  -0.971  0.00  0.00     0.054 H 
ATOM      3  C3  <0> d          -0.786   3.189   0.462  0.00  0.00    -0.031 C 
ATOM      4  C4  <0> d          -1.234   1.777   0.017  0.00  0.00     0.026 C 
ATOM      5  N1  <0> d          -0.011   0.966   0.007  0.00  0.00    -0.352 N 
ATOM      6  C5  <0> d           1.088   1.739   0.001  0.00  0.00     0.222 C 
ATOM      7  O1  <0> d           2.228   1.326  -0.019  0.00  0.00    -0.273 OA
ATOM      8  H5  <0> d          -0.873   3.308   1.542  0.00  0.00     0.037 H 
ATOM      9  H6  <0> d          -1.353   3.959  -0.060  0.00  0.00     0.037 H 
ATOM     10  H7  <0> d           0.002  -0.004   0.002  0.00  0.00     0.163 HD
ENDROOT
BRANCH   4  11
ATOM     11  C6  <0> d          -1.846   1.829  -1.384  0.00  0.00    -0.053 C 
ATOM     12  H8  <0> d          -2.115   0.822  -1.701  0.00  0.00     0.030 H 
ATOM     13  H9  <0> d          -2.738   2.456  -1.368  0.00  0.00     0.030 H 
ATOM     14  H10 <0> d          -1.121   2.248  -2.082  0.00  0.00     0.030 H 
ENDBRANCH   4  11
BRANCH   4  15
ATOM     15  C7  <0> d          -2.242   1.204   1.015  0.00  0.00    -0.053 C 
ATOM     16  H11 <0> d          -1.796   1.182   2.010  0.00  0.00     0.030 H 
ATOM     17  H12 <0> d          -3.134   1.830   1.031  0.00  0.00     0.030 H 
ATOM     18  H13 <0> d          -2.514   0.192   0.716  0.00  0.00     0.030 H 
ENDBRANCH   4  15
BRANCH   1  19
ATOM     19  C1  <0> d           1.552   3.969   1.032  0.00  0.00    -0.065 C 
ATOM     20  H2  <0> d           2.600   3.910   0.740  0.00  0.00     0.028 H 
ATOM     21  H3  <0> d           1.239   5.013   1.053  0.00  0.00     0.028 H 
ATOM     22  H4  <0> d           1.425   3.532   2.023  0.00  0.00     0.028 H 
ENDBRANCH   1  19
TORSDOF 3
