REMARK  1 active torsions:
REMARK  status: ('A' for Active; 'I' for Inactive)
REMARK    1  A    between atoms: C3_3  and  C5_6 
ROOT
ATOM      1  C1  <0> d          -0.016   1.344   0.009  0.00  0.00    -0.059 A 
ATOM      2  C2  <0> d           1.323   1.776  -0.001  0.00  0.00    -0.045 A 
ATOM      3  C3  <0> d           2.096   0.654  -0.014  0.00  0.00     0.122 A 
ATOM      4  O1  <0> d           1.279  -0.417  -0.012  0.00  0.00    -0.319 OA
ATOM      5  C4  <0> d           0.002  -0.004   0.002  0.00  0.00     0.019 A 
ATOM      6  H2  <0> d          -0.893   1.974   0.025  0.00  0.00     0.086 H 
ATOM      7  H3  <0> d           1.671   2.798   0.001  0.00  0.00     0.088 H 
ATOM      8  H4  <0> d          -0.867  -0.645   0.007  0.00  0.00     0.123 H 
ENDROOT
BRANCH   3   9
ATOM      9  C5  <0> d           3.568   0.619  -0.029  0.00  0.00     0.179 A 
ATOM     10  N3  <0> d           4.373   1.665  -0.031  0.00  0.00    -0.218 NA
ATOM     11  C6  <0> d           5.639   1.258  -0.042  0.00  0.00     0.108 A 
ATOM     12  N2  <0> d           5.675  -0.049  -0.055  0.00  0.00    -0.166 NA
ATOM     13  H5  <0> d           6.503   1.906  -0.043  0.00  0.00     0.149 H 
ATOM     14  N1  <0> d           4.344  -0.498  -0.048  0.00  0.00    -0.258 N 
ATOM     15  H1  <0> d           4.040  -1.419  -0.054  0.00  0.00     0.191 HD
ENDBRANCH   3   9
TORSDOF 1
