REMARK  4 active torsions:
REMARK  status: ('A' for Active; 'I' for Inactive)
REMARK    1  A    between atoms: C1_1  and  C2_2 
REMARK    2  A    between atoms: C2_2  and  C3_3 
REMARK    3  A    between atoms: C3_3  and  C4_4 
REMARK    4  A    between atoms: C4_4  and  C5_6 
ROOT
ATOM      1  C5  <0> d           1.216   1.942   0.001  0.00  0.00    -0.040 C 
ATOM      2  C6  <0> d           2.224   2.543  -0.005  0.00  0.00    -0.146 C 
ATOM      3  H8  <0> d           3.127   3.080  -0.011  0.00  0.00     0.167 H 
ENDROOT
BRANCH   1   4
ATOM      4  C4  <0> d          -0.014   1.209   0.009  0.00  0.00     0.201 C 
ATOM      5  O1  <0> d           0.002  -0.004   0.002  0.00  0.00    -0.283 OA
BRANCH   4   6
ATOM      6  C3  <0> d          -1.330   1.945   0.019  0.00  0.00     0.002 C 
ATOM      7  H6  <0> d          -1.387   2.514   0.839  0.00  0.00     0.045 H 
ATOM      8  H7  <0> d          -1.400   2.575  -0.867  0.00  0.00     0.045 H 
BRANCH   6   9
ATOM      9  C2  <0> d          -2.479   0.935   0.019  0.00  0.00    -0.061 C 
ATOM     10  H4  <0> d          -2.417   0.314  -0.875  0.00  0.00     0.033 H 
ATOM     11  H5  <0> d          -2.408   0.304   0.905  0.00  0.00     0.033 H 
BRANCH   9  12
ATOM     12  C1  <0> d          -3.814   1.682   0.029  0.00  0.00    -0.076 C 
ATOM     13  H1  <0> d          -3.876   2.303   0.923  0.00  0.00     0.027 H 
ATOM     14  H2  <0> d          -3.885   2.312  -0.857  0.00  0.00     0.027 H 
ATOM     15  H3  <0> d          -4.633   0.962   0.029  0.00  0.00     0.027 H 
ENDBRANCH   9  12
ENDBRANCH   6   9
ENDBRANCH   4   6
ENDBRANCH   1   4
TORSDOF 4
