REMARK  5 active torsions:
REMARK  status: ('A' for Active; 'I' for Inactive)
REMARK    1  A    between atoms: C1_1  and  C2_2 
REMARK    2  A    between atoms: C2_2  and  C3_3 
REMARK    3  A    between atoms: C3_3  and  C4_5 
REMARK    4  A    between atoms: C3_3  and  C5_7 
REMARK    5  A    between atoms: C4_5  and  O1_6 
ROOT
ATOM      1  C3  <0> d           0.011   1.072   2.506  0.00  0.00    -0.009 C 
ATOM      2  H1  <0> d           0.104  -0.013   2.456  0.00  0.00     0.050 H 
ENDROOT
BRANCH   1   3
ATOM      3  C2  <0> d          -0.729   1.579   1.267  0.00  0.00    -0.059 C 
ATOM      4  H5  <0> d          -0.744   2.669   1.273  0.00  0.00     0.033 H 
ATOM      5  H6  <0> d          -1.751   1.202   1.275  0.00  0.00     0.033 H 
BRANCH   3   6
ATOM      6  C1  <0> d          -0.013   1.086   0.008  0.00  0.00    -0.076 C 
ATOM      7  H2  <0> d           0.002  -0.004   0.002  0.00  0.00     0.027 H 
ATOM      8  H3  <0> d           1.010   1.463   0.000  0.00  0.00     0.027 H 
ATOM      9  H4  <0> d          -0.540   1.447  -0.875  0.00  0.00     0.027 H 
ENDBRANCH   3   6
ENDBRANCH   1   3
BRANCH   1  10
ATOM     10  C4  <0> d           1.405   1.701   2.561  0.00  0.00     0.024 C 
ATOM     11  H7  <0> d           1.931   1.500   1.628  0.00  0.00     0.075 H 
ATOM     12  H8  <0> d           1.312   2.778   2.700  0.00  0.00     0.075 H 
BRANCH  10  13
ATOM     13  O1  <0> d           2.138   1.141   3.652  0.00  0.00    -0.400 OA
ATOM     14  H9  <0> d           3.033   1.494   3.747  0.00  0.00     0.209 HD
ENDBRANCH  10  13
ENDBRANCH   1  10
BRANCH   1  15
ATOM     15  C5  <0> d          -0.761   1.454   3.743  0.00  0.00    -0.052 A 
ATOM     16  C10 <0> d          -1.224   0.472   4.599  0.00  0.00    -0.076 A 
ATOM     17  C9  <0> d          -1.932   0.822   5.734  0.00  0.00    -0.082 A 
ATOM     18  H14 <0> d          -1.033  -0.568   4.381  0.00  0.00     0.084 H 
ATOM     19  C8  <0> d          -2.176   2.154   6.013  0.00  0.00    -0.083 A 
ATOM     20  H13 <0> d          -2.294   0.055   6.402  0.00  0.00     0.083 H 
ATOM     21  C7  <0> d          -1.713   3.135   5.157  0.00  0.00    -0.082 A 
ATOM     22  H12 <0> d          -2.729   2.427   6.899  0.00  0.00     0.083 H 
ATOM     23  C6  <0> d          -1.001   2.786   4.025  0.00  0.00    -0.076 A 
ATOM     24  H11 <0> d          -1.904   4.176   5.375  0.00  0.00     0.083 H 
ATOM     25  H10 <0> d          -0.635   3.553   3.358  0.00  0.00     0.084 H 
ENDBRANCH   1  15
TORSDOF 5
