REMARK  6 active torsions:
REMARK  status: ('A' for Active; 'I' for Inactive)
REMARK    1  A    between atoms: C1_1  and  C2_2 
REMARK    2  A    between atoms: C2_2  and  C3_3 
REMARK    3  A    between atoms: C2_2  and  C4_4 
REMARK    4  A    between atoms: C4_4  and  C5_6 
REMARK    5  A    between atoms: C4_4  and  O1_9 
REMARK    6  A    between atoms: C5_6  and  C6_7 
ROOT
ATOM      1  C4  <0> d          -0.729   1.579   1.267  0.00  0.00     0.041 C 
ATOM      2  H1  <0> d          -1.751   1.202   1.275  0.00  0.00     0.083 H 
ENDROOT
BRANCH   1   3
ATOM      3  C2  <0> d          -0.013   1.086   0.008  0.00  0.00    -0.036 C 
ATOM      4  H5  <0> d           0.002  -0.004   0.002  0.00  0.00     0.042 H 
BRANCH   3   5
ATOM      5  C1  <0> d           1.423   1.615  -0.003  0.00  0.00    -0.071 C 
ATOM      6  H2  <0> d           1.408   2.705   0.003  0.00  0.00     0.028 H 
ATOM      7  H3  <0> d           1.950   1.254   0.880  0.00  0.00     0.028 H 
ATOM      8  H4  <0> d           1.933   1.264  -0.900  0.00  0.00     0.028 H 
ENDBRANCH   3   5
BRANCH   3   9
ATOM      9  C3  <0> d          -0.753   1.593  -1.232  0.00  0.00    -0.071 C 
ATOM     10  H6  <0> d          -0.242   1.241  -2.128  0.00  0.00     0.028 H 
ATOM     11  H7  <0> d          -1.775   1.215  -1.224  0.00  0.00     0.028 H 
ATOM     12  H8  <0> d          -0.767   2.683  -1.226  0.00  0.00     0.028 H 
ENDBRANCH   3   9
ENDBRANCH   1   3
BRANCH   1  13
ATOM     13  C5  <0> d           0.011   1.072   2.506  0.00  0.00    -0.026 C 
ATOM     14  H9  <0> d           0.104  -0.013   2.456  0.00  0.00     0.042 H 
ATOM     15  H10 <0> d           1.004   1.520   2.545  0.00  0.00     0.042 H 
BRANCH  13  16
ATOM     16  C6  <0> d          -0.761   1.454   3.743  0.00  0.00    -0.110 C 
ATOM     17  C7  <0> d          -1.115   0.532   4.604  0.00  0.00    -0.125 C 
ATOM     18  H12 <0> d          -1.668   0.806   5.491  0.00  0.00     0.066 H 
ATOM     19  H13 <0> d          -0.853  -0.500   4.428  0.00  0.00     0.066 H 
ATOM     20  H11 <0> d          -1.022   2.487   3.919  0.00  0.00     0.075 H 
ENDBRANCH  13  16
ENDBRANCH   1  13
BRANCH   1  21
ATOM     21  O1  <0> d          -0.748   3.008   1.275  0.00  0.00    -0.395 OA
ATOM     22  H14 <0> d           0.130   3.413   1.268  0.00  0.00     0.210 HD
ENDBRANCH   1  21
TORSDOF 6
