REMARK  1 active torsions:
REMARK  status: ('A' for Active; 'I' for Inactive)
REMARK    1  A    between atoms: C1_1  and  C2_2 
ROOT
ATOM      1  C2  <0> d           0.002  -0.004   0.002  0.00  0.00     0.061 A 
ATOM      2  C3  <0> d          -1.193  -0.720   0.004  0.00  0.00     0.136 A 
ATOM      3  C4  <0> d          -1.130  -2.141  -0.005  0.00  0.00     0.271 A 
ATOM      4  N1  <0> d           0.085  -2.730  -0.014  0.00  0.00    -0.284 N 
ATOM      5  C5  <0> d           1.210  -1.971  -0.015  0.00  0.00     0.280 A 
ATOM      6  N2  <0> d           1.158  -0.655  -0.013  0.00  0.00    -0.210 NA
ATOM      7  O1  <0> d           2.412  -2.580  -0.024  0.00  0.00    -0.149 OA
ATOM      8  O2  <0> d          -2.148  -2.810  -0.003  0.00  0.00    -0.266 OA
ATOM      9  C6  <0> d          -2.454  -0.042   0.014  0.00  0.00     0.107 C 
ATOM     10  N3  <0> d          -3.455   0.496   0.023  0.00  0.00    -0.191 NA
ATOM     11  H4  <0> d           0.153  -3.698  -0.020  0.00  0.00     0.172 HD
ENDROOT
BRANCH   1  12
ATOM     12  C1  <0> d          -0.018   1.503   0.010  0.00  0.00    -0.034 C 
ATOM     13  H1  <0> d           1.004   1.880   0.003  0.00  0.00     0.035 H 
ATOM     14  H2  <0> d          -0.545   1.864  -0.873  0.00  0.00     0.035 H 
ATOM     15  H3  <0> d          -0.529   1.854   0.907  0.00  0.00     0.035 H 
ENDBRANCH   1  12
TORSDOF 1
