REMARK  0 active torsions:
REMARK  status: ('A' for Active; 'I' for Inactive)
ROOT
ATOM      1  C1  <0> d          -1.222   1.748   0.017  0.00  0.00    -0.082 A 
ATOM      2  C2  <0> d          -0.013   1.076   0.008  0.00  0.00    -0.082 A 
ATOM      3  C3  <0> d           1.175   1.778   0.000  0.00  0.00    -0.067 A 
ATOM      4  C4  <0> d           1.155   3.174   0.008  0.00  0.00     0.040 A 
ATOM      5  C5  <0> d          -0.071   3.843   0.022  0.00  0.00    -0.025 A 
ATOM      6  C6  <0> d          -1.249   3.132   0.030  0.00  0.00    -0.074 A 
ATOM      7  C7  <0> d           0.246   5.317   0.027  0.00  0.00     0.020 A 
ATOM      8  N1  <0> d           1.710   5.422   0.014  0.00  0.00    -0.353 N 
ATOM      9  C8  <0> d           2.232   4.183   0.003  0.00  0.00     0.252 A 
ATOM     10  O1  <0> d           3.421   3.930  -0.009  0.00  0.00    -0.268 OA
ATOM     11  H1  <0> d          -2.148   1.191   0.019  0.00  0.00     0.083 H 
ATOM     12  H2  <0> d           0.002  -0.004   0.002  0.00  0.00     0.083 H 
ATOM     13  H3  <0> d           2.116   1.250  -0.011  0.00  0.00     0.085 H 
ATOM     14  H4  <0> d          -2.195   3.654   0.041  0.00  0.00     0.084 H 
ATOM     15  H5  <0> d          -0.171   5.793  -0.860  0.00  0.00     0.071 H 
ATOM     16  H6  <0> d          -0.155   5.784   0.926  0.00  0.00     0.071 H 
ATOM     17  H7  <0> d           2.217   6.249   0.013  0.00  0.00     0.163 HD
ENDROOT
TORSDOF 0
