REMARK  1 active torsions:
REMARK  status: ('A' for Active; 'I' for Inactive)
REMARK    1  A    between atoms: C5_6  and  C6_7 
ROOT
ATOM      1  C1  <0> d          -0.018   1.499   0.010  0.00  0.00    -0.015 C 
ATOM      2  C2  <0> d           1.416   2.035  -0.001  0.00  0.00     0.115 C 
ATOM      3  N1  <0> d           2.162   1.353  -1.070  0.00  0.00     0.087 N 
ATOM      4  C3  <0> d           2.379  -0.057  -0.722  0.00  0.00     0.127 C 
ATOM      5  C4  <0> d           1.080  -0.701  -0.330  0.00  0.00    -0.068 C 
ATOM      6  C5  <0> d           0.002  -0.004   0.002  0.00  0.00    -0.032 C 
ATOM      7  H1  <0> d          -0.530   1.850   0.907  0.00  0.00     0.042 H 
ATOM      8  H2  <0> d          -0.547   1.860  -0.872  0.00  0.00     0.042 H 
ATOM      9  H3  <0> d           1.404   3.108  -0.189  0.00  0.00     0.080 H 
ATOM     10  H4  <0> d           1.889   1.834   0.961  0.00  0.00     0.080 H 
ATOM     11  H5  <0> d           1.685   1.437  -1.955  0.00  0.00     0.316 HD
ATOM     12  H6  <0> d           2.797  -0.581  -1.581  0.00  0.00     0.085 H 
ATOM     13  H7  <0> d           3.078  -0.119   0.112  0.00  0.00     0.085 H 
ATOM     14  H8  <0> d           1.021  -1.779  -0.319  0.00  0.00     0.080 H 
ENDROOT
BRANCH   6  15
ATOM     15  C6  <0> d          -1.177  -0.704   0.364  0.00  0.00     0.061 A 
ATOM     16  C8  <0> d          -1.376  -2.207   0.423  0.00  0.00     0.056 A 
ATOM     17  N3  <0> d          -2.778  -2.340   0.859  0.00  0.00    -0.277 NA
ATOM     18  H10 <0> d          -1.232  -2.654  -0.560  0.00  0.00     0.077 H 
ATOM     19  H11 <0> d          -0.704  -2.656   1.154  0.00  0.00     0.077 H 
ATOM     20  C7  <0> d          -3.236  -1.135   0.994  0.00  0.00     0.081 A 
ATOM     21  N2  <0> d          -2.332  -0.191   0.715  0.00  0.00    -0.245 NA
ATOM     22  H9  <0> d          -4.248  -0.916   1.302  0.00  0.00     0.146 H 
ENDBRANCH   6  15
TORSDOF 1
