REMARK  2 active torsions:
REMARK  status: ('A' for Active; 'I' for Inactive)
REMARK    1  A    between atoms: C4_4  and  C7_7 
REMARK    2  A    between atoms: C7_7  and  C8_8 
REMARK       I    between atoms: C8_8  and  N1_10 
ROOT
ATOM      1  C1  <0> d          -0.013   1.076   0.008  0.00  0.00    -0.083 A 
ATOM      2  C2  <0> d          -1.219   1.751   0.017  0.00  0.00    -0.082 A 
ATOM      3  C3  <0> d          -1.238   3.133   0.030  0.00  0.00    -0.076 A 
ATOM      4  C4  <0> d          -0.050   3.840   0.023  0.00  0.00    -0.050 A 
ATOM      5  C5  <0> d           1.156   3.165   0.008  0.00  0.00    -0.076 A 
ATOM      6  C6  <0> d           1.175   1.783   0.000  0.00  0.00    -0.082 A 
ATOM      7  H1  <0> d           0.002  -0.004   0.002  0.00  0.00     0.083 H 
ATOM      8  H2  <0> d          -2.147   1.198   0.019  0.00  0.00     0.083 H 
ATOM      9  H3  <0> d          -2.180   3.660   0.041  0.00  0.00     0.084 H 
ATOM     10  H4  <0> d           2.084   3.718   0.002  0.00  0.00     0.084 H 
ATOM     11  H5  <0> d           2.118   1.256  -0.011  0.00  0.00     0.083 H 
ENDROOT
BRANCH   4  12
ATOM     12  C7  <0> d          -0.070   5.347   0.031  0.00  0.00     0.033 C 
ATOM     13  H6  <0> d          -0.960   5.696   0.555  0.00  0.00     0.054 H 
ATOM     14  H7  <0> d           0.819   5.720   0.538  0.00  0.00     0.054 H 
BRANCH  12  15
ATOM     15  C8  <0> d          -0.091   5.857  -1.387  0.00  0.00     0.219 C 
ATOM     16  O1  <0> d          -0.089   5.074  -2.313  0.00  0.00    -0.273 OA
ATOM     17  N1  <0> d          -0.111   7.183  -1.626  0.00  0.00    -0.370 N 
ATOM     18  H8  <0> d          -0.113   7.810  -0.885  0.00  0.00     0.159 HD
ATOM     19  H9  <0> d          -0.124   7.511  -2.538  0.00  0.00     0.159 HD
ENDBRANCH  12  15
ENDBRANCH   4  12
TORSDOF 2
