REMARK  4 active torsions:
REMARK  status: ('A' for Active; 'I' for Inactive)
REMARK    1  A    between atoms: C1_1  and  C2_2 
REMARK    2  A    between atoms: C2_2  and  O2_4 
REMARK    3  A    between atoms: O2_4  and  C3_5 
REMARK    4  A    between atoms: C3_5  and  C4_6 
ROOT
ATOM      1  C4  <0> d           1.420   2.050  -0.001  0.00  0.00     0.059 C 
ATOM      2  H1  <0> d           1.916   1.731  -0.917  0.00  0.00     0.086 H 
ATOM      3  C5  <0> d          -0.019   1.528   0.010  0.00  0.00    -0.039 C 
ATOM      4  C6  <0> d           0.002  -0.004   0.002  0.00  0.00    -0.061 C 
ATOM      5  C7  <0> d           0.809  -0.499   1.206  0.00  0.00    -0.045 C 
ATOM      6  C8  <0> d           2.216   0.101   1.149  0.00  0.00     0.020 C 
ATOM      7  O3  <0> d           2.124   1.527   1.128  0.00  0.00    -0.384 OA
ATOM      8  H7  <0> d          -0.544   1.890  -0.873  0.00  0.00     0.036 H 
ATOM      9  H8  <0> d          -0.527   1.880   0.908  0.00  0.00     0.036 H 
ATOM     10  H9  <0> d          -1.018  -0.383   0.066  0.00  0.00     0.033 H 
ATOM     11  H10 <0> d           0.465  -0.357  -0.919  0.00  0.00     0.033 H 
ATOM     12  H11 <0> d           0.318  -0.188   2.127  0.00  0.00     0.036 H 
ATOM     13  H12 <0> d           0.875  -1.587   1.178  0.00  0.00     0.036 H 
ATOM     14  H13 <0> d           2.782  -0.214   2.026  0.00  0.00     0.074 H 
ATOM     15  H14 <0> d           2.723  -0.244   0.247  0.00  0.00     0.074 H 
ENDROOT
BRANCH   1  16
ATOM     16  C3  <0> d           1.409   3.578   0.068  0.00  0.00     0.053 C 
ATOM     17  H5  <0> d           0.797   3.974  -0.742  0.00  0.00     0.079 H 
ATOM     18  H6  <0> d           0.995   3.896   1.025  0.00  0.00     0.079 H 
BRANCH  16  19
ATOM     19  O2  <0> d           2.766   4.079  -0.061  0.00  0.00    -0.319 OA
BRANCH  19  20
ATOM     20  C2  <0> d           2.931   5.410  -0.021  0.00  0.00     0.254 C 
ATOM     21  O1  <0> d           1.973   6.133   0.119  0.00  0.00    -0.266 OA
BRANCH  20  22
ATOM     22  C1  <0> d           4.311   6.003  -0.148  0.00  0.00     0.004 C 
ATOM     23  H2  <0> d           5.041   5.202  -0.265  0.00  0.00     0.041 H 
ATOM     24  H3  <0> d           4.346   6.656  -1.020  0.00  0.00     0.041 H 
ATOM     25  H4  <0> d           4.543   6.578   0.748  0.00  0.00     0.041 H 
ENDBRANCH  20  22
ENDBRANCH  19  20
ENDBRANCH  16  19
ENDBRANCH   1  16
TORSDOF 4
