REMARK  3 active torsions:
REMARK  status: ('A' for Active; 'I' for Inactive)
REMARK    1  A    between atoms: C1_1  and  C2_2 
REMARK    2  A    between atoms: C4_6  and  C7_9 
REMARK    3  A    between atoms: C5_7  and  C6_8 
ROOT
ATOM      1  C2  <0> d          -0.120   1.851   2.492  0.00  0.00    -0.039 A 
ATOM      2  C3  <0> d          -1.097   2.259   3.328  0.00  0.00    -0.017 A 
ATOM      3  N1  <0> d          -2.276   2.242   2.644  0.00  0.00    -0.368 N 
ATOM      4  H1  <0> d          -3.208   2.539   3.148  0.00  0.00     0.165 HD
ATOM      5  C4  <0> d          -2.037   1.825   1.368  0.00  0.00     0.011 A 
ATOM      6  C5  <0> d          -0.718   1.572   1.248  0.00  0.00    -0.033 A 
ATOM      7  H5  <0> d          -0.967   2.550   4.360  0.00  0.00     0.112 H 
ENDROOT
BRANCH   1   8
ATOM      8  C1  <0> d           1.343   1.718   2.829  0.00  0.00    -0.049 C 
ATOM      9  H2  <0> d           1.506   2.008   3.877  0.00  0.00     0.033 H 
ATOM     10  H3  <0> d           1.932   2.374   2.171  0.00  0.00     0.033 H 
ATOM     11  H4  <0> d           1.659   0.674   2.684  0.00  0.00     0.033 H 
ENDBRANCH   1   8
BRANCH   6  12
ATOM     12  C6  <0> d          -0.013   1.086   0.008  0.00  0.00    -0.049 C 
ATOM     13  H6  <0> d          -0.744   0.958  -0.804  0.00  0.00     0.033 H 
ATOM     14  H7  <0> d           0.475   0.122   0.217  0.00  0.00     0.033 H 
ATOM     15  H8  <0> d           0.746   1.822  -0.295  0.00  0.00     0.033 H 
ENDBRANCH   6  12
BRANCH   5  16
ATOM     16  C7  <0> d          -3.069   1.670   0.281  0.00  0.00    -0.037 C 
ATOM     17  H9  <0> d          -2.582   1.318  -0.640  0.00  0.00     0.035 H 
ATOM     18  H10 <0> d          -3.551   2.641   0.093  0.00  0.00     0.035 H 
ATOM     19  H11 <0> d          -3.828   0.940   0.598  0.00  0.00     0.035 H 
ENDBRANCH   5  16
TORSDOF 3
