REMARK  4 active torsions:
REMARK  status: ('A' for Active; 'I' for Inactive)
REMARK    1  A    between atoms: C1_1  and  C2_2 
REMARK    2  A    between atoms: C4_4  and  C5_8 
REMARK    3  A    between atoms: C5_8  and  C6_9 
REMARK    4  A    between atoms: C5_8  and  C7_10 
ROOT
ATOM      1  C2  <0> d           0.002  -0.004   0.002  0.00  0.00     0.052 A 
ATOM      2  C3  <0> d           0.008  -0.818  -1.135  0.00  0.00    -0.034 A 
ATOM      3  C4  <0> d           0.028  -2.107  -0.725  0.00  0.00     0.033 A 
ATOM      4  N1  <0> d           0.034  -2.109   0.625  0.00  0.00    -0.282 N 
ATOM      5  H1  <0> d           0.048  -2.894   1.194  0.00  0.00     0.189 HD
ATOM      6  N2  <0> d           0.023  -0.777   1.058  0.00  0.00    -0.180 NA
ATOM      7  H5  <0> d          -0.002  -0.478  -2.160  0.00  0.00     0.089 H 
ENDROOT
BRANCH   3   8
ATOM      8  C5  <0> d           0.040  -3.323  -1.615  0.00  0.00    -0.019 C 
ATOM      9  H6  <0> d           0.466  -3.060  -2.583  0.00  0.00     0.048 H 
BRANCH   8  10
ATOM     10  C6  <0> d           0.886  -4.421  -0.967  0.00  0.00    -0.068 C 
ATOM     11  H7  <0> d           0.460  -4.684   0.001  0.00  0.00     0.028 H 
ATOM     12  H8  <0> d           0.895  -5.301  -1.611  0.00  0.00     0.028 H 
ATOM     13  H9  <0> d           1.906  -4.061  -0.830  0.00  0.00     0.028 H 
ENDBRANCH   8  10
BRANCH   8  14
ATOM     14  C7  <0> d          -1.391  -3.829  -1.808  0.00  0.00    -0.068 C 
ATOM     15  H10 <0> d          -1.994  -3.046  -2.269  0.00  0.00     0.028 H 
ATOM     16  H11 <0> d          -1.382  -4.708  -2.452  0.00  0.00     0.028 H 
ATOM     17  H12 <0> d          -1.817  -4.091  -0.839  0.00  0.00     0.028 H 
ENDBRANCH   8  14
ENDBRANCH   3   8
BRANCH   1  18
ATOM     18  C1  <0> d          -0.018   1.503   0.010  0.00  0.00    -0.034 C 
ATOM     19  H2  <0> d           1.004   1.880   0.003  0.00  0.00     0.035 H 
ATOM     20  H3  <0> d          -0.545   1.864  -0.873  0.00  0.00     0.035 H 
ATOM     21  H4  <0> d          -0.529   1.854   0.907  0.00  0.00     0.035 H 
ENDBRANCH   1  18
TORSDOF 4
