REMARK  2 active torsions:
REMARK  status: ('A' for Active; 'I' for Inactive)
REMARK    1  A    between atoms: C4_4  and  N3_8 
REMARK    2  A    between atoms: C5_6  and  N2_7 
ROOT
ATOM      1  C1  <0> d           1.161   2.456   0.004  0.00  0.00    -0.018 A 
ATOM      2  C2  <0> d          -0.021   1.732   0.012  0.00  0.00     0.041 A 
ATOM      3  C3  <0> d          -1.223   2.424   0.021  0.00  0.00    -0.018 A 
ATOM      4  C4  <0> d          -1.206   3.813   0.034  0.00  0.00     0.125 A 
ATOM      5  N1  <0> d          -0.059   4.476   0.026  0.00  0.00    -0.215 NA
ATOM      6  C5  <0> d           1.106   3.845   0.012  0.00  0.00     0.125 A 
ATOM      7 Cl1  <0> d           0.002  -0.004   0.002  0.00  0.00    -0.084 Cl
ATOM      8  H1  <0> d           2.113   1.947  -0.007  0.00  0.00     0.092 H 
ATOM      9  H2  <0> d          -2.161   1.889   0.022  0.00  0.00     0.092 H 
ENDROOT
BRANCH   4  10
ATOM     10  N3  <0> d          -2.406   4.515   0.049  0.00  0.00    -0.384 N 
ATOM     11  H5  <0> d          -2.399   5.615   0.059  0.00  0.00     0.157 HD
ATOM     12  H6  <0> d          -3.362   3.971   0.051  0.00  0.00     0.157 HD
ENDBRANCH   4  10
BRANCH   6  13
ATOM     13  N2  <0> d           2.286   4.579   0.005  0.00  0.00    -0.384 N 
ATOM     14  H3  <0> d           2.250   5.678   0.011  0.00  0.00     0.157 HD
ATOM     15  H4  <0> d           3.257   4.061  -0.007  0.00  0.00     0.157 HD
ENDBRANCH   6  13
TORSDOF 2
