REMARK  3 active torsions:
REMARK  status: ('A' for Active; 'I' for Inactive)
REMARK    1  A    between atoms: C3_3  and  N1_4 
REMARK       I    between atoms: N1_4  and  C4_5 
REMARK       I    between atoms: C4_5  and  N2_7 
REMARK    2  A    between atoms: N2_7  and  C5_8 
REMARK    3  A    between atoms: C5_8  and  C6_9 
ROOT
ATOM      1  N1  <0> d           0.002  -0.004   0.002  0.00  0.00    -0.339 N 
ATOM      2  C4  <0> d          -0.016   1.344   0.009  0.00  0.00     0.316 C 
ATOM      3  O1  <0> d          -1.077   1.937   0.018  0.00  0.00    -0.247 OA
ATOM      4  N2  <0> d           1.142   2.033   0.002  0.00  0.00    -0.333 N 
ATOM      5  H6  <0> d           0.962  -0.541  -0.010  0.00  0.00     0.164 HD
ATOM      6  H7  <0> d           2.102   1.496  -0.010  0.00  0.00     0.164 HD
ENDROOT
BRANCH   1   7
ATOM      7  C3  <0> d          -1.256  -0.754   0.010  0.00  0.00     0.014 A 
ATOM      8  C1  <0> d          -1.353  -1.963   0.943  0.00  0.00    -0.044 A 
ATOM      9  C2  <0> d          -1.239  -2.170  -0.570  0.00  0.00    -0.044 A 
ATOM     10  H1  <0> d          -0.506  -1.952   1.645  0.00  0.00     0.036 H 
ATOM     11  H2  <0> d          -2.297  -1.917   1.506  0.00  0.00     0.036 H 
ATOM     12  H3  <0> d          -0.332  -2.751  -0.793  0.00  0.00     0.036 H 
ATOM     13  H4  <0> d          -2.123  -2.716  -0.932  0.00  0.00     0.036 H 
ATOM     14  H5  <0> d          -1.835   0.166  -0.160  0.00  0.00     0.072 H 
ENDBRANCH   1   7
BRANCH   4  15
ATOM     15  C5  <0> d           1.122   3.498   0.010  0.00  0.00     0.077 C 
ATOM     16  H8  <0> d           0.590   3.862  -0.881  0.00  0.00     0.080 H 
ATOM     17  H9  <0> d           0.607   3.853   0.915  0.00  0.00     0.080 H 
BRANCH  15  18
ATOM     18  C6  <0> d           2.536   4.020  -0.001  0.00  0.00     0.191 C 
ATOM     19  O2  <0> d           3.465   3.247  -0.014  0.00  0.00    -0.647 OA
ATOM     20  O3  <0> d           2.763   5.343   0.004  0.00  0.00    -0.647 OA
ENDBRANCH  15  18
ENDBRANCH   4  15
TORSDOF 3
