REMARK  6 active torsions:
REMARK  status: ('A' for Active; 'I' for Inactive)
REMARK    1  A    between atoms: C1_1  and  C2_2 
REMARK    2  A    between atoms: C2_2  and  O1_3 
REMARK    3  A    between atoms: O1_3  and  C3_4 
REMARK    4  A    between atoms: C3_4  and  C4_6 
REMARK    5  A    between atoms: C4_6  and  C5_7 
REMARK    6  A    between atoms: C5_7  and  C6_8 
ROOT
ATOM      1  C3  <0> d          -3.794   1.665   0.029  0.00  0.00     0.259 C 
ATOM      2  O2  <0> d          -3.810   2.874   0.036  0.00  0.00    -0.265 OA
ENDROOT
BRANCH   1   3
ATOM      3  O1  <0> d          -4.947   0.979   0.031  0.00  0.00    -0.322 OA
BRANCH   3   4
ATOM      4  C2  <0> d          -6.176   1.753   0.041  0.00  0.00     0.025 C 
ATOM      5  H4  <0> d          -6.205   2.376   0.934  0.00  0.00     0.074 H 
ATOM      6  H5  <0> d          -6.213   2.386  -0.846  0.00  0.00     0.074 H 
BRANCH   4   7
ATOM      7  C1  <0> d          -7.376   0.804   0.041  0.00  0.00    -0.056 C 
ATOM      8  H1  <0> d          -7.347   0.181  -0.852  0.00  0.00     0.030 H 
ATOM      9  H2  <0> d          -7.339   0.171   0.928  0.00  0.00     0.030 H 
ATOM     10  H3  <0> d          -8.298   1.386   0.049  0.00  0.00     0.030 H 
ENDBRANCH   4   7
ENDBRANCH   3   4
ENDBRANCH   1   3
BRANCH   1  11
ATOM     11  C4  <0> d          -2.479   0.930   0.019  0.00  0.00     0.025 C 
ATOM     12  H6  <0> d          -2.417   0.309  -0.875  0.00  0.00     0.048 H 
ATOM     13  H7  <0> d          -2.408   0.299   0.905  0.00  0.00     0.048 H 
BRANCH  11  14
ATOM     14  C5  <0> d          -1.329   1.940   0.019  0.00  0.00     0.024 C 
ATOM     15  H8  <0> d          -1.391   2.561   0.913  0.00  0.00     0.049 H 
ATOM     16  H9  <0> d          -1.400   2.570  -0.867  0.00  0.00     0.049 H 
BRANCH  14  17
ATOM     17  C6  <0> d          -0.014   1.204   0.009  0.00  0.00     0.172 C 
ATOM     18  O3  <0> d           0.002  -0.004   0.002  0.00  0.00    -0.648 OA
ATOM     19  O4  <0> d           1.139   1.891   0.001  0.00  0.00    -0.648 OA
ENDBRANCH  14  17
ENDBRANCH  11  14
ENDBRANCH   1  11
TORSDOF 6
