REMARK  3 active torsions:
REMARK  status: ('A' for Active; 'I' for Inactive)
REMARK    1  A    between atoms: C1_1  and  C2_2 
REMARK    2  A    between atoms: C2_2  and  C3_3 
REMARK       I    between atoms: N1_6  and  C8_11 
REMARK    3  A    between atoms: C6_8  and  C7_10 
REMARK       I    between atoms: C8_11  and  N2_13 
ROOT
ATOM      1  C3  <0> d          -1.433  -0.534   0.013  0.00  0.00    -0.034 C 
ATOM      2  H1  <0> d          -1.987  -0.109   0.851  0.00  0.00     0.043 H 
ATOM      3  C4  <0> d          -2.138  -0.201  -1.320  0.00  0.00     0.003 C 
ATOM      4  N1  <0> d          -1.960  -1.415  -2.150  0.00  0.00    -0.334 N 
ATOM      5  C5  <0> d          -2.142  -2.538  -1.202  0.00  0.00     0.003 C 
ATOM      6  C6  <0> d          -1.436  -2.074   0.094  0.00  0.00    -0.037 C 
ATOM      7  H2  <0> d          -0.415  -2.454   0.126  0.00  0.00     0.042 H 
ATOM      8  C8  <0> d          -1.693  -1.482  -3.470  0.00  0.00     0.316 C 
ATOM      9  O1  <0> d          -1.571  -0.460  -4.118  0.00  0.00    -0.247 OA
ATOM     10  N2  <0> d          -1.562  -2.681  -4.070  0.00  0.00    -0.352 N 
ATOM     11  H8  <0> d          -3.198  -0.007  -1.151  0.00  0.00     0.065 H 
ATOM     12  H9  <0> d          -1.665   0.658  -1.796  0.00  0.00     0.065 H 
ATOM     13  H10 <0> d          -3.202  -2.709  -1.015  0.00  0.00     0.065 H 
ATOM     14  H11 <0> d          -1.672  -3.442  -1.588  0.00  0.00     0.065 H 
ATOM     15  H15 <0> d          -1.659  -3.496  -3.553  0.00  0.00     0.160 HD
ATOM     16  H16 <0> d          -1.370  -2.729  -5.020  0.00  0.00     0.160 HD
ENDROOT
BRANCH   1  17
ATOM     17  C2  <0> d           0.002  -0.004   0.002  0.00  0.00    -0.063 C 
ATOM     18  H6  <0> d           0.512  -0.356  -0.895  0.00  0.00     0.033 H 
ATOM     19  H7  <0> d           0.529  -0.365   0.885  0.00  0.00     0.033 H 
BRANCH  17  20
ATOM     20  C1  <0> d          -0.019   1.526   0.010  0.00  0.00    -0.076 C 
ATOM     21  H3  <0> d           1.004   1.903   0.003  0.00  0.00     0.027 H 
ATOM     22  H4  <0> d          -0.546   1.887  -0.873  0.00  0.00     0.027 H 
ATOM     23  H5  <0> d          -0.529   1.877   0.907  0.00  0.00     0.027 H 
ENDBRANCH  17  20
ENDBRANCH   1  17
BRANCH   6  24
ATOM     24  C7  <0> d          -2.217  -2.541   1.324  0.00  0.00    -0.071 C 
ATOM     25  H12 <0> d          -3.245  -2.187   1.257  0.00  0.00     0.028 H 
ATOM     26  H13 <0> d          -2.210  -3.630   1.367  0.00  0.00     0.028 H 
ATOM     27  H14 <0> d          -1.752  -2.139   2.224  0.00  0.00     0.028 H 
ENDBRANCH   6  24
TORSDOF 3
