REMARK  1 active torsions:
REMARK  status: ('A' for Active; 'I' for Inactive)
REMARK    1  A    between atoms: C2_2  and  N6_10 
ROOT
ATOM      1  C1  <0> d          -2.413   0.941   0.019  0.00  0.00    -0.007 A 
ATOM      2  C2  <0> d          -1.226   1.646   0.017  0.00  0.00     0.049 A 
ATOM      3  C3  <0> d          -1.247   3.052   0.030  0.00  0.00     0.049 A 
ATOM      4  N1  <0> d          -2.380   3.704   0.035  0.00  0.00    -0.157 NA
ATOM      5  N2  <0> d          -3.595   3.021   0.036  0.00  0.00    -0.111 N 
ATOM      6  C4  <0> d          -3.622   1.651   0.029  0.00  0.00     0.198 A 
ATOM      7  N3  <0> d          -4.900   1.295   0.033  0.00  0.00    -0.107 NA
ATOM      8  N4  <0> d          -5.650   2.340   0.043  0.00  0.00    -0.021 NA
ATOM      9  N5  <0> d          -4.939   3.416   0.045  0.00  0.00    -0.021 NA
ATOM     10  H1  <0> d          -2.410  -0.139   0.012  0.00  0.00     0.093 H 
ATOM     11  H2  <0> d          -0.316   3.600   0.033  0.00  0.00     0.121 H 
ENDROOT
BRANCH   2  12
ATOM     12  N6  <0> d          -0.011   0.966   0.007  0.00  0.00    -0.398 N 
ATOM     13  H3  <0> d           0.002  -0.004   0.002  0.00  0.00     0.156 HD
ATOM     14  H4  <0> d           0.822   1.462   0.002  0.00  0.00     0.156 HD
ENDBRANCH   2  12
TORSDOF 1
