REMARK  5 active torsions:
REMARK  status: ('A' for Active; 'I' for Inactive)
REMARK    1  A    between atoms: C1_1  and  C2_2 
REMARK    2  A    between atoms: C2_2  and  O2_4 
REMARK    3  A    between atoms: O2_4  and  C3_5 
REMARK    4  A    between atoms: C3_5  and  C4_6 
REMARK    5  A    between atoms: C4_6  and  C5_7 
ROOT
ATOM      1  C3  <0> d          -2.479   0.930   0.019  0.00  0.00     0.038 C 
ATOM      2  H4  <0> d          -2.417   0.309  -0.875  0.00  0.00     0.076 H 
ATOM      3  H5  <0> d          -2.408   0.299   0.905  0.00  0.00     0.076 H 
ENDROOT
BRANCH   1   4
ATOM      4  O2  <0> d          -3.746   1.639   0.029  0.00  0.00    -0.321 OA
BRANCH   4   5
ATOM      5  C2  <0> d          -4.862   0.892   0.030  0.00  0.00     0.254 C 
ATOM      6  O1  <0> d          -4.782  -0.313   0.023  0.00  0.00    -0.266 OA
BRANCH   5   7
ATOM      7  C1  <0> d          -6.214   1.558   0.040  0.00  0.00     0.004 C 
ATOM      8  H1  <0> d          -6.544   1.724  -0.985  0.00  0.00     0.041 H 
ATOM      9  H2  <0> d          -6.930   0.917   0.554  0.00  0.00     0.041 H 
ATOM     10  H3  <0> d          -6.144   2.514   0.559  0.00  0.00     0.041 H 
ENDBRANCH   5   7
ENDBRANCH   4   5
ENDBRANCH   1   4
BRANCH   1  11
ATOM     11  C4  <0> d          -1.329   1.940   0.019  0.00  0.00     0.036 C 
ATOM     12  H6  <0> d          -1.391   2.561   0.913  0.00  0.00     0.052 H 
ATOM     13  H7  <0> d          -1.400   2.570  -0.867  0.00  0.00     0.052 H 
BRANCH  11  14
ATOM     14  C5  <0> d          -0.014   1.204   0.009  0.00  0.00     0.174 C 
ATOM     15  O3  <0> d           0.002  -0.004   0.002  0.00  0.00    -0.648 OA
ATOM     16  O4  <0> d           1.139   1.891   0.001  0.00  0.00    -0.648 OA
ENDBRANCH  11  14
ENDBRANCH   1  11
TORSDOF 5
