REMARK  3 active torsions:
REMARK  status: ('A' for Active; 'I' for Inactive)
REMARK    1  A    between atoms: C1_1  and  O1_2 
REMARK    2  A    between atoms: O1_2  and  C2_3 
REMARK    3  A    between atoms: C6_7  and  O2_10 
ROOT
ATOM      1  C2  <0> d           1.175   2.089   0.002  0.00  0.00     0.109 A 
ATOM      2  C3  <0> d          -0.017   1.377   0.010  0.00  0.00    -0.048 A 
ATOM      3  C4  <0> d           0.002  -0.004   0.002  0.00  0.00    -0.077 A 
ATOM      4  C5  <0> d           1.207  -0.682  -0.013  0.00  0.00    -0.048 A 
ATOM      5  C6  <0> d           2.401   0.024  -0.021  0.00  0.00     0.107 A 
ATOM      6  C7  <0> d           2.385   1.412  -0.014  0.00  0.00     0.182 A 
ATOM      7  F1  <0> d           3.547   2.102  -0.021  0.00  0.00    -0.200 F 
ATOM      8  H4  <0> d          -0.960   1.904   0.017  0.00  0.00     0.087 H 
ATOM      9  H5  <0> d          -0.926  -0.556   0.008  0.00  0.00     0.083 H 
ATOM     10  H6  <0> d           1.218  -1.762  -0.018  0.00  0.00     0.087 H 
ENDROOT
BRANCH   1  11
ATOM     11  O1  <0> d           1.155   3.448   0.009  0.00  0.00    -0.353 OA
BRANCH  11  12
ATOM     12  C1  <0> d          -0.127   4.079   0.024  0.00  0.00     0.011 C 
ATOM     13  H1  <0> d           0.002   5.171   0.029  0.00  0.00     0.066 H 
ATOM     14  H2  <0> d          -0.676   3.771   0.926  0.00  0.00     0.066 H 
ATOM     15  H3  <0> d          -0.693   3.780  -0.870  0.00  0.00     0.066 H 
ENDBRANCH  11  12
ENDBRANCH   1  11
BRANCH   5  16
ATOM     16  O2  <0> d           3.585  -0.643  -0.036  0.00  0.00    -0.357 OA
ATOM     17  H7  <0> d           4.532  -0.083  -0.043  0.00  0.00     0.217 HD
ENDBRANCH   5  16
TORSDOF 3
