REMARK  4 active torsions:
REMARK  status: ('A' for Active; 'I' for Inactive)
REMARK    1  A    between atoms: C1_1  and  C2_2 
REMARK    2  A    between atoms: C3_5  and  C6_11 
REMARK    3  A    between atoms: N3_6  and  N4_7 
REMARK       I    between atoms: N4_7  and  C4_8 
REMARK    4  A    between atoms: C4_8  and  C5_10 
ROOT
ATOM      1  C2  <0> d          -2.539  -0.157  -0.394  0.00  0.00     0.145 A 
ATOM      2  N1  <0> d          -3.786  -0.454  -0.150  0.00  0.00    -0.133 NA
ATOM      3  N2  <0> d          -4.455   0.625   0.055  0.00  0.00    -0.133 NA
ATOM      4  C3  <0> d          -3.664   1.659  -0.042  0.00  0.00     0.145 A 
ATOM      5  N3  <0> d          -2.424   1.191  -0.327  0.00  0.00    -0.222 N 
ENDROOT
BRANCH   5   6
ATOM      6  N4  <0> d          -1.262   1.949  -0.519  0.00  0.00    -0.261 N 
ATOM      7  C4  <0> d          -0.182   1.735   0.258  0.00  0.00     0.232 C 
ATOM      8  O1  <0> d          -0.244   0.948   1.179  0.00  0.00    -0.272 OA
ATOM      9  H4  <0> d          -1.234   2.628  -1.211  0.00  0.00     0.190 HD
BRANCH   7  10
ATOM     10  C5  <0> d           1.105   2.468  -0.021  0.00  0.00    -0.001 C 
ATOM     11  H5  <0> d           1.861   2.164   0.703  0.00  0.00     0.040 H 
ATOM     12  H6  <0> d           1.448   2.229  -1.027  0.00  0.00     0.040 H 
ATOM     13  H7  <0> d           0.936   3.542   0.060  0.00  0.00     0.040 H 
ENDBRANCH   7  10
ENDBRANCH   5   6
BRANCH   1  14
ATOM     14  C1  <0> d          -1.430  -1.134  -0.690  0.00  0.00    -0.018 C 
ATOM     15  H1  <0> d          -1.168  -1.674   0.220  0.00  0.00     0.038 H 
ATOM     16  H2  <0> d          -1.763  -1.842  -1.449  0.00  0.00     0.038 H 
ATOM     17  H3  <0> d          -0.557  -0.593  -1.056  0.00  0.00     0.038 H 
ENDBRANCH   1  14
BRANCH   4  18
ATOM     18  C6  <0> d          -4.056   3.103   0.129  0.00  0.00    -0.018 C 
ATOM     19  H8  <0> d          -4.358   3.515  -0.834  0.00  0.00     0.038 H 
ATOM     20  H9  <0> d          -4.888   3.174   0.830  0.00  0.00     0.038 H 
ATOM     21  H10 <0> d          -3.207   3.667   0.515  0.00  0.00     0.038 H 
ENDBRANCH   4  18
TORSDOF 4
