REMARK  6 active torsions:
REMARK  status: ('A' for Active; 'I' for Inactive)
REMARK    1  A    between atoms: C1_1  and  C2_2 
REMARK    2  A    between atoms: C2_2  and  C3_3 
REMARK    3  A    between atoms: C3_3  and  C4_5 
REMARK    4  A    between atoms: C4_5  and  C5_7 
REMARK    5  A    between atoms: C4_5  and  C6_8 
REMARK    6  A    between atoms: C6_8  and  C7_9 
ROOT
ATOM      1  C4  <0> d          -3.307   1.388   1.207  0.00  0.00     0.003 C 
ATOM      2  H1  <0> d          -2.781   1.287   2.052  0.00  0.00     0.051 H 
ENDROOT
BRANCH   1   3
ATOM      3  C3  <0> d          -4.545   0.532   1.281  0.00  0.00     0.130 C 
ATOM      4  O1  <0> d          -4.968  -0.005   0.285  0.00  0.00    -0.298 OA
BRANCH   3   5
ATOM      5  C2  <0> d          -5.256   0.348   2.596  0.00  0.00    -0.013 C 
ATOM      6  H5  <0> d          -4.633  -0.072   3.256  0.00  0.00     0.043 H 
ATOM      7  H6  <0> d          -5.583   1.318   2.971  0.00  0.00     0.043 H 
BRANCH   5   8
ATOM      8  C1  <0> d          -6.473  -0.557   2.396  0.00  0.00    -0.070 C 
ATOM      9  H2  <0> d          -7.152  -0.100   1.677  0.00  0.00     0.028 H 
ATOM     10  H3  <0> d          -6.146  -1.527   2.021  0.00  0.00     0.028 H 
ATOM     11  H4  <0> d          -6.988  -0.691   3.348  0.00  0.00     0.028 H 
ENDBRANCH   5   8
ENDBRANCH   3   5
ENDBRANCH   1   3
BRANCH   1  12
ATOM     12  C5  <0> d          -3.708   2.853   1.027  0.00  0.00    -0.066 C 
ATOM     13  H7  <0> d          -4.281   2.962   0.106  0.00  0.00     0.028 H 
ATOM     14  H8  <0> d          -4.318   3.169   1.874  0.00  0.00     0.028 H 
ATOM     15  H9  <0> d          -2.812   3.471   0.974  0.00  0.00     0.028 H 
ENDBRANCH   1  12
BRANCH   1  16
ATOM     16  C6  <0> d          -2.451   0.944   0.019  0.00  0.00    -0.041 C 
ATOM     17  H10 <0> d          -2.989   1.136  -0.909  0.00  0.00     0.040 H 
ATOM     18  H11 <0> d          -2.239  -0.122   0.102  0.00  0.00     0.040 H 
BRANCH  16  19
ATOM     19  C7  <0> d          -1.156   1.715   0.017  0.00  0.00    -0.111 C 
ATOM     20  C8  <0> d          -0.013   1.076   0.008  0.00  0.00    -0.125 C 
ATOM     21  H13 <0> d           0.002  -0.004   0.002  0.00  0.00     0.066 H 
ATOM     22  H14 <0> d           0.915   1.629   0.002  0.00  0.00     0.066 H 
ATOM     23  H12 <0> d          -1.171   2.795   0.023  0.00  0.00     0.075 H 
ENDBRANCH  16  19
ENDBRANCH   1  16
TORSDOF 6
