REMARK  4 active torsions:
REMARK  status: ('A' for Active; 'I' for Inactive)
REMARK    1  A    between atoms: C1_1  and  N1_2 
REMARK    2  A    between atoms: N1_2  and  C2_3 
REMARK       I    between atoms: N1_2  and  C3_4 
REMARK    3  A    between atoms: C3_4  and  C4_6 
REMARK    4  A    between atoms: C4_6  and  N2_7 
ROOT
ATOM      1  N1  <0> d           0.002  -0.004   0.002  0.00  0.00    -0.359 N 
ATOM      2  C3  <0> d           0.000  -0.672  -1.169  0.00  0.00     0.238 C 
ATOM      3  O1  <0> d          -0.018  -0.060  -2.216  0.00  0.00    -0.271 OA
ENDROOT
BRANCH   2   4
ATOM      4  C4  <0> d           0.021  -2.178  -1.177  0.00  0.00     0.090 C 
ATOM      5  H7  <0> d           0.920  -2.532  -0.674  0.00  0.00     0.082 H 
ATOM      6  H8  <0> d          -0.860  -2.557  -0.657  0.00  0.00     0.082 H 
BRANCH   4   7
ATOM      7  N2  <0> d           0.014  -2.659  -2.561  0.00  0.00    -0.273 N 
ATOM      8  N3  <0> d          -0.928  -2.329  -3.544  0.00  0.00    -0.185 NA
ATOM      9  C7  <0> d          -0.600  -2.947  -4.649  0.00  0.00     0.023 A 
ATOM     10  C6  <0> d           0.555  -3.698  -4.403  0.00  0.00    -0.048 A 
ATOM     11  H11 <0> d          -1.131  -2.892  -5.588  0.00  0.00     0.117 H 
ATOM     12  C5  <0> d           0.911  -3.503  -3.112  0.00  0.00     0.000 A 
ATOM     13  H10 <0> d           1.071  -4.322  -5.118  0.00  0.00     0.087 H 
ATOM     14  H9  <0> d           1.761  -3.944  -2.613  0.00  0.00     0.114 H 
ENDBRANCH   4   7
ENDBRANCH   2   4
BRANCH   1  15
ATOM     15  C1  <0> d          -0.018   1.461   0.010  0.00  0.00    -0.017 C 
ATOM     16  H1  <0> d           1.005   1.838   0.002  0.00  0.00     0.056 H 
ATOM     17  H2  <0> d          -0.545   1.822  -0.873  0.00  0.00     0.056 H 
ATOM     18  H3  <0> d          -0.528   1.812   0.907  0.00  0.00     0.056 H 
ENDBRANCH   1  15
BRANCH   1  19
ATOM     19  C2  <0> d           0.024  -0.743   1.267  0.00  0.00    -0.017 C 
ATOM     20  H4  <0> d           0.022  -0.040   2.099  0.00  0.00     0.056 H 
ATOM     21  H5  <0> d          -0.857  -1.382   1.329  0.00  0.00     0.056 H 
ATOM     22  H6  <0> d           0.923  -1.358   1.312  0.00  0.00     0.056 H 
ENDBRANCH   1  19
TORSDOF 4
