REMARK  2 active torsions:
REMARK  status: ('A' for Active; 'I' for Inactive)
REMARK    1  A    between atoms: C1_1  and  N1_2 
REMARK    2  A    between atoms: N1_2  and  C2_3 
ROOT
ATOM      1  C2  <0> d          -4.276   1.453   1.641  0.00  0.00     0.237 C 
ATOM      2  N2  <0> d          -4.205   1.641   0.340  0.00  0.00    -0.243 NA
ATOM      3  C3  <0> d          -2.799   1.840   0.029  0.00  0.00     0.062 C 
ATOM      4  H1  <0> d          -2.558   2.903   0.061  0.00  0.00     0.080 H 
ATOM      5  C4  <0> d          -2.225   1.219  -1.227  0.00  0.00    -0.042 C 
ATOM      6  C5  <0> d          -0.727   1.579  -1.246  0.00  0.00    -0.063 C 
ATOM      7  C6  <0> d          -0.013   1.086   0.008  0.00  0.00    -0.063 C 
ATOM      8  C7  <0> d          -0.709   1.570   1.292  0.00  0.00    -0.038 C 
ATOM      9  C8  <0> d          -2.140   1.091   1.227  0.00  0.00     0.070 C 
ATOM     10  H2  <0> d          -2.179   0.014   1.069  0.00  0.00     0.087 H 
ATOM     11  O1  <0> d          -3.051   1.472   2.249  0.00  0.00    -0.313 OA
ATOM     12  H7  <0> d          -2.720   1.630  -2.107  0.00  0.00     0.036 H 
ATOM     13  H8  <0> d          -2.349   0.136  -1.200  0.00  0.00     0.036 H 
ATOM     14  H9  <0> d          -0.622   2.662  -1.312  0.00  0.00     0.033 H 
ATOM     15  H10 <0> d          -0.264   1.124  -2.121  0.00  0.00     0.033 H 
ATOM     16  H11 <0> d           0.002  -0.004   0.002  0.00  0.00     0.033 H 
ATOM     17  H12 <0> d           1.013   1.454   0.000  0.00  0.00     0.033 H 
ATOM     18  H13 <0> d          -0.215   1.145   2.166  0.00  0.00     0.036 H 
ATOM     19  H14 <0> d          -0.682   2.659   1.342  0.00  0.00     0.036 H 
ENDROOT
BRANCH   1  20
ATOM     20  N1  <0> d          -5.456   1.260   2.317  0.00  0.00    -0.359 N 
ATOM     21  H6  <0> d          -6.296   1.256   1.833  0.00  0.00     0.162 HD
BRANCH  20  22
ATOM     22  C1  <0> d          -5.445   1.058   3.768  0.00  0.00    -0.018 C 
ATOM     23  H3  <0> d          -4.856   0.173   4.007  0.00  0.00     0.056 H 
ATOM     24  H4  <0> d          -5.004   1.930   4.252  0.00  0.00     0.056 H 
ATOM     25  H5  <0> d          -6.466   0.923   4.123  0.00  0.00     0.056 H 
ENDBRANCH  20  22
ENDBRANCH   1  20
TORSDOF 2
