REMARK  2 active torsions:
REMARK  status: ('A' for Active; 'I' for Inactive)
REMARK    1  A    between atoms: C1_1  and  C2_2 
REMARK    2  A    between atoms: C7_7  and  N1_8 
ROOT
ATOM      1  C2  <0> d           0.002  -0.004   0.002  0.00  0.00    -0.035 A 
ATOM      2  C3  <0> d           0.006  -0.689  -1.198  0.00  0.00    -0.075 A 
ATOM      3  C4  <0> d           0.025  -2.071  -1.206  0.00  0.00    -0.082 A 
ATOM      4  C5  <0> d           0.040  -2.772  -0.014  0.00  0.00    -0.081 A 
ATOM      5  C6  <0> d           0.036  -2.093   1.188  0.00  0.00    -0.056 A 
ATOM      6  C7  <0> d           0.023  -0.705   1.200  0.00  0.00     0.047 A 
ATOM      7  H4  <0> d          -0.006  -0.144  -2.130  0.00  0.00     0.084 H 
ATOM      8  H5  <0> d           0.027  -2.605  -2.145  0.00  0.00     0.083 H 
ATOM      9  H6  <0> d           0.054  -3.852  -0.024  0.00  0.00     0.083 H 
ATOM     10  H7  <0> d           0.047  -2.642   2.119  0.00  0.00     0.087 H 
ENDROOT
BRANCH   6  11
ATOM     11  N1  <0> d           0.025  -0.012   2.419  0.00  0.00    -0.297 N 
ATOM     12  C9  <0> d          -0.795  -0.225   3.487  0.00  0.00     0.093 A 
ATOM     13  N3  <0> d          -0.456   0.631   4.411  0.00  0.00    -0.144 NA
ATOM     14  H9  <0> d          -1.578  -0.966   3.556  0.00  0.00     0.147 H 
ATOM     15  N2  <0> d           0.510   1.368   3.992  0.00  0.00    -0.144 NA
ATOM     16  C8  <0> d           0.843   1.017   2.779  0.00  0.00     0.093 A 
ATOM     17  H8  <0> d           1.621   1.458   2.175  0.00  0.00     0.147 H 
ENDBRANCH   6  11
BRANCH   1  18
ATOM     18  C1  <0> d          -0.018   1.503   0.010  0.00  0.00    -0.049 C 
ATOM     19  H1  <0> d           1.004   1.880   0.003  0.00  0.00     0.033 H 
ATOM     20  H2  <0> d          -0.545   1.864  -0.873  0.00  0.00     0.033 H 
ATOM     21  H3  <0> d          -0.529   1.854   0.907  0.00  0.00     0.033 H 
ENDBRANCH   1  18
TORSDOF 2
