REMARK  4 active torsions:
REMARK  status: ('A' for Active; 'I' for Inactive)
REMARK    1  A    between atoms: C1_1  and  C2_2 
REMARK    2  A    between atoms: C2_2  and  C3_4 
REMARK    3  A    between atoms: C2_2  and  N1_6 
REMARK    4  A    between atoms: C3_4  and  O1_5 
ROOT
ATOM      1  C2  <0> d           1.872  -1.761  -0.025  0.00  0.00     0.052 C 
ATOM      2  H1  <0> d           1.093  -2.400  -0.465  0.00  0.00     0.078 H 
ENDROOT
BRANCH   1   3
ATOM      3  C1  <0> d           3.150  -1.814  -0.864  0.00  0.00    -0.053 C 
ATOM      4  H2  <0> d           2.926  -1.498  -1.894  0.00  0.00     0.030 H 
ATOM      5  H3  <0> d           3.541  -2.842  -0.873  0.00  0.00     0.030 H 
ATOM      6  H4  <0> d           3.903  -1.139  -0.429  0.00  0.00     0.030 H 
ENDBRANCH   1   3
BRANCH   1   7
ATOM      7  C3  <0> d           2.184  -2.200   1.407  0.00  0.00     0.037 C 
ATOM      8  H5  <0> d           3.000  -1.582   1.811  0.00  0.00     0.077 H 
ATOM      9  H6  <0> d           1.288  -2.077   2.033  0.00  0.00     0.077 H 
BRANCH   7  10
ATOM     10  O1  <0> d           2.581  -3.573   1.409  0.00  0.00    -0.399 OA
ATOM     11  H7  <0> d           2.846  -4.068   2.355  0.00  0.00     0.209 HD
ENDBRANCH   7  10
ENDBRANCH   1   7
BRANCH   1  12
ATOM     12  N1  <0> d           1.352  -0.392  -0.013  0.00  0.00    -0.256 N 
ATOM     13  N3  <0> d           0.002  -0.004   0.002  0.00  0.00    -0.164 NA
ATOM     14  C5  <0> d          -0.016   1.303   0.009  0.00  0.00     0.107 A 
ATOM     15  N2  <0> d           1.238   1.753  -0.000  0.00  0.00    -0.234 NA
ATOM     16  H9  <0> d          -0.903   1.919   0.017  0.00  0.00     0.149 H 
ATOM     17  C4  <0> d           2.072   0.744  -0.014  0.00  0.00     0.084 A 
ATOM     18  H8  <0> d           3.149   0.812  -0.024  0.00  0.00     0.146 H 
ENDBRANCH   1  12
TORSDOF 4
