REMARK  8 active torsions:
REMARK  status: ('A' for Active; 'I' for Inactive)
REMARK    1  A    between atoms: C1_1  and  C2_2 
REMARK    2  A    between atoms: C2_2  and  C3_3 
REMARK    3  A    between atoms: C2_2  and  C4_4 
REMARK    4  A    between atoms: C2_2  and  C5_5 
REMARK    5  A    between atoms: C5_5  and  C6_6 
REMARK    6  A    between atoms: C6_6  and  C7_7 
REMARK    7  A    between atoms: C6_6  and  C8_8 
REMARK    8  A    between atoms: C6_6  and  O1_9 
ROOT
ATOM      1  C5  <0> d           0.903   2.686   0.481  0.00  0.00    -0.031 C 
ATOM      2  H10 <0> d           0.717   3.758   0.553  0.00  0.00     0.038 H 
ATOM      3  H11 <0> d           1.698   2.409   1.174  0.00  0.00     0.038 H 
ENDROOT
BRANCH   1   4
ATOM      4  C2  <0> d           1.327   2.337  -0.947  0.00  0.00    -0.049 C 
BRANCH   4   5
ATOM      5  C1  <0> d           0.318   2.924  -1.936  0.00  0.00    -0.070 C 
ATOM      6  H1  <0> d          -0.050   3.877  -1.556  0.00  0.00     0.028 H 
ATOM      7  H2  <0> d           0.803   3.080  -2.900  0.00  0.00     0.028 H 
ATOM      8  H3  <0> d          -0.517   2.234  -2.056  0.00  0.00     0.028 H 
ENDBRANCH   4   5
BRANCH   4   9
ATOM      9  C3  <0> d           2.713   2.921  -1.225  0.00  0.00    -0.070 C 
ATOM     10  H4  <0> d           3.432   2.502  -0.520  0.00  0.00     0.028 H 
ATOM     11  H5  <0> d           3.015   2.672  -2.242  0.00  0.00     0.028 H 
ATOM     12  H6  <0> d           2.681   4.004  -1.110  0.00  0.00     0.028 H 
ENDBRANCH   4   9
BRANCH   4  13
ATOM     13  C4  <0> d           1.373   0.816  -1.107  0.00  0.00    -0.070 C 
ATOM     14  H7  <0> d           0.364   0.411  -1.025  0.00  0.00     0.028 H 
ATOM     15  H8  <0> d           1.785   0.566  -2.084  0.00  0.00     0.028 H 
ATOM     16  H9  <0> d           2.001   0.387  -0.327  0.00  0.00     0.028 H 
ENDBRANCH   4  13
ENDBRANCH   1   4
BRANCH   1  17
ATOM     17  C6  <0> d          -0.373   1.921   0.837  0.00  0.00     0.051 C 
BRANCH  17  18
ATOM     18  C7  <0> d          -1.437   2.180  -0.233  0.00  0.00    -0.048 C 
ATOM     19  H12 <0> d          -2.427   2.113   0.216  0.00  0.00     0.031 H 
ATOM     20  H13 <0> d          -1.295   3.175  -0.653  0.00  0.00     0.031 H 
ATOM     21  H14 <0> d          -1.345   1.435  -1.023  0.00  0.00     0.031 H 
ENDBRANCH  17  18
BRANCH  17  22
ATOM     22  C8  <0> d          -0.891   2.396   2.196  0.00  0.00    -0.048 C 
ATOM     23  H15 <0> d          -0.133   2.212   2.958  0.00  0.00     0.031 H 
ATOM     24  H16 <0> d          -1.108   3.464   2.149  0.00  0.00     0.031 H 
ATOM     25  H17 <0> d          -1.800   1.852   2.449  0.00  0.00     0.031 H 
ENDBRANCH  17  22
BRANCH  17  26
ATOM     26  O1  <0> d          -0.089   0.522   0.897  0.00  0.00    -0.391 OA
ATOM     27  H18 <0> d           0.578   0.285   1.556  0.00  0.00     0.210 HD
ENDBRANCH  17  26
ENDBRANCH   1  17
TORSDOF 8
