REMARK  3 active torsions:
REMARK  status: ('A' for Active; 'I' for Inactive)
REMARK    1  A    between atoms: C1_1  and  S1_2 
REMARK    2  A    between atoms: S1_2  and  C2_4 
REMARK    3  A    between atoms: C5_7  and  O2_10 
ROOT
ATOM      1  C2  <0> d           3.735   2.692  -0.019  0.00  0.00     0.031 A 
ATOM      2  C3  <0> d           3.096   2.409  -1.213  0.00  0.00    -0.062 A 
ATOM      3  C4  <0> d           1.842   1.830  -1.207  0.00  0.00    -0.050 A 
ATOM      4  C5  <0> d           1.223   1.532  -0.001  0.00  0.00     0.065 A 
ATOM      5  C6  <0> d           1.863   1.822   1.195  0.00  0.00    -0.050 A 
ATOM      6  C7  <0> d           3.119   2.397   1.183  0.00  0.00    -0.062 A 
ATOM      7  H4  <0> d           3.579   2.641  -2.151  0.00  0.00     0.085 H 
ATOM      8  H5  <0> d           1.344   1.609  -2.139  0.00  0.00     0.087 H 
ATOM      9  H6  <0> d           1.381   1.596   2.134  0.00  0.00     0.087 H 
ATOM     10  H7  <0> d           3.620   2.618   2.114  0.00  0.00     0.085 H 
ENDROOT
BRANCH   1  11
ATOM     11  S1  <0> d           5.334   3.430  -0.030  0.00  0.00     0.045 S 
ATOM     12  O1  <0> d           5.875   3.060  -1.291  0.00  0.00    -0.253 OA
BRANCH  11  13
ATOM     13  C1  <0> d           4.995   5.212  -0.018  0.00  0.00    -0.004 C 
ATOM     14  H1  <0> d           4.431   5.468   0.879  0.00  0.00     0.045 H 
ATOM     15  H2  <0> d           5.937   5.761  -0.024  0.00  0.00     0.045 H 
ATOM     16  H3  <0> d           4.414   5.478  -0.901  0.00  0.00     0.045 H 
ENDBRANCH  11  13
ENDBRANCH   1  11
BRANCH   4  17
ATOM     17  O2  <0> d          -0.011   0.963   0.007  0.00  0.00    -0.361 OA
ATOM     18  H8  <0> d           0.002  -0.004   0.002  0.00  0.00     0.217 HD
ENDBRANCH   4  17
TORSDOF 3
