REMARK  10 active torsions:
REMARK  status: ('A' for Active; 'I' for Inactive)
REMARK    1  A    between atoms: C1_1  and  C2_2 
REMARK    2  A    between atoms: C2_2  and  C3_3 
REMARK    3  A    between atoms: C3_3  and  C4_5 
REMARK    4  A    between atoms: C3_3  and  C5_6 
REMARK    5  A    between atoms: C5_6  and  C6_7 
REMARK    6  A    between atoms: C6_7  and  C7_8 
REMARK    7  A    between atoms: C7_8  and  C8_9 
REMARK    8  A    between atoms: C8_9  and  C9_10 
REMARK    9  A    between atoms: C8_9  and  C10_11 
REMARK   10  A    between atoms: C8_9  and  O1_12 
ROOT
ATOM      1  C6  <0> d          -0.855   1.364   3.753  0.00  0.00    -0.062 C 
ATOM      2  H12 <0> d          -0.871   2.450   3.846  0.00  0.00     0.033 H 
ATOM      3  H13 <0> d          -1.875   0.991   3.669  0.00  0.00     0.033 H 
ENDROOT
BRANCH   1   4
ATOM      4  C5  <0> d          -0.064   0.971   2.503  0.00  0.00    -0.062 C 
ATOM      5  H10 <0> d          -0.047  -0.115   2.410  0.00  0.00     0.033 H 
ATOM      6  H11 <0> d           0.957   1.344   2.587  0.00  0.00     0.033 H 
BRANCH   4   7
ATOM      7  C3  <0> d          -0.729   1.579   1.267  0.00  0.00    -0.058 C 
ATOM      8  H1  <0> d          -1.776   1.277   1.232  0.00  0.00     0.039 H 
BRANCH   7   9
ATOM      9  C2  <0> d          -0.013   1.086   0.008  0.00  0.00    -0.065 C 
ATOM     10  H5  <0> d           0.002  -0.004   0.002  0.00  0.00     0.033 H 
ATOM     11  H6  <0> d           1.010   1.463   0.000  0.00  0.00     0.033 H 
BRANCH   9  12
ATOM     12  C1  <0> d          -0.753   1.593  -1.232  0.00  0.00    -0.076 C 
ATOM     13  H2  <0> d          -0.767   2.683  -1.226  0.00  0.00     0.027 H 
ATOM     14  H3  <0> d          -0.242   1.241  -2.128  0.00  0.00     0.027 H 
ATOM     15  H4  <0> d          -1.775   1.215  -1.224  0.00  0.00     0.027 H 
ENDBRANCH   9  12
ENDBRANCH   7   9
BRANCH   7  16
ATOM     16  C4  <0> d          -0.641   3.105   1.339  0.00  0.00    -0.073 C 
ATOM     17  H7  <0> d           0.406   3.407   1.374  0.00  0.00     0.028 H 
ATOM     18  H8  <0> d          -1.115   3.538   0.458  0.00  0.00     0.028 H 
ATOM     19  H9  <0> d          -1.151   3.457   2.235  0.00  0.00     0.028 H 
ENDBRANCH   7  16
ENDBRANCH   4   7
ENDBRANCH   1   4
BRANCH   1  20
ATOM     20  C7  <0> d          -0.190   0.756   4.989  0.00  0.00    -0.037 C 
ATOM     21  H14 <0> d          -0.173  -0.330   4.896  0.00  0.00     0.037 H 
ATOM     22  H15 <0> d           0.831   1.129   5.073  0.00  0.00     0.037 H 
BRANCH  20  23
ATOM     23  C8  <0> d          -0.981   1.149   6.239  0.00  0.00     0.051 C 
BRANCH  23  24
ATOM     24  C9  <0> d          -0.248   0.647   7.485  0.00  0.00    -0.048 C 
ATOM     25  H16 <0> d           0.745   1.094   7.528  0.00  0.00     0.031 H 
ATOM     26  H17 <0> d          -0.811   0.926   8.375  0.00  0.00     0.031 H 
ATOM     27  H18 <0> d          -0.156  -0.439   7.439  0.00  0.00     0.031 H 
ENDBRANCH  23  24
BRANCH  23  28
ATOM     28  C10 <0> d          -1.110   2.672   6.303  0.00  0.00    -0.048 C 
ATOM     29  H19 <0> d          -1.632   3.030   5.415  0.00  0.00     0.031 H 
ATOM     30  H20 <0> d          -1.674   2.952   7.193  0.00  0.00     0.031 H 
ATOM     31  H21 <0> d          -0.117   3.120   6.346  0.00  0.00     0.031 H 
ENDBRANCH  23  28
BRANCH  23  32
ATOM     32  O1  <0> d          -2.282   0.562   6.183  0.00  0.00    -0.391 OA
ATOM     33  H22 <0> d          -2.276  -0.404   6.140  0.00  0.00     0.210 HD
ENDBRANCH  23  32
ENDBRANCH  20  23
ENDBRANCH   1  20
TORSDOF 10
