REMARK  0 active torsions:
REMARK  status: ('A' for Active; 'I' for Inactive)
ROOT
ATOM      1  C1  <0> d           1.194  -0.698  -0.013  0.00  0.00    -0.018 A 
ATOM      2  C2  <0> d           2.398   0.015  -0.021  0.00  0.00     0.038 A 
ATOM      3  C3  <0> d           2.328   1.403  -0.013  0.00  0.00    -0.013 A 
ATOM      4  C4  <0> d           1.099   2.025   0.002  0.00  0.00     0.012 A 
ATOM      5  N1  <0> d          -0.016   1.317   0.009  0.00  0.00    -0.248 NA
ATOM      6  C5  <0> d           0.002  -0.004   0.002  0.00  0.00     0.127 A 
ATOM      7 Cl1  <0> d          -1.497  -0.879   0.012  0.00  0.00    -0.062 Cl
ATOM      8  C6  <0> d           3.736   1.951  -0.023  0.00  0.00    -0.023 A 
ATOM      9  C7  <0> d           4.634   0.703  -0.038  0.00  0.00    -0.004 A 
ATOM     10  N2  <0> d           3.710  -0.436  -0.036  0.00  0.00    -0.389 N 
ATOM     11  H1  <0> d           1.197  -1.778  -0.019  0.00  0.00     0.092 H 
ATOM     12  H2  <0> d           1.046   3.104   0.009  0.00  0.00     0.115 H 
ATOM     13  H3  <0> d           3.881   2.572  -0.919  0.00  0.00     0.042 H 
ATOM     14  H4  <0> d           3.898   2.562   0.877  0.00  0.00     0.042 H 
ATOM     15  H5  <0> d           5.260   0.713  -0.943  0.00  0.00     0.064 H 
ATOM     16  H6  <0> d           5.277   0.703   0.854  0.00  0.00     0.064 H 
ATOM     17  H7  <0> d           4.103  -1.463  -0.045  0.00  0.00     0.159 HD
ENDROOT
TORSDOF 0
