REMARK  0 active torsions:
REMARK  status: ('A' for Active; 'I' for Inactive)
ROOT
ATOM      1  C1  <0> d          -0.019   1.533   0.011  0.00  0.00    -0.045 A 
ATOM      2  C2  <0> d           1.418   1.981  -0.001  0.00  0.00    -0.105 A 
ATOM      3  C3  <0> d           2.239   0.976  -0.024  0.00  0.00    -0.101 A 
ATOM      4  C4  <0> d           1.518  -0.345  -0.035  0.00  0.00    -0.027 A 
ATOM      5  H1  <0> d           1.823  -0.993   0.786  0.00  0.00     0.047 H 
ATOM      6  C5  <0> d           0.002  -0.004   0.002  0.00  0.00    -0.037 A 
ATOM      7  H2  <0> d          -0.521  -0.446   0.850  0.00  0.00     0.042 H 
ATOM      8  C6  <0> d          -0.518  -0.494  -1.386  0.00  0.00    -0.033 C 
ATOM      9  H3  <0> d          -1.487  -0.106  -1.702  0.00  0.00     0.046 H 
ATOM     10  C7  <0> d           0.714  -0.140  -2.296  0.00  0.00    -0.051 C 
ATOM     11  C8  <0> d           1.725  -1.010  -1.433  0.00  0.00    -0.030 C 
ATOM     12  H4  <0> d           2.753  -1.079  -1.786  0.00  0.00     0.046 H 
ATOM     13  C9  <0> d           0.930  -2.319  -1.347  0.00  0.00    -0.101 C 
ATOM     14  C10 <0> d          -0.389  -2.021  -1.314  0.00  0.00    -0.101 C 
ATOM     15  H5  <0> d          -0.516   1.895   0.910  0.00  0.00     0.039 H 
ATOM     16  H6  <0> d          -0.533   1.904  -0.876  0.00  0.00     0.039 H 
ATOM     17  H7  <0> d           1.728   3.015   0.009  0.00  0.00     0.076 H 
ATOM     18  H8  <0> d           3.314   1.076  -0.035  0.00  0.00     0.076 H 
ATOM     19  H9  <0> d           0.604  -0.517  -3.312  0.00  0.00     0.034 H 
ATOM     20  H10 <0> d           0.957   0.922  -2.275  0.00  0.00     0.034 H 
ATOM     21  H11 <0> d           1.352  -3.312  -1.307  0.00  0.00     0.076 H 
ATOM     22  H12 <0> d          -1.208  -2.722  -1.255  0.00  0.00     0.076 H 
ENDROOT
TORSDOF 0
