REMARK  1 active torsions:
REMARK  status: ('A' for Active; 'I' for Inactive)
REMARK    1  A    between atoms: C3_3  and  C6_9 
ROOT
ATOM      1  C1  <0> d          -0.016   1.360   0.009  0.00  0.00    -0.076 A 
ATOM      2  C2  <0> d           1.197   2.062   0.002  0.00  0.00    -0.056 A 
ATOM      3  C3  <0> d           2.369   1.385  -0.013  0.00  0.00     0.076 A 
ATOM      4  N1  <0> d           2.385   0.027  -0.021  0.00  0.00    -0.322 N 
ATOM      5  H1  <0> d           3.234  -0.442  -0.031  0.00  0.00     0.169 HD
ATOM      6  C4  <0> d           1.237  -0.675  -0.013  0.00  0.00     0.245 A 
ATOM      7  O1  <0> d           1.268  -1.895  -0.019  0.00  0.00    -0.268 OA
ATOM      8  C5  <0> d           0.002  -0.004   0.002  0.00  0.00    -0.017 A 
ATOM      9  H2  <0> d          -0.956   1.893   0.026  0.00  0.00     0.083 H 
ATOM     10  H3  <0> d           1.197   3.142   0.007  0.00  0.00     0.086 H 
ATOM     11  H4  <0> d          -0.922  -0.562   0.008  0.00  0.00     0.092 H 
ENDROOT
BRANCH   3  12
ATOM     12  C6  <0> d           3.670   2.146  -0.022  0.00  0.00     0.248 C 
ATOM     13  F1  <0> d           4.416   1.807   1.111  0.00  0.00    -0.208 F 
ATOM     14  F2  <0> d           4.394   1.818  -1.173  0.00  0.00    -0.208 F 
ATOM     15  H5  <0> d           3.464   3.217  -0.015  0.00  0.00     0.155 H 
ENDBRANCH   3  12
TORSDOF 1
