REMARK  1 active torsions:
REMARK  status: ('A' for Active; 'I' for Inactive)
REMARK    1  A    between atoms: C1_1  and  C2_2 
ROOT
ATOM      1  C2  <0> d           0.002  -0.004   0.002  0.00  0.00     0.105 C 
ATOM      2  H1  <0> d           0.521  -0.370  -0.884  0.00  0.00     0.096 H 
ATOM      3  C3  <0> d          -1.416  -0.552   0.049  0.00  0.00     0.197 C 
ATOM      4  C4  <0> d          -1.250  -1.830   0.859  0.00  0.00     0.214 C 
ATOM      5  C5  <0> d           0.106  -1.692   1.518  0.00  0.00     0.299 C 
ATOM      6  O1  <0> d           0.630  -2.520   2.224  0.00  0.00    -0.262 OA
ATOM      7  O2  <0> d           0.634  -0.501   1.190  0.00  0.00    -0.306 OA
ATOM      8  O3  <0> d          -2.277  -1.930   1.848  0.00  0.00    -0.216 OA
ATOM      9  O4  <0> d          -2.421  -0.090  -0.435  0.00  0.00    -0.292 OA
ATOM     10  H5  <0> d          -1.267  -2.700   0.203  0.00  0.00     0.116 H 
ENDROOT
BRANCH   1  11
ATOM     11  C1  <0> d          -0.019   1.526   0.010  0.00  0.00    -0.045 C 
ATOM     12  H2  <0> d           1.004   1.903   0.003  0.00  0.00     0.031 H 
ATOM     13  H3  <0> d          -0.546   1.887  -0.873  0.00  0.00     0.031 H 
ATOM     14  H4  <0> d          -0.529   1.877   0.907  0.00  0.00     0.031 H 
ENDBRANCH   1  11
TORSDOF 1
