REMARK  1 active torsions:
REMARK  status: ('A' for Active; 'I' for Inactive)
REMARK    1  A    between atoms: C1_1  and  C2_2 
ROOT
ATOM      1  C2  <0> d          -0.013   1.086   0.008  0.00  0.00     0.044 C 
ATOM      2  H1  <0> d           0.002  -0.004   0.002  0.00  0.00     0.083 H 
ATOM      3  C3  <0> d          -0.732   1.581   1.266  0.00  0.00    -0.040 C 
ATOM      4  C4  <0> d          -2.183   1.090   1.248  0.00  0.00    -0.054 C 
ATOM      5  C5  <0> d          -2.880   1.643  -0.002  0.00  0.00     0.016 C 
ATOM      6  C6  <0> d          -2.040   1.293  -1.211  0.00  0.00     0.259 C 
ATOM      7  O1  <0> d          -2.538   0.782  -2.186  0.00  0.00    -0.265 OA
ATOM      8  O2  <0> d          -0.719   1.569  -1.169  0.00  0.00    -0.316 OA
ATOM      9  H5  <0> d          -0.227   1.191   2.150  0.00  0.00     0.036 H 
ATOM     10  H6  <0> d          -0.717   2.671   1.288  0.00  0.00     0.036 H 
ATOM     11  H7  <0> d          -2.199   0.001   1.223  0.00  0.00     0.033 H 
ATOM     12  H8  <0> d          -2.699   1.444   2.140  0.00  0.00     0.033 H 
ATOM     13  H9  <0> d          -3.869   1.194  -0.099  0.00  0.00     0.048 H 
ATOM     14  H10 <0> d          -2.974   2.725   0.079  0.00  0.00     0.048 H 
ENDROOT
BRANCH   1  15
ATOM     15  C1  <0> d           1.422   1.617  -0.003  0.00  0.00    -0.052 C 
ATOM     16  H2  <0> d           1.950   1.256   0.880  0.00  0.00     0.030 H 
ATOM     17  H3  <0> d           1.933   1.266  -0.900  0.00  0.00     0.030 H 
ATOM     18  H4  <0> d           1.407   2.707   0.003  0.00  0.00     0.030 H 
ENDBRANCH   1  15
TORSDOF 1
