REMARK  1 active torsions:
REMARK  status: ('A' for Active; 'I' for Inactive)
REMARK    1  A    between atoms: C3_6  and  C4_7 
ROOT
ATOM      1  C4  <0> d           1.127   1.995   0.002  0.00  0.00     0.104 A 
ATOM      2  C5  <0> d           2.341   1.307  -0.013  0.00  0.00     0.032 A 
ATOM      3  N3  <0> d           2.348  -0.013  -0.020  0.00  0.00    -0.269 NA
ATOM      4  C6  <0> d           1.208  -0.682  -0.013  0.00  0.00     0.019 A 
ATOM      5  C7  <0> d           0.002  -0.004   0.002  0.00  0.00     0.020 A 
ATOM      6  N4  <0> d          -0.016   1.316   0.009  0.00  0.00    -0.256 NA
ATOM      7  H4  <0> d           3.273   1.853  -0.019  0.00  0.00     0.118 H 
ATOM      8  H5  <0> d           1.218  -1.762  -0.019  0.00  0.00     0.117 H 
ATOM      9  H6  <0> d          -0.926  -0.556   0.008  0.00  0.00     0.117 H 
ENDROOT
BRANCH   1  10
ATOM     10  C3  <0> d           1.113   3.478   0.010  0.00  0.00     0.108 A 
ATOM     11  C1  <0> d          -0.035   4.295   0.025  0.00  0.00    -0.035 A 
ATOM     12  C2  <0> d           0.374   5.583   0.028  0.00  0.00    -0.002 A 
ATOM     13  H2  <0> d          -1.059   3.954   0.032  0.00  0.00     0.089 H 
ATOM     14  N1  <0> d           1.725   5.591   0.016  0.00  0.00    -0.289 N 
ATOM     15  H3  <0> d          -0.266   6.452   0.038  0.00  0.00     0.113 H 
ATOM     16  H1  <0> d           2.306   6.405   0.012  0.00  0.00     0.188 HD
ATOM     17  N2  <0> d           2.170   4.263   0.009  0.00  0.00    -0.173 NA
ENDBRANCH   1  10
TORSDOF 1
