REMARK  2 active torsions:
REMARK  status: ('A' for Active; 'I' for Inactive)
REMARK    1  A    between atoms: N1_3  and  C3_6 
REMARK    2  A    between atoms: C3_6  and  C4_7 
ROOT
ATOM      1  C1  <0> d          -1.714   1.622   3.123  0.00  0.00     0.042 A 
ATOM      2  C2  <0> d          -1.151   0.781   2.224  0.00  0.00     0.019 A 
ATOM      3  N1  <0> d          -0.698   1.558   1.213  0.00  0.00    -0.251 N 
ATOM      4  N2  <0> d          -0.969   2.785   1.496  0.00  0.00    -0.066 NA
ATOM      5  N3  <0> d          -1.579   2.856   2.626  0.00  0.00    -0.143 NA
ATOM      6  H1  <0> d          -2.180   1.349   4.059  0.00  0.00     0.119 H 
ATOM      7  H2  <0> d          -1.078  -0.294   2.298  0.00  0.00     0.116 H 
ENDROOT
BRANCH   3   8
ATOM      8  C3  <0> d          -0.013   1.086   0.008  0.00  0.00     0.097 C 
ATOM      9  H3  <0> d           1.019   1.466   0.000  0.00  0.00     0.084 H 
ATOM     10  H4  <0> d           0.002  -0.014   0.002  0.00  0.00     0.084 H 
BRANCH   8  11
ATOM     11  C4  <0> d          -0.742   1.585  -1.213  0.00  0.00     0.193 C 
ATOM     12  O1  <0> d          -1.732   2.266  -1.089  0.00  0.00    -0.647 OA
ATOM     13  O2  <0> d          -0.290   1.274  -2.438  0.00  0.00    -0.647 OA
ENDBRANCH   8  11
ENDBRANCH   3   8
TORSDOF 2
