REMARK  3 active torsions:
REMARK  status: ('A' for Active; 'I' for Inactive)
REMARK    1  A    between atoms: C1_1  and  C2_2 
REMARK    2  A    between atoms: C3_5  and  C4_7 
REMARK    3  A    between atoms: C4_7  and  C5_8 
ROOT
ATOM      1  C2  <0> d          -0.600  -4.268  -0.641  0.00  0.00     0.165 A 
ATOM      2  N1  <0> d          -0.598  -4.220   0.661  0.00  0.00    -0.127 NA
ATOM      3  N2  <0> d          -0.831  -3.013   1.044  0.00  0.00    -0.126 NA
ATOM      4  C3  <0> d          -0.997  -2.253  -0.001  0.00  0.00     0.179 A 
ATOM      5  O1  <0> d          -0.852  -3.027  -1.089  0.00  0.00    -0.278 OA
ENDROOT
BRANCH   4   6
ATOM      6  C4  <0> d          -1.293  -0.775   0.010  0.00  0.00     0.078 C 
ATOM      7  H4  <0> d          -1.881  -0.513  -0.881  0.00  0.00     0.061 H 
ATOM      8  H5  <0> d          -1.864  -0.522   0.915  0.00  0.00     0.061 H 
BRANCH   6   9
ATOM      9  C5  <0> d           0.002  -0.004   0.002  0.00  0.00     0.180 C 
ATOM     10  O2  <0> d           1.056  -0.594  -0.011  0.00  0.00    -0.648 OA
ATOM     11  O3  <0> d          -0.016   1.338   0.009  0.00  0.00    -0.648 OA
ENDBRANCH   6   9
ENDBRANCH   4   6
BRANCH   1  12
ATOM     12  C1  <0> d          -0.362  -5.491  -1.488  0.00  0.00    -0.013 C 
ATOM     13  H1  <0> d          -0.183  -6.359  -0.836  0.00  0.00     0.038 H 
ATOM     14  H2  <0> d           0.516  -5.328  -2.130  0.00  0.00     0.038 H 
ATOM     15  H3  <0> d          -1.246  -5.680  -2.115  0.00  0.00     0.038 H 
ENDBRANCH   1  12
TORSDOF 3
