REMARK  1 active torsions:
REMARK  status: ('A' for Active; 'I' for Inactive)
REMARK    1  A    between atoms: C5_5  and  C7_7 
ROOT
ATOM      1  C1  <0> d          -0.017   1.374   0.010  0.00  0.00    -0.082 A 
ATOM      2  C2  <0> d           1.170   2.087   0.002  0.00  0.00    -0.081 A 
ATOM      3  C3  <0> d           2.384   1.423  -0.013  0.00  0.00    -0.061 A 
ATOM      4  C4  <0> d           2.419   0.043  -0.021  0.00  0.00     0.051 A 
ATOM      5  C5  <0> d           1.224  -0.683  -0.013  0.00  0.00     0.062 A 
ATOM      6  C6  <0> d           0.002  -0.004   0.002  0.00  0.00    -0.065 A 
ATOM      7 Cl1  <0> d           3.943  -0.789  -0.042  0.00  0.00    -0.083 Cl
ATOM      8  H1  <0> d          -0.960   1.900   0.026  0.00  0.00     0.083 H 
ATOM      9  H2  <0> d           1.149   3.167   0.008  0.00  0.00     0.083 H 
ATOM     10  H3  <0> d           3.305   1.986  -0.020  0.00  0.00     0.086 H 
ATOM     11  H4  <0> d          -0.925  -0.558   0.008  0.00  0.00     0.085 H 
ENDROOT
BRANCH   5  12
ATOM     12  C7  <0> d           1.252  -2.157  -0.022  0.00  0.00     0.211 C 
ATOM     13  O1  <0> d           0.205  -2.789  -0.015  0.00  0.00    -0.644 OA
ATOM     14  O2  <0> d           2.322  -2.748  -0.036  0.00  0.00    -0.644 OA
ENDBRANCH   5  12
TORSDOF 1
