REMARK  2 active torsions:
REMARK  status: ('A' for Active; 'I' for Inactive)
REMARK    1  A    between atoms: C1_1  and  C2_2 
REMARK    2  A    between atoms: C9_10  and  N3_12 
ROOT
ATOM      1  C2  <0> d           0.002  -0.004   0.002  0.00  0.00     0.062 A 
ATOM      2  C3  <0> d           0.006  -0.717  -1.211  0.00  0.00     0.018 A 
ATOM      3  C4  <0> d          -0.008  -0.070  -2.455  0.00  0.00    -0.069 A 
ATOM      4  C5  <0> d          -0.003  -0.811  -3.598  0.00  0.00    -0.082 A 
ATOM      5  C6  <0> d           0.016  -2.203  -3.549  0.00  0.00    -0.081 A 
ATOM      6  C7  <0> d           0.030  -2.865  -2.358  0.00  0.00    -0.054 A 
ATOM      7  C8  <0> d           0.026  -2.135  -1.160  0.00  0.00     0.088 A 
ATOM      8  N1  <0> d           0.040  -2.736   0.036  0.00  0.00    -0.063 NA
ATOM      9  C9  <0> d           0.035  -2.015   1.141  0.00  0.00     0.721 A 
ATOM     10  N2  <0> d           0.022  -0.683   1.129  0.00  0.00    -0.067 NA
ATOM     11  H4  <0> d          -0.024   1.009  -2.507  0.00  0.00     0.085 H 
ATOM     12  H5  <0> d          -0.014  -0.313  -4.556  0.00  0.00     0.083 H 
ATOM     13  H6  <0> d           0.019  -2.768  -4.470  0.00  0.00     0.083 H 
ATOM     14  H7  <0> d           0.045  -3.944  -2.336  0.00  0.00     0.087 H 
ENDROOT
BRANCH   1  15
ATOM     15  C1  <0> d          -0.018   1.503   0.010  0.00  0.00    -0.034 C 
ATOM     16  H1  <0> d           1.004   1.880   0.003  0.00  0.00     0.035 H 
ATOM     17  H2  <0> d          -0.545   1.864  -0.873  0.00  0.00     0.035 H 
ATOM     18  H3  <0> d          -0.529   1.854   0.907  0.00  0.00     0.035 H 
ENDBRANCH   1  15
BRANCH   9  19
ATOM     19  N3  <0> d           0.050  -2.669   2.360  0.00  0.00    -0.231 N 
ATOM     20  H8  <0> d           0.063  -3.638   2.390  0.00  0.00     0.174 HD
ATOM     21  H9  <0> d           0.047  -2.157   3.184  0.00  0.00     0.174 HD
ENDBRANCH   9  19
TORSDOF 2
