REMARK  4 active torsions:
REMARK  status: ('A' for Active; 'I' for Inactive)
REMARK    1  A    between atoms: C1_1  and  C2_2 
REMARK    2  A    between atoms: C4_5  and  O1_12 
REMARK    3  A    between atoms: C6_8  and  C8_10 
REMARK    4  A    between atoms: C6_8  and  C9_11 
ROOT
ATOM      1  C2  <0> d           0.247   0.009  -1.846  0.00  0.00    -0.055 C 
ATOM      2  H1  <0> d           0.232   1.099  -1.840  0.00  0.00     0.039 H 
ATOM      3  C3  <0> d           0.612  -0.503  -0.452  0.00  0.00    -0.038 C 
ATOM      4  C4  <0> d          -0.426  -0.013   0.560  0.00  0.00     0.036 C 
ATOM      5  H2  <0> d          -0.167  -0.378   1.553  0.00  0.00     0.083 H 
ATOM      6  C5  <0> d          -1.808  -0.540   0.168  0.00  0.00    -0.035 C 
ATOM      7  C6  <0> d          -2.173  -0.027  -1.227  0.00  0.00    -0.045 C 
ATOM      8  C7  <0> d          -1.135  -0.517  -2.238  0.00  0.00    -0.056 C 
ATOM      9  H6  <0> d           1.596  -0.128  -0.173  0.00  0.00     0.037 H 
ATOM     10  H7  <0> d           0.626  -1.593  -0.458  0.00  0.00     0.037 H 
ATOM     11  H8  <0> d          -1.794  -1.629   0.162  0.00  0.00     0.037 H 
ATOM     12  H9  <0> d          -2.548  -0.190   0.888  0.00  0.00     0.037 H 
ATOM     13  H10 <0> d          -1.395  -0.152  -3.232  0.00  0.00     0.034 H 
ATOM     14  H11 <0> d          -1.121  -1.607  -2.244  0.00  0.00     0.034 H 
ENDROOT
BRANCH   7  15
ATOM     15  C8  <0> d          -2.194   1.503  -1.218  0.00  0.00    -0.069 C 
ATOM     16  H12 <0> d          -2.642   1.865  -2.143  0.00  0.00     0.028 H 
ATOM     17  H13 <0> d          -2.780   1.854  -0.369  0.00  0.00     0.028 H 
ATOM     18  H14 <0> d          -1.175   1.880  -1.136  0.00  0.00     0.028 H 
ENDBRANCH   7  15
BRANCH   7  19
ATOM     19  C9  <0> d          -3.555  -0.553  -1.618  0.00  0.00    -0.069 C 
ATOM     20  H15 <0> d          -3.541  -1.643  -1.624  0.00  0.00     0.028 H 
ATOM     21  H16 <0> d          -4.295  -0.204  -0.898  0.00  0.00     0.028 H 
ATOM     22  H17 <0> d          -3.815  -0.188  -2.612  0.00  0.00     0.028 H 
ENDBRANCH   7  19
BRANCH   4  23
ATOM     23  O1  <0> d          -0.446   1.416   0.567  0.00  0.00    -0.396 OA
ATOM     24  H18 <0> d           0.400   1.819   0.808  0.00  0.00     0.210 HD
ENDBRANCH   4  23
BRANCH   1  25
ATOM     25  C1  <0> d           1.285  -0.481  -2.858  0.00  0.00    -0.073 C 
ATOM     26  H3  <0> d           1.300  -1.571  -2.864  0.00  0.00     0.028 H 
ATOM     27  H4  <0> d           1.025  -0.116  -3.851  0.00  0.00     0.028 H 
ATOM     28  H5  <0> d           2.269  -0.106  -2.579  0.00  0.00     0.028 H 
ENDBRANCH   1  25
TORSDOF 4
