REMARK  5 active torsions:
REMARK  status: ('A' for Active; 'I' for Inactive)
REMARK    1  A    between atoms: C1_1  and  C2_2 
REMARK    2  A    between atoms: C2_2  and  C3_4 
REMARK    3  A    between atoms: C2_2  and  C6_8 
REMARK    4  A    between atoms: C3_4  and  C4_5 
REMARK    5  A    between atoms: C6_8  and  C7_10 
ROOT
ATOM      1  C4  <0> d          -0.753   1.593  -1.232  0.00  0.00     0.015 C 
ATOM      2  C5  <0> d          -0.064   1.118  -2.443  0.00  0.00     0.059 C 
ATOM      3  N1  <0> d           0.468   0.752  -3.377  0.00  0.00    -0.197 NA
ATOM      4  H7  <0> d          -1.785   1.212  -1.224  0.00  0.00     0.054 H 
ATOM      5  H8  <0> d          -0.768   2.693  -1.225  0.00  0.00     0.054 H 
ENDROOT
BRANCH   1   6
ATOM      6  C3  <0> d          -0.013   1.086   0.008  0.00  0.00    -0.044 C 
ATOM      7  H5  <0> d           1.019   1.466   0.000  0.00  0.00     0.035 H 
ATOM      8  H6  <0> d           0.002  -0.014   0.002  0.00  0.00     0.035 H 
BRANCH   6   9
ATOM      9  C2  <0> d          -0.729   1.579   1.267  0.00  0.00     0.001 C 
ATOM     10  H1  <0> d          -0.815   2.676   1.243  0.00  0.00     0.051 H 
BRANCH   9  11
ATOM     11  C1  <0> d          -2.121   0.950   1.341  0.00  0.00    -0.066 C 
ATOM     12  H2  <0> d          -2.636   1.305   2.246  0.00  0.00     0.028 H 
ATOM     13  H3  <0> d          -2.027  -0.145   1.379  0.00  0.00     0.028 H 
ATOM     14  H4  <0> d          -2.702   1.238   0.452  0.00  0.00     0.028 H 
ENDBRANCH   9  11
BRANCH   9  15
ATOM     15  C6  <0> d           0.067   1.185   2.485  0.00  0.00     0.126 C 
ATOM     16  O1  <0> d           0.809   0.234   2.438  0.00  0.00    -0.298 OA
BRANCH  15  17
ATOM     17  C7  <0> d          -0.065   1.977   3.760  0.00  0.00    -0.021 C 
ATOM     18  H9  <0> d           0.587   1.541   4.531  0.00  0.00     0.037 H 
ATOM     19  H10 <0> d          -1.110   1.947   4.104  0.00  0.00     0.037 H 
ATOM     20  H11 <0> d           0.231   3.020   3.576  0.00  0.00     0.037 H 
ENDBRANCH  15  17
ENDBRANCH   9  15
ENDBRANCH   6   9
ENDBRANCH   1   6
TORSDOF 5
