REMARK  3 active torsions:
REMARK  status: ('A' for Active; 'I' for Inactive)
REMARK    1  A    between atoms: C1_1  and  C2_2 
REMARK       I    between atoms: C2_2  and  N1_4 
REMARK    2  A    between atoms: N1_4  and  C3_5 
REMARK    3  A    between atoms: C3_5  and  C7_9 
ROOT
ATOM      1  C3  <0> d           0.020  -2.136  -1.177  0.00  0.00     0.029 C 
ATOM      2  C4  <0> d          -1.367  -2.772  -0.983  0.00  0.00    -0.042 C 
ATOM      3  C5  <0> d          -1.521  -2.713  -2.512  0.00  0.00    -0.061 C 
ATOM      4  C6  <0> d           0.015  -2.745  -2.589  0.00  0.00    -0.042 C 
ATOM      5  H5  <0> d          -1.330  -3.787  -0.587  0.00  0.00     0.036 H 
ATOM      6  H6  <0> d          -2.069  -2.133  -0.448  0.00  0.00     0.036 H 
ATOM      7  H7  <0> d          -1.998  -3.596  -2.938  0.00  0.00     0.033 H 
ATOM      8  H8  <0> d          -1.957  -1.781  -2.871  0.00  0.00     0.033 H 
ATOM      9  H9  <0> d           0.428  -2.083  -3.351  0.00  0.00     0.036 H 
ATOM     10  H10 <0> d           0.429  -3.752  -2.632  0.00  0.00     0.036 H 
ENDROOT
BRANCH   1  11
ATOM     11  N1  <0> d           0.000  -0.672  -1.169  0.00  0.00    -0.353 N 
ATOM     12  C2  <0> d           0.002  -0.004   0.002  0.00  0.00     0.214 C 
ATOM     13  O1  <0> d           0.020  -0.616   1.049  0.00  0.00    -0.274 OA
ATOM     14  H4  <0> d          -0.015  -0.182  -2.006  0.00  0.00     0.163 HD
BRANCH  12  15
ATOM     15  C1  <0> d          -0.018   1.503   0.010  0.00  0.00    -0.003 C 
ATOM     16  H1  <0> d           1.004   1.880   0.003  0.00  0.00     0.040 H 
ATOM     17  H2  <0> d          -0.545   1.864  -0.873  0.00  0.00     0.040 H 
ATOM     18  H3  <0> d          -0.529   1.854   0.907  0.00  0.00     0.040 H 
ENDBRANCH  12  15
ENDBRANCH   1  11
BRANCH   1  19
ATOM     19  C7  <0> d           1.098  -2.721  -0.262  0.00  0.00    -0.053 C 
ATOM     20  H11 <0> d           1.023  -2.264   0.725  0.00  0.00     0.030 H 
ATOM     21  H12 <0> d           0.955  -3.798  -0.175  0.00  0.00     0.030 H 
ATOM     22  H13 <0> d           2.082  -2.517  -0.683  0.00  0.00     0.030 H 
ENDBRANCH   1  19
TORSDOF 3
