REMARK  6 active torsions:
REMARK  status: ('A' for Active; 'I' for Inactive)
REMARK    1  A    between atoms: C1_1  and  C2_2 
REMARK    2  A    between atoms: C2_2  and  C3_3 
REMARK       I    between atoms: C3_3  and  N1_5 
REMARK    3  A    between atoms: N1_5  and  C4_6 
REMARK    4  A    between atoms: C4_6  and  C5_7 
REMARK    5  A    between atoms: C5_7  and  C6_8 
REMARK    6  A    between atoms: C5_7  and  C7_9 
ROOT
ATOM      1  C4  <0> d           2.422   1.183  -0.015  0.00  0.00    -0.002 C 
ATOM      2  H7  <0> d           2.497   0.553   0.871  0.00  0.00     0.064 H 
ATOM      3  H8  <0> d           2.480   0.562  -0.909  0.00  0.00     0.064 H 
ENDROOT
BRANCH   1   4
ATOM      4  N1  <0> d           1.143   1.898   0.001  0.00  0.00    -0.361 N 
ATOM      5  C3  <0> d          -0.014   1.209   0.009  0.00  0.00     0.217 C 
ATOM      6  O1  <0> d           0.002  -0.004   0.002  0.00  0.00    -0.274 OA
ATOM      7  H6  <0> d           1.130   2.868   0.007  0.00  0.00     0.162 HD
BRANCH   5   8
ATOM      8  C2  <0> d          -1.330   1.944   0.019  0.00  0.00     0.006 C 
ATOM      9  H4  <0> d          -1.392   2.565   0.913  0.00  0.00     0.046 H 
ATOM     10  H5  <0> d          -1.400   2.575  -0.867  0.00  0.00     0.046 H 
BRANCH   8  11
ATOM     11  C1  <0> d          -2.479   0.934   0.019  0.00  0.00    -0.068 C 
ATOM     12  H1  <0> d          -2.417   0.313  -0.875  0.00  0.00     0.028 H 
ATOM     13  H2  <0> d          -2.408   0.304   0.905  0.00  0.00     0.028 H 
ATOM     14  H3  <0> d          -3.430   1.466   0.026  0.00  0.00     0.028 H 
ENDBRANCH   8  11
ENDBRANCH   5   8
ENDBRANCH   1   4
BRANCH   1  15
ATOM     15  C5  <0> d           3.571   2.193  -0.020  0.00  0.00    -0.046 C 
ATOM     16  H9  <0> d           3.447   2.880  -0.857  0.00  0.00     0.041 H 
BRANCH  15  17
ATOM     17  C6  <0> d           3.564   2.981   1.292  0.00  0.00    -0.072 C 
ATOM     18  H10 <0> d           4.383   3.700   1.288  0.00  0.00     0.028 H 
ATOM     19  H11 <0> d           2.617   3.509   1.393  0.00  0.00     0.028 H 
ATOM     20  H12 <0> d           3.689   2.294   2.128  0.00  0.00     0.028 H 
ENDBRANCH  15  17
BRANCH  15  21
ATOM     21  C7  <0> d           4.902   1.451  -0.163  0.00  0.00    -0.072 C 
ATOM     22  H13 <0> d           4.907   0.890  -1.097  0.00  0.00     0.028 H 
ATOM     23  H14 <0> d           5.720   2.171  -0.167  0.00  0.00     0.028 H 
ATOM     24  H15 <0> d           5.026   0.764   0.674  0.00  0.00     0.028 H 
ENDBRANCH  15  21
ENDBRANCH   1  15
TORSDOF 6
