REMARK  0 active torsions:
REMARK  status: ('A' for Active; 'I' for Inactive)
ROOT
ATOM      1  C1  <0> d          -0.022   1.781   0.012  0.00  0.00    -0.005 A 
ATOM      2  C2  <0> d           1.309   2.050   0.001  0.00  0.00     0.132 A 
ATOM      3  N1  <0> d           2.127   1.016  -0.013  0.00  0.00    -0.241 NA
ATOM      4  C3  <0> d           1.672  -0.213  -0.015  0.00  0.00     0.041 A 
ATOM      5  S1  <0> d           0.002  -0.004   0.002  0.00  0.00    -0.091 SA
ATOM      6 Cl1  <0> d           1.907   3.680   0.003  0.00  0.00    -0.062 Cl
ATOM      7  H1  <0> d          -0.862   2.460   0.027  0.00  0.00     0.100 H 
ATOM      8  H2  <0> d           2.233  -1.136  -0.026  0.00  0.00     0.126 H 
ENDROOT
TORSDOF 0
