REMARK  8 active torsions:
REMARK  status: ('A' for Active; 'I' for Inactive)
REMARK    1  A    between atoms: C1_1  and  C2_2 
REMARK    2  A    between atoms: C2_2  and  C3_3 
REMARK    3  A    between atoms: C3_3  and  C4_4 
REMARK    4  A    between atoms: C4_4  and  C5_5 
REMARK    5  A    between atoms: C4_4  and  C7_7 
REMARK    6  A    between atoms: C4_4  and  O1_9 
REMARK    7  A    between atoms: C5_5  and  C6_6 
REMARK    8  A    between atoms: C7_7  and  C8_8 
ROOT
ATOM      1  C4  <0> d           1.287   1.543  -0.116  0.00  0.00     0.057 C 
ENDROOT
BRANCH   1   2
ATOM      2  C3  <0> d           2.248   1.290  -1.280  0.00  0.00    -0.037 C 
ATOM      3  H6  <0> d           3.208   1.759  -1.066  0.00  0.00     0.037 H 
ATOM      4  H7  <0> d           2.388   0.217  -1.408  0.00  0.00     0.037 H 
BRANCH   2   5
ATOM      5  C2  <0> d           1.663   1.886  -2.562  0.00  0.00    -0.066 C 
ATOM      6  H4  <0> d           0.702   1.417  -2.775  0.00  0.00     0.032 H 
ATOM      7  H5  <0> d           1.522   2.959  -2.433  0.00  0.00     0.032 H 
BRANCH   5   8
ATOM      8  C1  <0> d           2.623   1.633  -3.726  0.00  0.00    -0.076 C 
ATOM      9  H1  <0> d           3.584   2.102  -3.512  0.00  0.00     0.027 H 
ATOM     10  H2  <0> d           2.764   0.560  -3.854  0.00  0.00     0.027 H 
ATOM     11  H3  <0> d           2.207   2.057  -4.639  0.00  0.00     0.027 H 
ENDBRANCH   5   8
ENDBRANCH   2   5
ENDBRANCH   1   2
BRANCH   1  12
ATOM     12  C5  <0> d           0.992   3.041  -0.014  0.00  0.00    -0.040 C 
ATOM     13  H8  <0> d           0.498   3.377  -0.925  0.00  0.00     0.036 H 
ATOM     14  H9  <0> d           0.342   3.226   0.842  0.00  0.00     0.036 H 
BRANCH  12  15
ATOM     15  C6  <0> d           2.304   3.808   0.167  0.00  0.00    -0.074 C 
ATOM     16  H10 <0> d           2.813   3.450   1.062  0.00  0.00     0.027 H 
ATOM     17  H11 <0> d           2.941   3.648  -0.703  0.00  0.00     0.027 H 
ATOM     18  H12 <0> d           2.091   4.872   0.271  0.00  0.00     0.027 H 
ENDBRANCH  12  15
ENDBRANCH   1  12
BRANCH   1  19
ATOM     19  C7  <0> d           1.926   1.059   1.187  0.00  0.00    -0.040 C 
ATOM     20  H13 <0> d           2.110  -0.014   1.126  0.00  0.00     0.036 H 
ATOM     21  H14 <0> d           2.870   1.581   1.345  0.00  0.00     0.036 H 
BRANCH  19  22
ATOM     22  C8  <0> d           0.983   1.348   2.357  0.00  0.00    -0.074 C 
ATOM     23  H15 <0> d           0.883   2.426   2.485  0.00  0.00     0.027 H 
ATOM     24  H16 <0> d           0.004   0.915   2.149  0.00  0.00     0.027 H 
ATOM     25  H17 <0> d           1.388   0.909   3.268  0.00  0.00     0.027 H 
ENDBRANCH  19  22
ENDBRANCH   1  19
BRANCH   1  26
ATOM     26  O1  <0> d           0.068   0.832  -0.341  0.00  0.00    -0.390 OA
ATOM     27  H18 <0> d           0.180  -0.126  -0.416  0.00  0.00     0.210 HD
ENDBRANCH   1  26
TORSDOF 8
