REMARK  3 active torsions:
REMARK  status: ('A' for Active; 'I' for Inactive)
REMARK    1  A    between atoms: C1_1  and  C2_2 
REMARK    2  A    between atoms: C2_2  and  C3_3 
REMARK    3  A    between atoms: C6_6  and  C8_11 
ROOT
ATOM      1  C3  <0> d           1.155   1.781   0.001  0.00  0.00     0.010 A 
ATOM      2  C4  <0> d          -0.013   1.076   0.008  0.00  0.00    -0.070 A 
ATOM      3  C5  <0> d          -1.232   1.768   0.018  0.00  0.00    -0.061 A 
ATOM      4  C6  <0> d          -1.240   3.122   0.030  0.00  0.00     0.008 A 
ATOM      5  N1  <0> d          -0.077   3.822   0.023  0.00  0.00    -0.327 N 
ATOM      6  H1  <0> d          -0.102   4.792   0.029  0.00  0.00     0.169 HD
ATOM      7  C7  <0> d           1.110   3.186   0.009  0.00  0.00     0.251 A 
ATOM      8  O1  <0> d           2.147   3.830   0.002  0.00  0.00    -0.268 OA
ATOM      9  H7  <0> d           0.002  -0.004   0.002  0.00  0.00     0.084 H 
ATOM     10  H8  <0> d          -2.163   1.222   0.019  0.00  0.00     0.086 H 
ENDROOT
BRANCH   1  11
ATOM     11  C2  <0> d           2.479   1.062  -0.015  0.00  0.00    -0.039 C 
ATOM     12  H5  <0> d           3.205   1.625   0.570  0.00  0.00     0.039 H 
ATOM     13  H6  <0> d           2.358   0.068   0.415  0.00  0.00     0.039 H 
BRANCH  11  14
ATOM     14  C1  <0> d           2.974   0.936  -1.458  0.00  0.00    -0.072 C 
ATOM     15  H2  <0> d           2.247   0.373  -2.043  0.00  0.00     0.028 H 
ATOM     16  H3  <0> d           3.095   1.931  -1.888  0.00  0.00     0.028 H 
ATOM     17  H4  <0> d           3.932   0.416  -1.469  0.00  0.00     0.028 H 
ENDBRANCH  11  14
ENDBRANCH   1  11
BRANCH   4  18
ATOM     18  C8  <0> d          -2.554   3.859   0.046  0.00  0.00    -0.037 C 
ATOM     19  H9  <0> d          -2.881   4.042  -0.977  0.00  0.00     0.035 H 
ATOM     20  H10 <0> d          -3.302   3.257   0.564  0.00  0.00     0.035 H 
ATOM     21  H11 <0> d          -2.431   4.810   0.564  0.00  0.00     0.035 H 
ENDBRANCH   4  18
TORSDOF 3
