REMARK  2 active torsions:
REMARK  status: ('A' for Active; 'I' for Inactive)
REMARK    1  A    between atoms: C1_1  and  C2_2 
REMARK    2  A    between atoms: C4_5  and  C5_7 
ROOT
ATOM      1  C2  <0> d           0.002  -0.004   0.002  0.00  0.00     0.038 A 
ATOM      2  C3  <0> d           0.005  -0.679  -1.179  0.00  0.00    -0.019 A 
ATOM      3  S1  <0> d           0.031  -2.369  -0.594  0.00  0.00    -0.080 SA
ATOM      4  C4  <0> d           0.035  -1.994   1.154  0.00  0.00     0.097 A 
ATOM      5  N1  <0> d           0.022  -0.667   1.134  0.00  0.00    -0.246 NA
ATOM      6  H4  <0> d          -0.005  -0.299  -2.190  0.00  0.00     0.098 H 
ENDROOT
BRANCH   4   7
ATOM      7  C5  <0> d           0.053  -2.910   2.306  0.00  0.00    -0.057 C 
ATOM      8  C6  <0> d           0.071  -4.225   2.109  0.00  0.00    -0.119 C 
ATOM      9  H6  <0> d           0.084  -4.897   2.954  0.00  0.00     0.066 H 
ATOM     10  H7  <0> d           0.071  -4.620   1.104  0.00  0.00     0.066 H 
ATOM     11  H5  <0> d           0.053  -2.515   3.311  0.00  0.00     0.086 H 
ENDBRANCH   4   7
BRANCH   1  12
ATOM     12  C1  <0> d          -0.018   1.503   0.010  0.00  0.00    -0.035 C 
ATOM     13  H1  <0> d           1.004   1.880   0.003  0.00  0.00     0.035 H 
ATOM     14  H2  <0> d          -0.545   1.864  -0.873  0.00  0.00     0.035 H 
ATOM     15  H3  <0> d          -0.529   1.854   0.907  0.00  0.00     0.035 H 
ENDBRANCH   1  12
TORSDOF 2
