REMARK  6 active torsions:
REMARK  status: ('A' for Active; 'I' for Inactive)
REMARK    1  A    between atoms: C1_1  and  C2_2 
REMARK    2  A    between atoms: C2_2  and  C3_3 
REMARK    3  A    between atoms: C2_2  and  C4_4 
REMARK    4  A    between atoms: C4_4  and  C5_5 
REMARK    5  A    between atoms: C5_5  and  C6_6 
REMARK    6  A    between atoms: C6_6  and  C7_8 
ROOT
ATOM      1  C7  <0> d          -0.304   1.002   5.102  0.00  0.00     0.069 C 
ATOM      2  C8  <0> d          -1.150   1.612   6.141  0.00  0.00     0.066 C 
ATOM      3  N1  <0> d          -1.803   2.084   6.942  0.00  0.00    -0.197 NA
ATOM      4  H12 <0> d          -0.378  -0.094   5.167  0.00  0.00     0.066 H 
ATOM      5  H13 <0> d           0.741   1.308   5.254  0.00  0.00     0.066 H 
ENDROOT
BRANCH   1   6
ATOM      6  C6  <0> d          -0.769   1.457   3.743  0.00  0.00     0.139 C 
ATOM      7  O1  <0> d          -1.707   2.212   3.648  0.00  0.00    -0.297 OA
BRANCH   6   8
ATOM      8  C5  <0> d          -0.064   0.971   2.503  0.00  0.00    -0.008 C 
ATOM      9  H10 <0> d          -0.127  -0.126   2.452  0.00  0.00     0.044 H 
ATOM     10  H11 <0> d           0.992   1.276   2.539  0.00  0.00     0.044 H 
BRANCH   8  11
ATOM     11  C4  <0> d          -0.729   1.579   1.267  0.00  0.00    -0.056 C 
ATOM     12  H8  <0> d          -0.666   2.676   1.318  0.00  0.00     0.034 H 
ATOM     13  H9  <0> d          -1.785   1.274   1.231  0.00  0.00     0.034 H 
BRANCH  11  14
ATOM     14  C2  <0> d          -0.013   1.086   0.008  0.00  0.00    -0.061 C 
ATOM     15  H4  <0> d           0.002  -0.014   0.002  0.00  0.00     0.038 H 
BRANCH  14  16
ATOM     16  C1  <0> d           1.423   1.615  -0.003  0.00  0.00    -0.073 C 
ATOM     17  H1  <0> d           1.955   1.251   0.888  0.00  0.00     0.028 H 
ATOM     18  H2  <0> d           1.408   2.715   0.003  0.00  0.00     0.028 H 
ATOM     19  H3  <0> d           1.938   1.261  -0.908  0.00  0.00     0.028 H 
ENDBRANCH  14  16
BRANCH  14  20
ATOM     20  C3  <0> d          -0.753   1.593  -1.232  0.00  0.00    -0.073 C 
ATOM     21  H5  <0> d          -1.785   1.212  -1.224  0.00  0.00     0.028 H 
ATOM     22  H6  <0> d          -0.238   1.238  -2.136  0.00  0.00     0.028 H 
ATOM     23  H7  <0> d          -0.768   2.693  -1.225  0.00  0.00     0.028 H 
ENDBRANCH  14  20
ENDBRANCH  11  14
ENDBRANCH   8  11
ENDBRANCH   6   8
ENDBRANCH   1   6
TORSDOF 6
