REMARK  4 active torsions:
REMARK  status: ('A' for Active; 'I' for Inactive)
REMARK    1  A    between atoms: C1_1  and  C2_2 
REMARK    2  A    between atoms: C2_2  and  C3_3 
REMARK    3  A    between atoms: C4_4  and  C9_12 
REMARK    4  A    between atoms: C6_6  and  C7_9 
ROOT
ATOM      1  C3  <0> d          -1.412  -0.526   0.013  0.00  0.00     0.016 A 
ATOM      2  C4  <0> d          -2.187  -0.706  -1.071  0.00  0.00    -0.017 A 
ATOM      3  C5  <0> d          -3.468  -1.226  -0.581  0.00  0.00     0.074 A 
ATOM      4  C6  <0> d          -3.348  -1.314   0.778  0.00  0.00     0.027 A 
ATOM      5  N1  <0> d          -2.112  -0.897   1.123  0.00  0.00    -0.361 N 
ATOM      6  H1  <0> d          -1.771  -0.865   2.030  0.00  0.00     0.165 HD
ATOM      7  C8  <0> d          -4.614  -1.572  -1.367  0.00  0.00     0.102 C 
ATOM      8  N2  <0> d          -5.523  -1.846  -1.991  0.00  0.00    -0.191 NA
ENDROOT
BRANCH   2   9
ATOM      9  C9  <0> d          -1.815  -0.429  -2.505  0.00  0.00    -0.048 C 
ATOM     10  H10 <0> d          -1.370  -1.322  -2.944  0.00  0.00     0.033 H 
ATOM     11  H11 <0> d          -2.708  -0.154  -3.066  0.00  0.00     0.033 H 
ATOM     12  H12 <0> d          -1.096   0.390  -2.542  0.00  0.00     0.033 H 
ENDBRANCH   2   9
BRANCH   4  13
ATOM     13  C7  <0> d          -4.412  -1.798   1.728  0.00  0.00    -0.036 C 
ATOM     14  H7  <0> d          -4.316  -2.875   1.864  0.00  0.00     0.035 H 
ATOM     15  H8  <0> d          -4.295  -1.298   2.690  0.00  0.00     0.035 H 
ATOM     16  H9  <0> d          -5.396  -1.570   1.318  0.00  0.00     0.035 H 
ENDBRANCH   4  13
BRANCH   1  17
ATOM     17  C2  <0> d           0.002  -0.004   0.002  0.00  0.00    -0.029 C 
ATOM     18  H5  <0> d           0.512  -0.356  -0.895  0.00  0.00     0.041 H 
ATOM     19  H6  <0> d           0.529  -0.365   0.885  0.00  0.00     0.041 H 
BRANCH  17  20
ATOM     20  C1  <0> d          -0.019   1.526   0.010  0.00  0.00    -0.071 C 
ATOM     21  H2  <0> d           1.004   1.903   0.003  0.00  0.00     0.028 H 
ATOM     22  H3  <0> d          -0.546   1.887  -0.873  0.00  0.00     0.028 H 
ATOM     23  H4  <0> d          -0.529   1.877   0.907  0.00  0.00     0.028 H 
ENDBRANCH  17  20
ENDBRANCH   1  17
TORSDOF 4
