REMARK  3 active torsions:
REMARK  status: ('A' for Active; 'I' for Inactive)
REMARK    1  A    between atoms: C1_1  and  C2_2 
REMARK    2  A    between atoms: C4_4  and  C8_9 
REMARK    3  A    between atoms: C6_6  and  C7_8 
ROOT
ATOM      1  C8  <0> d           0.029  -2.818  -2.421  0.00  0.00    -0.078 C 
ATOM      2  C9  <0> d           0.032  -3.426  -3.426  0.00  0.00    -0.149 C 
ATOM      3  H9  <0> d           0.035  -3.969  -4.324  0.00  0.00     0.166 H 
ENDROOT
BRANCH   1   4
ATOM      4  C4  <0> d           0.025  -2.077  -1.196  0.00  0.00     0.020 A 
ATOM      5  C3  <0> d           0.006  -0.678  -1.202  0.00  0.00    -0.041 A 
ATOM      6  C2  <0> d           0.002  -0.004   0.002  0.00  0.00     0.032 A 
ATOM      7  H4  <0> d          -0.007  -0.134  -2.134  0.00  0.00     0.088 H 
ATOM      8  N1  <0> d           0.022  -0.661   1.146  0.00  0.00    -0.259 NA
ATOM      9  C6  <0> d           0.035  -1.979   1.197  0.00  0.00     0.032 A 
ATOM     10  C5  <0> d           0.040  -2.732   0.041  0.00  0.00    -0.041 A 
ATOM     11  H5  <0> d           0.055  -3.811   0.090  0.00  0.00     0.088 H 
BRANCH   6  12
ATOM     12  C1  <0> d          -0.018   1.503   0.010  0.00  0.00    -0.035 C 
ATOM     13  H1  <0> d           1.004   1.880   0.003  0.00  0.00     0.035 H 
ATOM     14  H2  <0> d          -0.545   1.864  -0.873  0.00  0.00     0.035 H 
ATOM     15  H3  <0> d          -0.529   1.854   0.907  0.00  0.00     0.035 H 
ENDBRANCH   6  12
BRANCH   9  16
ATOM     16  C7  <0> d           0.051  -2.672   2.535  0.00  0.00    -0.035 C 
ATOM     17  H6  <0> d           1.082  -2.825   2.853  0.00  0.00     0.035 H 
ATOM     18  H7  <0> d          -0.468  -2.055   3.269  0.00  0.00     0.035 H 
ATOM     19  H8  <0> d          -0.450  -3.636   2.451  0.00  0.00     0.035 H 
ENDBRANCH   9  16
ENDBRANCH   1   4
TORSDOF 3
