REMARK  5 active torsions:
REMARK  status: ('A' for Active; 'I' for Inactive)
REMARK    1  A    between atoms: C1_1  and  O1_2 
REMARK    2  A    between atoms: O1_2  and  C2_3 
REMARK    3  A    between atoms: C2_3  and  C3_5 
REMARK    4  A    between atoms: C3_5  and  C4_6 
REMARK    5  A    between atoms: C4_6  and  C5_7 
ROOT
ATOM      1  C3  <0> d          -2.182   1.345  -1.162  0.00  0.00     0.019 C 
ATOM      2  H4  <0> d          -1.658   1.552  -2.095  0.00  0.00     0.048 H 
ATOM      3  H5  <0> d          -2.365   0.274  -1.077  0.00  0.00     0.048 H 
ENDROOT
BRANCH   1   4
ATOM      4  C2  <0> d          -3.498   2.080  -1.152  0.00  0.00     0.258 C 
ATOM      5  O2  <0> d          -3.728   2.894  -0.289  0.00  0.00    -0.265 OA
BRANCH   4   6
ATOM      6  O1  <0> d          -4.413   1.831  -2.101  0.00  0.00    -0.326 OA
BRANCH   6   7
ATOM      7  C1  <0> d          -5.657   2.577  -2.029  0.00  0.00     0.013 C 
ATOM      8  H1  <0> d          -6.307   2.281  -2.852  0.00  0.00     0.067 H 
ATOM      9  H2  <0> d          -6.153   2.366  -1.081  0.00  0.00     0.067 H 
ATOM     10  H3  <0> d          -5.446   3.644  -2.099  0.00  0.00     0.067 H 
ENDBRANCH   6   7
ENDBRANCH   4   6
ENDBRANCH   1   4
BRANCH   1  11
ATOM     11  C4  <0> d          -1.328   1.812   0.018  0.00  0.00    -0.042 C 
ATOM     12  H6  <0> d          -1.853   1.605   0.951  0.00  0.00     0.039 H 
ATOM     13  H7  <0> d          -1.145   2.883  -0.066  0.00  0.00     0.039 H 
BRANCH  11  14
ATOM     14  C5  <0> d          -0.013   1.076   0.008  0.00  0.00    -0.112 C 
ATOM     15  C6  <0> d           1.113   1.746   0.001  0.00  0.00    -0.125 C 
ATOM     16  H9  <0> d           1.098   2.826   0.007  0.00  0.00     0.066 H 
ATOM     17  H10 <0> d           2.055   1.219  -0.011  0.00  0.00     0.066 H 
ATOM     18  H8  <0> d           0.002  -0.004   0.002  0.00  0.00     0.075 H 
ENDBRANCH  11  14
ENDBRANCH   1  11
TORSDOF 5
