REMARK  2 active torsions:
REMARK  status: ('A' for Active; 'I' for Inactive)
REMARK    1  A    between atoms: C1_1  and  C2_2 
REMARK    2  A    between atoms: C3_3  and  N2_9 
ROOT
ATOM      1  C2  <0> d           2.381   1.353  -0.013  0.00  0.00    -0.011 A 
ATOM      2  C3  <0> d           1.169   2.039   0.002  0.00  0.00     0.051 A 
ATOM      3  C4  <0> d          -0.016   1.314   0.009  0.00  0.00     0.028 A 
ATOM      4  N1  <0> d           0.002  -0.004   0.002  0.00  0.00    -0.269 NA
ATOM      5  C5  <0> d           1.132  -0.684  -0.012  0.00  0.00     0.023 A 
ATOM      6  C6  <0> d           2.353  -0.033  -0.021  0.00  0.00     0.059 A 
ATOM      7 Cl1  <0> d           3.832  -0.941  -0.039  0.00  0.00    -0.082 Cl
ATOM      8  H4  <0> d          -0.962   1.835   0.017  0.00  0.00     0.118 H 
ATOM      9  H5  <0> d           1.104  -1.763  -0.018  0.00  0.00     0.117 H 
ENDROOT
BRANCH   1  10
ATOM     10  C1  <0> d           3.691   2.099  -0.021  0.00  0.00    -0.047 C 
ATOM     11  H1  <0> d           3.997   2.284  -1.051  0.00  0.00     0.033 H 
ATOM     12  H2  <0> d           3.570   3.049   0.499  0.00  0.00     0.033 H 
ATOM     13  H3  <0> d           4.451   1.503   0.482  0.00  0.00     0.033 H 
ENDBRANCH   1  10
BRANCH   2  14
ATOM     14  N2  <0> d           1.145   3.436   0.009  0.00  0.00    -0.397 N 
ATOM     15  H6  <0> d           0.297   3.906   0.019  0.00  0.00     0.156 HD
ATOM     16  H7  <0> d           1.977   3.935   0.004  0.00  0.00     0.156 HD
ENDBRANCH   2  14
TORSDOF 2
