REMARK  6 active torsions:
REMARK  status: ('A' for Active; 'I' for Inactive)
REMARK    1  A    between atoms: C1_1  and  C2_2 
REMARK    2  A    between atoms: C2_2  and  C3_3 
REMARK    3  A    between atoms: C3_3  and  C4_5 
REMARK    4  A    between atoms: C3_3  and  C5_6 
REMARK    5  A    between atoms: C5_6  and  C6_7 
REMARK    6  A    between atoms: C6_7  and  C7_8 
ROOT
ATOM      1  C5  <0> d          -1.413  -2.059   0.130  0.00  0.00    -0.057 C 
ATOM      2  H10 <0> d          -0.955  -2.486  -0.762  0.00  0.00     0.034 H 
ATOM      3  H11 <0> d          -0.837  -2.348   1.009  0.00  0.00     0.034 H 
ENDROOT
BRANCH   1   4
ATOM      4  C3  <0> d          -1.433  -0.534   0.013  0.00  0.00    -0.058 C 
ATOM      5  H1  <0> d          -1.970  -0.111   0.862  0.00  0.00     0.039 H 
BRANCH   4   6
ATOM      6  C2  <0> d           0.002  -0.004   0.002  0.00  0.00    -0.065 C 
ATOM      7  H5  <0> d           0.512  -0.356  -0.895  0.00  0.00     0.033 H 
ATOM      8  H6  <0> d           0.529  -0.365   0.885  0.00  0.00     0.033 H 
BRANCH   6   9
ATOM      9  C1  <0> d          -0.019   1.526   0.010  0.00  0.00    -0.076 C 
ATOM     10  H2  <0> d           1.004   1.903   0.003  0.00  0.00     0.027 H 
ATOM     11  H3  <0> d          -0.546   1.887  -0.873  0.00  0.00     0.027 H 
ATOM     12  H4  <0> d          -0.529   1.877   0.907  0.00  0.00     0.027 H 
ENDBRANCH   6   9
ENDBRANCH   4   6
BRANCH   4  13
ATOM     13  C4  <0> d          -2.135  -0.131  -1.286  0.00  0.00    -0.073 C 
ATOM     14  H7  <0> d          -2.150   0.956  -1.369  0.00  0.00     0.028 H 
ATOM     15  H8  <0> d          -1.598  -0.554  -2.135  0.00  0.00     0.028 H 
ATOM     16  H9  <0> d          -3.158  -0.508  -1.278  0.00  0.00     0.028 H 
ENDBRANCH   4  13
ENDBRANCH   1   4
BRANCH   1  17
ATOM     17  C6  <0> d          -2.846  -2.579   0.267  0.00  0.00    -0.020 C 
ATOM     18  H12 <0> d          -3.304  -2.152   1.159  0.00  0.00     0.043 H 
ATOM     19  H13 <0> d          -3.422  -2.290  -0.612  0.00  0.00     0.043 H 
BRANCH  17  20
ATOM     20  C7  <0> d          -2.826  -4.081   0.382  0.00  0.00     0.052 A 
ATOM     21  O1  <0> d          -2.889  -4.949  -0.641  0.00  0.00    -0.327 OA
ATOM     22  C10 <0> d          -2.843  -6.205  -0.168  0.00  0.00     0.019 A 
ATOM     23  C9  <0> d          -2.759  -6.150   1.174  0.00  0.00    -0.059 A 
ATOM     24  H16 <0> d          -2.872  -7.106  -0.762  0.00  0.00     0.123 H 
ATOM     25  C8  <0> d          -2.748  -4.781   1.528  0.00  0.00    -0.052 A 
ATOM     26  H15 <0> d          -2.709  -6.990   1.851  0.00  0.00     0.086 H 
ATOM     27  H14 <0> d          -2.689  -4.375   2.527  0.00  0.00     0.087 H 
ENDBRANCH  17  20
ENDBRANCH   1  17
TORSDOF 6
