REMARK  3 active torsions:
REMARK  status: ('A' for Active; 'I' for Inactive)
REMARK    1  A    between atoms: C1_1  and  C2_2 
REMARK    2  A    between atoms: C3_3  and  C4_4 
REMARK    3  A    between atoms: C7_7  and  O1_10 
ROOT
ATOM      1  C4  <0> d           1.186   1.791   0.000  0.00  0.00    -0.036 A 
ATOM      2  C5  <0> d          -0.013   1.076   0.008  0.00  0.00    -0.070 A 
ATOM      3  C6  <0> d          -1.215   1.750   0.017  0.00  0.00    -0.050 A 
ATOM      4  C7  <0> d          -1.235   3.138   0.030  0.00  0.00     0.065 A 
ATOM      5  C8  <0> d          -0.045   3.853   0.022  0.00  0.00    -0.050 A 
ATOM      6  C9  <0> d           1.162   3.187   0.008  0.00  0.00    -0.070 A 
ATOM      7  H6  <0> d           0.002  -0.004   0.002  0.00  0.00     0.084 H 
ATOM      8  H7  <0> d          -2.143   1.197   0.019  0.00  0.00     0.087 H 
ATOM      9  H8  <0> d          -0.064   4.933   0.028  0.00  0.00     0.087 H 
ATOM     10  H9  <0> d           2.087   3.743   0.001  0.00  0.00     0.084 H 
ENDROOT
BRANCH   1  11
ATOM     11  C3  <0> d           2.477   1.073  -0.016  0.00  0.00    -0.077 C 
ATOM     12  C2  <0> d           3.615   1.754  -0.023  0.00  0.00    -0.106 C 
ATOM     13  H4  <0> d           3.598   2.833  -0.017  0.00  0.00     0.076 H 
ATOM     14  H5  <0> d           2.494  -0.007  -0.022  0.00  0.00     0.084 H 
BRANCH  12  15
ATOM     15  C1  <0> d           4.932   1.021  -0.040  0.00  0.00    -0.060 C 
ATOM     16  H1  <0> d           5.749   1.742  -0.043  0.00  0.00     0.032 H 
ATOM     17  H2  <0> d           5.008   0.391   0.846  0.00  0.00     0.032 H 
ATOM     18  H3  <0> d           4.991   0.400  -0.933  0.00  0.00     0.032 H 
ENDBRANCH  12  15
ENDBRANCH   1  11
BRANCH   4  19
ATOM     19  O1  <0> d          -2.422   3.799   0.044  0.00  0.00    -0.361 OA
ATOM     20  H10 <0> d          -2.774   3.994  -0.836  0.00  0.00     0.217 HD
ENDBRANCH   4  19
TORSDOF 3
