REMARK  5 active torsions:
REMARK  status: ('A' for Active; 'I' for Inactive)
REMARK    1  A    between atoms: C1_1  and  C2_2 
REMARK    2  A    between atoms: C2_2  and  O1_3 
REMARK    3  A    between atoms: O1_3  and  C3_4 
REMARK    4  A    between atoms: C6_7  and  C9_11 
REMARK    5  A    between atoms: C8_9  and  N1_10 
ROOT
ATOM      1  C3  <0> d           0.002  -0.004   0.002  0.00  0.00     0.094 A 
ATOM      2  C4  <0> d           1.210  -0.682  -0.013  0.00  0.00    -0.048 A 
ATOM      3  C5  <0> d           1.227  -2.065  -0.021  0.00  0.00    -0.074 A 
ATOM      4  C6  <0> d           0.041  -2.775  -0.013  0.00  0.00    -0.060 A 
ATOM      5  C7  <0> d          -1.169  -2.106   0.002  0.00  0.00    -0.049 A 
ATOM      6  C8  <0> d          -1.194  -0.719   0.015  0.00  0.00     0.060 A 
ATOM      7  H6  <0> d           2.138  -0.130  -0.019  0.00  0.00     0.087 H 
ATOM      8  H7  <0> d           2.170  -2.591  -0.032  0.00  0.00     0.084 H 
ATOM      9  H8  <0> d          -2.094  -2.663   0.008  0.00  0.00     0.087 H 
ENDROOT
BRANCH   1  10
ATOM     10  O1  <0> d          -0.016   1.356   0.009  0.00  0.00    -0.349 OA
BRANCH  10  11
ATOM     11  C2  <0> d           1.248   2.022   0.001  0.00  0.00     0.023 C 
ATOM     12  H4  <0> d           1.817   1.732   0.884  0.00  0.00     0.074 H 
ATOM     13  H5  <0> d           1.800   1.741  -0.896  0.00  0.00     0.074 H 
BRANCH  11  14
ATOM     14  C1  <0> d           1.027   3.536   0.011  0.00  0.00    -0.056 C 
ATOM     15  H1  <0> d           1.991   4.044   0.005  0.00  0.00     0.030 H 
ATOM     16  H2  <0> d           0.458   3.826  -0.872  0.00  0.00     0.030 H 
ATOM     17  H3  <0> d           0.474   3.816   0.908  0.00  0.00     0.030 H 
ENDBRANCH  11  14
ENDBRANCH  10  11
ENDBRANCH   1  10
BRANCH   6  18
ATOM     18  N1  <0> d          -2.417  -0.039   0.036  0.00  0.00    -0.397 N 
ATOM     19  H9  <0> d          -2.433   0.931   0.042  0.00  0.00     0.156 HD
ATOM     20  H10 <0> d          -3.249  -0.538   0.046  0.00  0.00     0.156 HD
ENDBRANCH   6  18
BRANCH   4  21
ATOM     21  C9  <0> d           0.066  -4.281  -0.022  0.00  0.00    -0.051 C 
ATOM     22  H11 <0> d           0.082  -4.650   1.004  0.00  0.00     0.033 H 
ATOM     23  H12 <0> d          -0.822  -4.657  -0.529  0.00  0.00     0.033 H 
ATOM     24  H13 <0> d           0.958  -4.627  -0.546  0.00  0.00     0.033 H 
ENDBRANCH   4  21
TORSDOF 5
