REMARK  3 active torsions:
REMARK  status: ('A' for Active; 'I' for Inactive)
REMARK    1  A    between atoms: C1_1  and  N1_2 
REMARK    2  A    between atoms: N1_2  and  C2_3 
REMARK    3  A    between atoms: C3_5  and  N4_10 
ROOT
ATOM      1  C2  <0> d           0.002  -0.004   0.002  0.00  0.00     0.725 A 
ATOM      2  N2  <0> d          -0.016   1.320   0.009  0.00  0.00    -0.046 NA
ATOM      3  C3  <0> d           1.119   2.014   0.002  0.00  0.00     0.143 A 
ATOM      4  C4  <0> d           2.333   1.326  -0.013  0.00  0.00     0.001 A 
ATOM      5  C5  <0> d           2.308  -0.057  -0.020  0.00  0.00     0.148 A 
ATOM      6  N3  <0> d           1.139  -0.684  -0.013  0.00  0.00    -0.051 NA
ATOM      7 Cl1  <0> d           3.789  -0.962  -0.040  0.00  0.00    -0.062 Cl
ATOM      8  H5  <0> d           3.271   1.861  -0.019  0.00  0.00     0.094 H 
ENDROOT
BRANCH   1   9
ATOM      9  N1  <0> d          -1.197  -0.695   0.009  0.00  0.00    -0.227 N 
ATOM     10  H4  <0> d          -2.037  -0.209   0.020  0.00  0.00     0.177 HD
BRANCH   9  11
ATOM     11  C1  <0> d          -1.198  -2.160   0.001  0.00  0.00    -0.005 C 
ATOM     12  H1  <0> d          -0.693  -2.519  -0.895  0.00  0.00     0.057 H 
ATOM     13  H2  <0> d          -0.677  -2.529   0.885  0.00  0.00     0.057 H 
ATOM     14  H3  <0> d          -2.226  -2.522   0.009  0.00  0.00     0.057 H 
ENDBRANCH   9  11
ENDBRANCH   1   9
BRANCH   3  15
ATOM     15  N4  <0> d           1.096   3.399   0.009  0.00  0.00    -0.383 N 
ATOM     16  H6  <0> d           0.248   3.870   0.020  0.00  0.00     0.157 HD
ATOM     17  H7  <0> d           1.927   3.898   0.004  0.00  0.00     0.157 HD
ENDBRANCH   3  15
TORSDOF 3
