REMARK  4 active torsions:
REMARK  status: ('A' for Active; 'I' for Inactive)
REMARK    1  A    between atoms: C1_1  and  N1_2 
REMARK    2  A    between atoms: C4_5  and  C5_7 
REMARK    3  A    between atoms: C5_7  and  C6_8 
REMARK    4  A    between atoms: C6_8  and  C7_9 
ROOT
ATOM      1  N1  <0> d          -0.711   3.144   0.025  0.00  0.00    -0.285 N 
ATOM      2  C2  <0> d          -1.117   1.857   0.017  0.00  0.00    -0.000 A 
ATOM      3  C3  <0> d          -0.013   1.076   0.008  0.00  0.00    -0.041 A 
ATOM      4  C4  <0> d           1.107   1.914   0.002  0.00  0.00     0.056 A 
ATOM      5  N2  <0> d           0.690   3.154   0.012  0.00  0.00    -0.178 NA
ATOM      6  H4  <0> d          -2.141   1.512   0.019  0.00  0.00     0.114 H 
ATOM      7  H5  <0> d           0.002  -0.004   0.002  0.00  0.00     0.088 H 
ENDROOT
BRANCH   4   8
ATOM      8  C5  <0> d           2.546   1.466  -0.014  0.00  0.00    -0.014 C 
ATOM      9  H6  <0> d           3.031   1.768   0.914  0.00  0.00     0.043 H 
ATOM     10  H7  <0> d           2.588   0.381  -0.110  0.00  0.00     0.043 H 
BRANCH   8  11
ATOM     11  C6  <0> d           3.268   2.111  -1.200  0.00  0.00     0.021 C 
ATOM     12  H8  <0> d           2.783   1.810  -2.128  0.00  0.00     0.049 H 
ATOM     13  H9  <0> d           3.226   3.196  -1.104  0.00  0.00     0.049 H 
BRANCH  11  14
ATOM     14  C7  <0> d           4.706   1.664  -1.216  0.00  0.00     0.172 C 
ATOM     15  O1  <0> d           5.113   0.906  -0.366  0.00  0.00    -0.648 OA
ATOM     16  O2  <0> d           5.536   2.106  -2.173  0.00  0.00    -0.648 OA
ENDBRANCH  11  14
ENDBRANCH   8  11
ENDBRANCH   4   8
BRANCH   1  17
ATOM     17  C1  <0> d          -1.581   4.322   0.039  0.00  0.00     0.002 C 
ATOM     18  H1  <0> d          -1.807   4.620  -0.985  0.00  0.00     0.059 H 
ATOM     19  H2  <0> d          -2.509   4.083   0.560  0.00  0.00     0.059 H 
ATOM     20  H3  <0> d          -1.077   5.141   0.553  0.00  0.00     0.059 H 
ENDBRANCH   1  17
TORSDOF 4
