REMARK  1 active torsions:
REMARK  status: ('A' for Active; 'I' for Inactive)
REMARK    1  A    between atoms: C5_8  and  O3_12 
ROOT
ATOM      1  C1  <0> d          -0.019   1.542   0.011  0.00  0.00    -0.035 C 
ATOM      2  C2  <0> d           1.497   1.874  -0.002  0.00  0.00     0.023 C 
ATOM      3  O1  <0> d           2.034   0.891  -0.915  0.00  0.00    -0.361 OA
ATOM      4  C3  <0> d           1.374  -0.357  -0.630  0.00  0.00     0.137 C 
ATOM      5  H1  <0> d           1.971  -0.980   0.035  0.00  0.00     0.129 H 
ATOM      6  C4  <0> d           0.002  -0.004   0.002  0.00  0.00     0.022 C 
ATOM      7  H2  <0> d          -0.129  -0.432   0.996  0.00  0.00     0.051 H 
ATOM      8  C5  <0> d          -1.031  -0.519  -1.024  0.00  0.00     0.064 C 
ATOM      9  H3  <0> d          -1.346   0.281  -1.695  0.00  0.00     0.087 H 
ATOM     10  C6  <0> d          -0.216  -1.593  -1.789  0.00  0.00     0.047 C 
ATOM     11  O2  <0> d           1.116  -1.022  -1.880  0.00  0.00    -0.358 OA
ATOM     12  H4  <0> d          -0.494   1.921   0.915  0.00  0.00     0.037 H 
ATOM     13  H5  <0> d          -0.511   1.931  -0.881  0.00  0.00     0.037 H 
ATOM     14  H6  <0> d           1.668   2.883  -0.377  0.00  0.00     0.074 H 
ATOM     15  H7  <0> d           1.927   1.752   0.992  0.00  0.00     0.074 H 
ATOM     16  H8  <0> d          -0.188  -2.526  -1.226  0.00  0.00     0.078 H 
ATOM     17  H9  <0> d          -0.634  -1.757  -2.783  0.00  0.00     0.078 H 
ENDROOT
BRANCH   8  18
ATOM     18  O3  <0> d          -2.157  -1.103  -0.366  0.00  0.00    -0.393 OA
ATOM     19  H10 <0> d          -2.833  -1.441  -0.969  0.00  0.00     0.210 HD
ENDBRANCH   8  18
TORSDOF 1
