REMARK  4 active torsions:
REMARK  status: ('A' for Active; 'I' for Inactive)
REMARK    1  A    between atoms: C1_1  and  O1_2 
REMARK    2  A    between atoms: O1_2  and  C2_3 
REMARK    3  A    between atoms: C2_3  and  C3_5 
REMARK    4  A    between atoms: C5_8  and  C6_10 
ROOT
ATOM      1  C3  <0> d          -1.531  -2.395  -0.869  0.00  0.00     0.044 A 
ATOM      2  H1  <0> d          -0.499  -2.624  -0.604  0.00  0.00     0.057 H 
ATOM      3  C4  <0> d          -2.459  -3.571  -1.178  0.00  0.00    -0.039 A 
ATOM      4  C5  <0> d          -2.621  -2.790   0.128  0.00  0.00     0.043 A 
ATOM      5  H2  <0> d          -2.307  -3.279   1.050  0.00  0.00     0.058 H 
ATOM      6  H6  <0> d          -3.216  -3.427  -1.949  0.00  0.00     0.035 H 
ATOM      7  H7  <0> d          -2.037  -4.575  -1.115  0.00  0.00     0.035 H 
ENDROOT
BRANCH   1   8
ATOM      8  C2  <0> d          -1.733  -1.125  -1.655  0.00  0.00     0.263 C 
ATOM      9  O2  <0> d          -2.241  -1.166  -2.750  0.00  0.00    -0.265 OA
BRANCH   8  10
ATOM     10  O1  <0> d          -1.348   0.053  -1.137  0.00  0.00    -0.326 OA
BRANCH  10  11
ATOM     11  C1  <0> d          -1.571   1.216  -1.937  0.00  0.00     0.013 C 
ATOM     12  H3  <0> d          -1.215   2.098  -1.403  0.00  0.00     0.067 H 
ATOM     13  H4  <0> d          -1.029   1.119  -2.878  0.00  0.00     0.067 H 
ATOM     14  H5  <0> d          -2.636   1.320  -2.140  0.00  0.00     0.067 H 
ENDBRANCH  10  11
ENDBRANCH   8  10
ENDBRANCH   1   8
BRANCH   4  15
ATOM     15  C6  <0> d          -3.816  -1.879   0.250  0.00  0.00     0.177 C 
ATOM     16  O3  <0> d          -4.918  -2.269  -0.096  0.00  0.00    -0.648 OA
ATOM     17  O4  <0> d          -3.680  -0.752   0.696  0.00  0.00    -0.648 OA
ENDBRANCH   4  15
TORSDOF 4
