REMARK  4 active torsions:
REMARK  status: ('A' for Active; 'I' for Inactive)
REMARK    1  A    between atoms: C1_1  and  C2_2 
REMARK    2  A    between atoms: C2_2  and  O1_3 
REMARK    3  A    between atoms: O1_3  and  C3_4 
REMARK    4  A    between atoms: C6_7  and  C7_9 
ROOT
ATOM      1  C3  <0> d          -1.119   1.869   0.017  0.00  0.00     0.185 A 
ATOM      2  C4  <0> d          -0.013   1.076   0.008  0.00  0.00    -0.024 A 
ATOM      3  C5  <0> d           1.101   1.921   0.002  0.00  0.00    -0.039 A 
ATOM      4  C6  <0> d           0.618   3.213   0.013  0.00  0.00     0.154 A 
ATOM      5  O2  <0> d          -0.733   3.152   0.026  0.00  0.00    -0.281 OA
ATOM      6  H6  <0> d           0.002  -0.004   0.002  0.00  0.00     0.091 H 
ATOM      7  H7  <0> d           2.139   1.621  -0.010  0.00  0.00     0.088 H 
ENDROOT
BRANCH   1   8
ATOM      8  O1  <0> d          -2.401   1.433   0.020  0.00  0.00    -0.331 OA
BRANCH   8   9
ATOM      9  C2  <0> d          -3.425   2.429   0.029  0.00  0.00     0.025 C 
ATOM     10  H4  <0> d          -3.324   3.046   0.922  0.00  0.00     0.074 H 
ATOM     11  H5  <0> d          -3.331   3.055  -0.858  0.00  0.00     0.074 H 
BRANCH   9  12
ATOM     12  C1  <0> d          -4.796   1.750   0.031  0.00  0.00    -0.056 C 
ATOM     13  H1  <0> d          -4.890   1.124   0.918  0.00  0.00     0.030 H 
ATOM     14  H2  <0> d          -5.578   2.510   0.039  0.00  0.00     0.030 H 
ATOM     15  H3  <0> d          -4.898   1.133  -0.862  0.00  0.00     0.030 H 
ENDBRANCH   9  12
ENDBRANCH   8   9
ENDBRANCH   1   8
BRANCH   4  16
ATOM     16  C7  <0> d           1.399   4.395   0.013  0.00  0.00     0.234 C 
ATOM     17  O3  <0> d           2.614   4.321   0.002  0.00  0.00    -0.642 OA
ATOM     18  O4  <0> d           0.795   5.602   0.025  0.00  0.00    -0.642 OA
ENDBRANCH   4  16
TORSDOF 4
