REMARK  3 active torsions:
REMARK  status: ('A' for Active; 'I' for Inactive)
REMARK    1  A    between atoms: C3_3  and  C10_10 
REMARK    2  A    between atoms: C5_5  and  C7_7 
REMARK    3  A    between atoms: C10_10  and  O1_11 
ROOT
ATOM      1  C1  <0> d          -0.050   3.840   0.023  0.00  0.00    -0.082 A 
ATOM      2  C2  <0> d          -1.238   3.133   0.029  0.00  0.00    -0.075 A 
ATOM      3  C3  <0> d          -1.219   1.751   0.017  0.00  0.00    -0.034 A 
ATOM      4  C4  <0> d          -0.013   1.076   0.008  0.00  0.00    -0.068 A 
ATOM      5  C5  <0> d           1.175   1.783   0.000  0.00  0.00    -0.053 A 
ATOM      6  C6  <0> d           1.156   3.166   0.008  0.00  0.00    -0.076 A 
ATOM      7  H1  <0> d          -0.065   4.920   0.029  0.00  0.00     0.083 H 
ATOM      8  H2  <0> d          -2.180   3.660   0.040  0.00  0.00     0.084 H 
ATOM      9  H3  <0> d           0.002  -0.004   0.002  0.00  0.00     0.085 H 
ATOM     10  H4  <0> d           2.084   3.718   0.003  0.00  0.00     0.084 H 
ENDROOT
BRANCH   5  11
ATOM     11  C7  <0> d           2.490   1.047  -0.016  0.00  0.00    -0.029 A 
ATOM     12  C9  <0> d           3.428   1.302  -1.198  0.00  0.00    -0.057 A 
ATOM     13  C8  <0> d           3.763   1.872   0.183  0.00  0.00    -0.057 A 
ATOM     14  H8  <0> d           4.026   0.464  -1.555  0.00  0.00     0.034 H 
ATOM     15  H9  <0> d           3.093   2.002  -1.964  0.00  0.00     0.034 H 
ATOM     16  H6  <0> d           3.650   2.947   0.325  0.00  0.00     0.034 H 
ATOM     17  H7  <0> d           4.582   1.409   0.733  0.00  0.00     0.034 H 
ATOM     18  H5  <0> d           2.471   0.042   0.404  0.00  0.00     0.047 H 
ENDBRANCH   5  11
BRANCH   3  19
ATOM     19  C10 <0> d          -2.514   0.980   0.019  0.00  0.00     0.040 C 
ATOM     20  H10 <0> d          -3.284   1.561  -0.488  0.00  0.00     0.081 H 
ATOM     21  H11 <0> d          -2.373   0.032  -0.500  0.00  0.00     0.081 H 
BRANCH  19  22
ATOM     22  O1  <0> d          -2.917   0.729   1.367  0.00  0.00    -0.396 OA
ATOM     23  H12 <0> d          -3.745   0.235   1.445  0.00  0.00     0.209 HD
ENDBRANCH  19  22
ENDBRANCH   3  19
TORSDOF 3
