REMARK  4 active torsions:
REMARK  status: ('A' for Active; 'I' for Inactive)
REMARK    1  A    between atoms: C1_1  and  C2_2 
REMARK    2  A    between atoms: C3_4  and  N3_9 
REMARK    3  A    between atoms: N3_9  and  C6_10 
REMARK    4  A    between atoms: N3_9  and  C7_11 
ROOT
ATOM      1  C2  <0> d           3.039   2.360   1.143  0.00  0.00     0.104 A 
ATOM      2  N1  <0> d           3.668   2.662   0.025  0.00  0.00    -0.218 NA
ATOM      3  C3  <0> d           3.111   2.416  -1.159  0.00  0.00     0.131 A 
ATOM      4  C4  <0> d           1.852   1.823  -1.203  0.00  0.00     0.013 A 
ATOM      5  C5  <0> d           1.224   1.521  -0.002  0.00  0.00     0.183 A 
ATOM      6  N2  <0> d           1.843   1.807   1.141  0.00  0.00    -0.323 N 
ATOM      7  O1  <0> d          -0.004   0.949   0.007  0.00  0.00    -0.172 OA
ATOM      8  H4  <0> d           1.421   1.628  -2.084  0.00  0.00     0.096 H 
ATOM      9  H5  <0> d           1.343   1.576   2.093  0.00  0.00     0.169 HD
ENDROOT
BRANCH   3  10
ATOM     10  N3  <0> d           3.779   2.736  -2.330  0.00  0.00    -0.374 N 
BRANCH  10  11
ATOM     11  C6  <0> d           3.114   2.563  -3.624  0.00  0.00    -0.018 C 
ATOM     12  H6  <0> d           2.098   2.173  -3.464  0.00  0.00     0.056 H 
ATOM     13  H7  <0> d           3.687   1.854  -4.239  0.00  0.00     0.056 H 
ATOM     14  H8  <0> d           3.057   3.534  -4.139  0.00  0.00     0.056 H 
ENDBRANCH  10  11
BRANCH  10  15
ATOM     15  C7  <0> d           5.151   3.248  -2.275  0.00  0.00    -0.018 C 
ATOM     16  H9  <0> d           5.478   3.308  -1.226  0.00  0.00     0.056 H 
ATOM     17  H10 <0> d           5.188   4.249  -2.728  0.00  0.00     0.056 H 
ATOM     18  H11 <0> d           5.818   2.570  -2.828  0.00  0.00     0.056 H 
ENDBRANCH  10  15
ENDBRANCH   3  10
BRANCH   1  19
ATOM     19  C1  <0> d           3.707   2.655   2.461  0.00  0.00    -0.021 C 
ATOM     20  H1  <0> d           3.047   2.343   3.284  0.00  0.00     0.037 H 
ATOM     21  H2  <0> d           3.903   3.735   2.539  0.00  0.00     0.037 H 
ATOM     22  H3  <0> d           4.657   2.104   2.523  0.00  0.00     0.037 H 
ENDBRANCH   1  19
TORSDOF 4
