REMARK  7 active torsions:
REMARK  status: ('A' for Active; 'I' for Inactive)
REMARK    1  A    between atoms: C1_1  and  C2_2 
REMARK    2  A    between atoms: C2_2  and  C3_3 
REMARK    3  A    between atoms: C3_3  and  C4_5 
REMARK    4  A    between atoms: C3_3  and  O1_9 
REMARK    5  A    between atoms: C4_5  and  C5_6 
REMARK    6  A    between atoms: C4_5  and  C6_7 
REMARK    7  A    between atoms: C4_5  and  C7_8 
ROOT
ATOM      1  C4  <0> d           0.849  -2.021  -1.205  0.00  0.00    -0.025 C 
ENDROOT
BRANCH   1   2
ATOM      2  C3  <0> d           0.718  -0.497  -1.257  0.00  0.00     0.041 C 
ATOM      3  H1  <0> d           1.710  -0.049  -1.310  0.00  0.00     0.084 H 
BRANCH   2   4
ATOM      4  C2  <0> d           0.002  -0.004   0.002  0.00  0.00    -0.044 C 
ATOM      5  H5  <0> d           0.529  -0.365   0.885  0.00  0.00     0.036 H 
ATOM      6  H6  <0> d          -1.020  -0.381   0.010  0.00  0.00     0.036 H 
BRANCH   4   7
ATOM      7  C1  <0> d          -0.019   1.526   0.010  0.00  0.00    -0.074 C 
ATOM      8  H2  <0> d           1.004   1.903   0.003  0.00  0.00     0.027 H 
ATOM      9  H3  <0> d          -0.546   1.887  -0.873  0.00  0.00     0.027 H 
ATOM     10  H4  <0> d          -0.529   1.877   0.907  0.00  0.00     0.027 H 
ENDBRANCH   4   7
ENDBRANCH   2   4
BRANCH   2  11
ATOM     11  O1  <0> d          -0.036  -0.123  -2.412  0.00  0.00    -0.395 OA
ATOM     12  H16 <0> d          -0.931  -0.487  -2.431  0.00  0.00     0.210 HD
ENDBRANCH   2  11
ENDBRANCH   1   2
BRANCH   1  13
ATOM     13  C5  <0> d          -0.543  -2.650  -1.131  0.00  0.00    -0.067 C 
ATOM     14  H7  <0> d          -1.119  -2.365  -2.011  0.00  0.00     0.028 H 
ATOM     15  H8  <0> d          -0.450  -3.736  -1.094  0.00  0.00     0.028 H 
ATOM     16  H9  <0> d          -1.054  -2.299  -0.234  0.00  0.00     0.028 H 
ENDBRANCH   1  13
BRANCH   1  17
ATOM     17  C6  <0> d           1.565  -2.514  -2.464  0.00  0.00    -0.067 C 
ATOM     18  H10 <0> d           2.558  -2.066  -2.517  0.00  0.00     0.028 H 
ATOM     19  H11 <0> d           1.659  -3.600  -2.427  0.00  0.00     0.028 H 
ATOM     20  H12 <0> d           0.990  -2.229  -3.345  0.00  0.00     0.028 H 
ENDBRANCH   1  17
BRANCH   1  21
ATOM     21  C7  <0> d           1.657  -2.422   0.031  0.00  0.00    -0.067 C 
ATOM     22  H13 <0> d           1.147  -2.070   0.928  0.00  0.00     0.028 H 
ATOM     23  H14 <0> d           1.750  -3.507   0.068  0.00  0.00     0.028 H 
ATOM     24  H15 <0> d           2.649  -1.973  -0.022  0.00  0.00     0.028 H 
ENDBRANCH   1  21
TORSDOF 7
