REMARK  4 active torsions:
REMARK  status: ('A' for Active; 'I' for Inactive)
REMARK    1  A    between atoms: C1_1  and  C2_2 
REMARK    2  A    between atoms: C2_2  and  C3_4 
REMARK    3  A    between atoms: C2_2  and  N1_8 
REMARK    4  A    between atoms: C3_4  and  C4_5 
ROOT
ATOM      1  C2  <0> d           0.002  -0.004   0.002  0.00  0.00     0.021 C 
ATOM      2  H1  <0> d          -1.020  -0.381   0.010  0.00  0.00     0.073 H 
ENDROOT
BRANCH   1   3
ATOM      3  C1  <0> d          -0.019   1.526   0.010  0.00  0.00    -0.056 C 
ATOM      4  H2  <0> d           1.004   1.903   0.003  0.00  0.00     0.030 H 
ATOM      5  H3  <0> d          -0.546   1.887  -0.873  0.00  0.00     0.030 H 
ATOM      6  H4  <0> d          -0.529   1.877   0.907  0.00  0.00     0.030 H 
ENDBRANCH   1   3
BRANCH   1   7
ATOM      7  C3  <0> d           0.718  -0.497  -1.257  0.00  0.00     0.034 C 
ATOM      8  H5  <0> d           1.710  -0.049  -1.310  0.00  0.00     0.052 H 
ATOM      9  H6  <0> d           0.812  -1.583  -1.220  0.00  0.00     0.052 H 
BRANCH   7  10
ATOM     10  C4  <0> d          -0.077  -0.103  -2.474  0.00  0.00     0.174 C 
ATOM     11  O1  <0> d          -1.120   0.516  -2.347  0.00  0.00    -0.648 OA
ATOM     12  O2  <0> d           0.322  -0.402  -3.587  0.00  0.00    -0.648 OA
ENDBRANCH   7  10
ENDBRANCH   1   7
BRANCH   1  13
ATOM     13  N1  <0> d           0.711  -0.489   1.189  0.00  0.00    -0.362 N 
ATOM     14  C8  <0> d           0.182  -1.289   2.158  0.00  0.00    -0.020 A 
ATOM     15  C7  <0> d           1.138  -1.523   3.080  0.00  0.00    -0.067 A 
ATOM     16  H10 <0> d          -0.828  -1.671   2.182  0.00  0.00     0.111 H 
ATOM     17  C6  <0> d           2.297  -0.835   2.670  0.00  0.00    -0.067 A 
ATOM     18  H9  <0> d           1.033  -2.124   3.971  0.00  0.00     0.085 H 
ATOM     19  C5  <0> d           2.006  -0.211   1.510  0.00  0.00    -0.020 A 
ATOM     20  H8  <0> d           3.243  -0.811   3.189  0.00  0.00     0.085 H 
ATOM     21  H7  <0> d           2.683   0.402   0.934  0.00  0.00     0.111 H 
ENDBRANCH   1  13
TORSDOF 4
