REMARK  6 active torsions:
REMARK  status: ('A' for Active; 'I' for Inactive)
REMARK    1  A    between atoms: C1_1  and  N1_2 
REMARK    2  A    between atoms: N1_2  and  C2_3 
REMARK       I    between atoms: N1_2  and  C3_4 
REMARK    3  A    between atoms: C3_4  and  C4_6 
REMARK    4  A    between atoms: C4_6  and  C5_7 
REMARK    5  A    between atoms: C5_7  and  C6_8 
REMARK    6  A    between atoms: C6_8  and  C7_9 
ROOT
ATOM      1  C4  <0> d           2.755   5.077   0.003  0.00  0.00     0.010 C 
ATOM      2  H7  <0> d           2.260   5.458   0.908  0.00  0.00     0.047 H 
ATOM      3  H8  <0> d           2.243   5.468  -0.888  0.00  0.00     0.047 H 
ENDROOT
BRANCH   1   4
ATOM      4  C3  <0> d           4.195   5.524  -0.008  0.00  0.00     0.219 C 
ATOM      5  N1  <0> d           4.492   6.838  -0.004  0.00  0.00    -0.361 N 
ATOM      6  O1  <0> d           5.085   4.700  -0.021  0.00  0.00    -0.273 OA
BRANCH   5   7
ATOM      7  C1  <0> d           5.891   7.273  -0.015  0.00  0.00    -0.017 C 
ATOM      8  H1  <0> d           6.549   6.391  -0.026  0.00  0.00     0.056 H 
ATOM      9  H2  <0> d           6.096   7.872   0.884  0.00  0.00     0.056 H 
ATOM     10  H3  <0> d           6.079   7.881  -0.912  0.00  0.00     0.056 H 
ENDBRANCH   5   7
BRANCH   5  11
ATOM     11  C2  <0> d           3.416   7.833   0.011  0.00  0.00    -0.017 C 
ATOM     12  H4  <0> d           2.443   7.320   0.018  0.00  0.00     0.056 H 
ATOM     13  H5  <0> d           3.491   8.467  -0.884  0.00  0.00     0.056 H 
ATOM     14  H6  <0> d           3.508   8.457   0.912  0.00  0.00     0.056 H 
ENDBRANCH   5  11
ENDBRANCH   1   4
BRANCH   1  15
ATOM     15  C5  <0> d           2.696   3.548  -0.005  0.00  0.00    -0.048 C 
ATOM     16  H9  <0> d           3.192   3.166  -0.910  0.00  0.00     0.034 H 
ATOM     17  H10 <0> d           3.209   3.157   0.887  0.00  0.00     0.034 H 
BRANCH  15  18
ATOM     18  C6  <0> d           1.235   3.094   0.007  0.00  0.00     0.016 C 
ATOM     19  H11 <0> d           0.740   3.476   0.912  0.00  0.00     0.049 H 
ATOM     20  H12 <0> d           0.723   3.486  -0.884  0.00  0.00     0.049 H 
BRANCH  18  21
ATOM     21  C7  <0> d           1.177   1.588  -0.001  0.00  0.00     0.172 C 
ATOM     22  O2  <0> d           2.199   0.944  -0.014  0.00  0.00    -0.648 OA
ATOM     23  O3  <0> d          -0.011   0.963   0.007  0.00  0.00    -0.648 OA
ENDBRANCH  18  21
ENDBRANCH  15  18
ENDBRANCH   1  15
TORSDOF 6
