REMARK  5 active torsions:
REMARK  status: ('A' for Active; 'I' for Inactive)
REMARK    1  A    between atoms: C1_1  and  C2_2 
REMARK    2  A    between atoms: C2_2  and  C3_3 
REMARK    3  A    between atoms: C2_2  and  C4_4 
REMARK    4  A    between atoms: C2_2  and  O1_8 
REMARK    5  A    between atoms: C5_5  and  C6_6 
ROOT
ATOM      1  C6  <0> d          -3.189  -1.786  -0.974  0.00  0.00    -0.090 C 
ATOM      2  C7  <0> d          -4.290  -2.192  -0.965  0.00  0.00    -0.150 C 
ATOM      3  H9  <0> d          -5.275  -2.555  -0.958  0.00  0.00     0.166 H 
ENDROOT
BRANCH   1   4
ATOM      4  C5  <0> d          -1.845  -1.290  -0.984  0.00  0.00    -0.035 C 
ATOM      5  C4  <0> d          -1.412  -0.526   0.013  0.00  0.00    -0.064 C 
ATOM      6  H7  <0> d          -2.072  -0.278   0.830  0.00  0.00     0.082 H 
ATOM      7  H8  <0> d          -1.185  -1.538  -1.802  0.00  0.00     0.097 H 
BRANCH   5   8
ATOM      8  C2  <0> d           0.002  -0.004   0.002  0.00  0.00     0.069 C 
BRANCH   8   9
ATOM      9  C1  <0> d          -0.019   1.526   0.010  0.00  0.00    -0.045 C 
ATOM     10  H1  <0> d           1.004   1.903   0.003  0.00  0.00     0.032 H 
ATOM     11  H2  <0> d          -0.546   1.887  -0.873  0.00  0.00     0.032 H 
ATOM     12  H3  <0> d          -0.529   1.877   0.907  0.00  0.00     0.032 H 
ENDBRANCH   8   9
BRANCH   8  13
ATOM     13  C3  <0> d           0.742  -0.511   1.242  0.00  0.00    -0.045 C 
ATOM     14  H4  <0> d           0.232  -0.159   2.138  0.00  0.00     0.032 H 
ATOM     15  H5  <0> d           0.757  -1.601   1.236  0.00  0.00     0.032 H 
ATOM     16  H6  <0> d           1.765  -0.134   1.234  0.00  0.00     0.032 H 
ENDBRANCH   8  13
BRANCH   8  17
ATOM     17  O1  <0> d           0.671  -0.465  -1.174  0.00  0.00    -0.387 OA
ATOM     18  H10 <0> d           1.588  -0.167  -1.247  0.00  0.00     0.211 HD
ENDBRANCH   8  17
ENDBRANCH   5   8
ENDBRANCH   1   4
TORSDOF 5
