REMARK  8 active torsions:
REMARK  status: ('A' for Active; 'I' for Inactive)
REMARK    1  A    between atoms: C1_1  and  C2_2 
REMARK    2  A    between atoms: C2_2  and  C3_3 
REMARK    3  A    between atoms: C3_3  and  C4_5 
REMARK    4  A    between atoms: C3_3  and  C5_6 
REMARK    5  A    between atoms: C5_6  and  C6_7 
REMARK    6  A    between atoms: C6_7  and  C7_8 
REMARK    7  A    between atoms: C7_8  and  C8_9 
REMARK    8  A    between atoms: C8_9  and  C9_10 
ROOT
ATOM      1  C5  <0> d          -0.037   1.099  -2.490  0.00  0.00    -0.062 C 
ATOM      2  H10 <0> d           0.986   1.476  -2.498  0.00  0.00     0.033 H 
ATOM      3  H11 <0> d          -0.022   0.009  -2.496  0.00  0.00     0.033 H 
ENDROOT
BRANCH   1   4
ATOM      4  C3  <0> d          -0.777   1.606  -3.730  0.00  0.00    -0.058 C 
ATOM      5  H1  <0> d          -0.869   2.691  -3.679  0.00  0.00     0.039 H 
BRANCH   4   6
ATOM      6  C2  <0> d           0.007   1.219  -4.986  0.00  0.00    -0.065 C 
ATOM      7  H5  <0> d           1.028   1.592  -4.906  0.00  0.00     0.033 H 
ATOM      8  H6  <0> d           0.024   0.133  -5.083  0.00  0.00     0.033 H 
BRANCH   6   9
ATOM      9  C1  <0> d          -0.665   1.831  -6.216  0.00  0.00    -0.076 C 
ATOM     10  H2  <0> d          -0.107   1.556  -7.110  0.00  0.00     0.027 H 
ATOM     11  H3  <0> d          -1.687   1.458  -6.295  0.00  0.00     0.027 H 
ATOM     12  H4  <0> d          -0.682   2.917  -6.118  0.00  0.00     0.027 H 
ENDBRANCH   6   9
ENDBRANCH   4   6
BRANCH   4  13
ATOM     13  C4  <0> d          -2.170   0.977  -3.784  0.00  0.00    -0.073 C 
ATOM     14  H7  <0> d          -2.729   1.253  -2.890  0.00  0.00     0.028 H 
ATOM     15  H8  <0> d          -2.697   1.338  -4.667  0.00  0.00     0.028 H 
ATOM     16  H9  <0> d          -2.078  -0.108  -3.835  0.00  0.00     0.028 H 
ENDBRANCH   4  13
ENDBRANCH   1   4
BRANCH   1  17
ATOM     17  C6  <0> d          -0.753   1.593  -1.232  0.00  0.00    -0.064 C 
ATOM     18  H12 <0> d          -1.775   1.215  -1.224  0.00  0.00     0.033 H 
ATOM     19  H13 <0> d          -0.767   2.683  -1.226  0.00  0.00     0.033 H 
BRANCH  17  20
ATOM     20  C7  <0> d          -0.013   1.086   0.008  0.00  0.00    -0.056 C 
ATOM     21  H14 <0> d           0.002  -0.004   0.002  0.00  0.00     0.033 H 
ATOM     22  H15 <0> d           1.010   1.463   0.000  0.00  0.00     0.033 H 
BRANCH  20  23
ATOM     23  C8  <0> d          -0.729   1.579   1.267  0.00  0.00     0.016 C 
ATOM     24  H16 <0> d          -0.744   2.669   1.273  0.00  0.00     0.049 H 
ATOM     25  H17 <0> d          -1.751   1.202   1.275  0.00  0.00     0.049 H 
BRANCH  23  26
ATOM     26  C9  <0> d           0.000   1.080   2.488  0.00  0.00     0.172 C 
ATOM     27  O1  <0> d           0.991   0.399   2.364  0.00  0.00    -0.648 OA
ATOM     28  O2  <0> d          -0.451   1.391   3.713  0.00  0.00    -0.648 OA
ENDBRANCH  23  26
ENDBRANCH  20  23
ENDBRANCH  17  20
ENDBRANCH   1  17
TORSDOF 8
