REMARK  5 active torsions:
REMARK  status: ('A' for Active; 'I' for Inactive)
REMARK    1  A    between atoms: C1_1  and  C2_2 
REMARK    2  A    between atoms: C5_5  and  N2_9 
REMARK    3  A    between atoms: C6_6  and  N1_8 
REMARK    4  A    between atoms: N2_9  and  C8_10 
REMARK    5  A    between atoms: N2_9  and  C9_11 
ROOT
ATOM      1  C2  <0> d          -1.243   3.133   0.030  0.00  0.00    -0.060 A 
ATOM      2  C3  <0> d          -1.219   1.751   0.017  0.00  0.00    -0.075 A 
ATOM      3  C4  <0> d          -0.013   1.076   0.008  0.00  0.00    -0.060 A 
ATOM      4  C5  <0> d           1.179   1.785   0.000  0.00  0.00     0.036 A 
ATOM      5  C6  <0> d           1.155   3.180   0.008  0.00  0.00     0.047 A 
ATOM      6  C7  <0> d          -0.059   3.849   0.022  0.00  0.00    -0.050 A 
ATOM      7  H4  <0> d          -2.146   1.197   0.019  0.00  0.00     0.084 H 
ATOM      8  H5  <0> d           0.002  -0.004   0.002  0.00  0.00     0.086 H 
ATOM      9  H6  <0> d          -0.081   4.928   0.028  0.00  0.00     0.087 H 
ENDROOT
BRANCH   4  10
ATOM     10  N2  <0> d           2.402   1.104  -0.015  0.00  0.00    -0.290 NA
BRANCH  10  11
ATOM     11  C8  <0> d           2.539   0.242   1.167  0.00  0.00    -0.029 C 
ATOM     12  H9  <0> d           1.732  -0.489   1.179  0.00  0.00     0.048 H 
ATOM     13  H10 <0> d           3.498  -0.275   1.130  0.00  0.00     0.048 H 
ATOM     14  H11 <0> d           2.490   0.852   2.069  0.00  0.00     0.048 H 
ENDBRANCH  10  11
BRANCH  10  15
ATOM     15  C9  <0> d           2.557   0.328  -1.253  0.00  0.00    -0.029 C 
ATOM     16  H12 <0> d           2.521   1.001  -2.110  0.00  0.00     0.048 H 
ATOM     17  H13 <0> d           3.515  -0.191  -1.239  0.00  0.00     0.048 H 
ATOM     18  H14 <0> d           1.750  -0.400  -1.328  0.00  0.00     0.048 H 
ENDBRANCH  10  15
ENDBRANCH   4  10
BRANCH   5  19
ATOM     19  N1  <0> d           2.354   3.902   0.001  0.00  0.00    -0.398 N 
ATOM     20  H7  <0> d           3.203   3.433  -0.009  0.00  0.00     0.156 HD
ATOM     21  H8  <0> d           2.336   4.872   0.006  0.00  0.00     0.156 HD
ENDBRANCH   5  19
BRANCH   1  22
ATOM     22  C1  <0> d          -2.561   3.862   0.045  0.00  0.00    -0.051 C 
ATOM     23  H1  <0> d          -2.889   4.043  -0.979  0.00  0.00     0.033 H 
ATOM     24  H2  <0> d          -3.305   3.257   0.563  0.00  0.00     0.033 H 
ATOM     25  H3  <0> d          -2.444   4.814   0.562  0.00  0.00     0.033 H 
ENDBRANCH   1  22
TORSDOF 5
