REMARK  3 active torsions:
REMARK  status: ('A' for Active; 'I' for Inactive)
REMARK    1  A    between atoms: C1_1  and  O1_2 
REMARK    2  A    between atoms: O1_2  and  C2_3 
REMARK    3  A    between atoms: C4_6  and  N3_9 
ROOT
ATOM      1  C2  <0> d          -0.787   2.891   1.346  0.00  0.00     0.181 A 
ATOM      2  C3  <0> d          -1.431   3.406   2.463  0.00  0.00     0.055 A 
ATOM      3  N1  <0> d          -1.530   4.714   2.625  0.00  0.00    -0.238 NA
ATOM      4  C4  <0> d          -1.023   5.535   1.713  0.00  0.00     0.138 A 
ATOM      5  C5  <0> d          -0.384   5.017   0.592  0.00  0.00     0.049 A 
ATOM      6  N2  <0> d          -0.281   3.710   0.435  0.00  0.00    -0.232 NA
ATOM      7  H4  <0> d          -1.846   2.738   3.203  0.00  0.00     0.121 H 
ATOM      8  H5  <0> d           0.028   5.684  -0.151  0.00  0.00     0.120 H 
ENDROOT
BRANCH   1   9
ATOM      9  O1  <0> d          -0.682   1.547   1.184  0.00  0.00    -0.338 OA
BRANCH   9  10
ATOM     10  C1  <0> d          -0.013   1.086   0.008  0.00  0.00     0.012 C 
ATOM     11  H1  <0> d           0.002  -0.014   0.002  0.00  0.00     0.067 H 
ATOM     12  H2  <0> d           1.019   1.466   0.000  0.00  0.00     0.067 H 
ATOM     13  H3  <0> d          -0.545   1.450  -0.883  0.00  0.00     0.067 H 
ENDBRANCH   9  10
ENDBRANCH   1   9
BRANCH   4  14
ATOM     14  N3  <0> d          -1.133   6.913   1.879  0.00  0.00    -0.383 N 
ATOM     15  H6  <0> d          -0.713   7.593   1.123  0.00  0.00     0.157 HD
ATOM     16  H7  <0> d          -1.639   7.322   2.766  0.00  0.00     0.157 HD
ENDBRANCH   4  14
TORSDOF 3
