REMARK  1 active torsions:
REMARK  status: ('A' for Active; 'I' for Inactive)
REMARK    1  A    between atoms: C3_3  and  O1_11 
ROOT
ATOM      1  C1  <0> d          -0.013   1.076   0.008  0.00  0.00    -0.070 A 
ATOM      2  C2  <0> d          -1.198   1.745   0.017  0.00  0.00    -0.050 A 
ATOM      3  C3  <0> d          -1.235   3.143   0.033  0.00  0.00     0.066 A 
ATOM      4  C4  <0> d          -0.082   3.877   0.025  0.00  0.00    -0.039 A 
ATOM      5  C5  <0> d           1.156   3.217   0.008  0.00  0.00    -0.006 A 
ATOM      6  C6  <0> d           1.190   1.798   0.000  0.00  0.00    -0.023 A 
ATOM      7  C7  <0> d           2.445   1.163  -0.016  0.00  0.00    -0.055 A 
ATOM      8  C8  <0> d           3.567   1.934  -0.022  0.00  0.00     0.003 A 
ATOM      9  N1  <0> d           3.507   3.259  -0.015  0.00  0.00    -0.272 NA
ATOM     10  C9  <0> d           2.373   3.918   0.000  0.00  0.00     0.013 A 
ATOM     11  H1  <0> d           0.002  -0.004   0.002  0.00  0.00     0.085 H 
ATOM     12  H2  <0> d          -2.123   1.188   0.018  0.00  0.00     0.087 H 
ATOM     13  H3  <0> d          -0.124   4.956   0.031  0.00  0.00     0.089 H 
ATOM     14  H4  <0> d           2.517   0.085  -0.022  0.00  0.00     0.087 H 
ATOM     15  H5  <0> d           4.534   1.452  -0.034  0.00  0.00     0.114 H 
ATOM     16  H6  <0> d           2.376   4.998   0.006  0.00  0.00     0.116 H 
ENDROOT
BRANCH   3  17
ATOM     17  O1  <0> d          -2.435   3.780   0.048  0.00  0.00    -0.361 OA
ATOM     18  H7  <0> d          -2.791   3.970  -0.830  0.00  0.00     0.217 HD
ENDBRANCH   3  17
TORSDOF 1
