REMARK  4 active torsions:
REMARK  status: ('A' for Active; 'I' for Inactive)
REMARK    1  A    between atoms: C1_1  and  C2_2 
REMARK    2  A    between atoms: C4_6  and  C6_10 
REMARK    3  A    between atoms: C4_6  and  C7_11 
REMARK    4  A    between atoms: C7_11  and  O4_12 
ROOT
ATOM      1  C2  <0> d           0.417   2.343   3.226  0.00  0.00     0.087 A 
ATOM      2  H1  <0> d           0.010   2.373   4.139  0.00  0.00     0.067 H 
ATOM      3  C3  <0> d          -0.003   1.082   2.498  0.00  0.00     0.176 A 
ATOM      4  O1  <0> d           0.196  -0.062   2.826  0.00  0.00    -0.294 OA
ATOM      5  C4  <0> d          -0.729   1.579   1.267  0.00  0.00     0.149 A 
ATOM      6  O2  <0> d          -0.715   3.027   1.304  0.00  0.00    -0.300 OA
ATOM      7  C5  <0> d          -0.084   3.489   2.384  0.00  0.00     0.271 A 
ATOM      8  O3  <0> d           0.066   4.659   2.650  0.00  0.00    -0.264 OA
ENDROOT
BRANCH   5   9
ATOM      9  C6  <0> d          -0.013   1.086   0.008  0.00  0.00    -0.038 C 
ATOM     10  H5  <0> d           0.002  -0.004   0.002  0.00  0.00     0.032 H 
ATOM     11  H6  <0> d           1.010   1.463   0.000  0.00  0.00     0.032 H 
ATOM     12  H7  <0> d          -0.540   1.447  -0.875  0.00  0.00     0.032 H 
ENDBRANCH   5   9
BRANCH   5  13
ATOM     13  C7  <0> d          -2.172   1.072   1.275  0.00  0.00     0.052 C 
ATOM     14  H8  <0> d          -2.175  -0.014   1.365  0.00  0.00     0.079 H 
ATOM     15  H9  <0> d          -2.706   1.508   2.119  0.00  0.00     0.079 H 
BRANCH  13  16
ATOM     16  O4  <0> d          -2.817   1.450   0.057  0.00  0.00    -0.397 OA
ATOM     17  H10 <0> d          -3.737   1.161  -0.007  0.00  0.00     0.209 HD
ENDBRANCH  13  16
ENDBRANCH   5  13
BRANCH   1  18
ATOM     18  C1  <0> d           1.941   2.401   3.344  0.00  0.00    -0.058 C 
ATOM     19  H2  <0> d           2.383   2.400   2.348  0.00  0.00     0.029 H 
ATOM     20  H3  <0> d           2.231   3.311   3.869  0.00  0.00     0.029 H 
ATOM     21  H4  <0> d           2.296   1.532   3.900  0.00  0.00     0.029 H 
ENDBRANCH   1  18
TORSDOF 4
