REMARK  4 active torsions:
REMARK  status: ('A' for Active; 'I' for Inactive)
REMARK    1  A    between atoms: C1_1  and  C2_2 
REMARK    2  A    between atoms: C2_2  and  C3_3 
REMARK    3  A    between atoms: C2_2  and  C4_4 
REMARK    4  A    between atoms: C4_4  and  C5_5 
ROOT
ATOM      1  C2  <0> d           0.826  -0.496  -1.190  0.00  0.00    -0.056 C 
ATOM      2  H4  <0> d           1.819  -0.049  -1.155  0.00  0.00     0.039 H 
ENDROOT
BRANCH   1   3
ATOM      3  C1  <0> d           0.951  -2.020  -1.129  0.00  0.00    -0.073 C 
ATOM      4  H1  <0> d          -0.042  -2.468  -1.163  0.00  0.00     0.028 H 
ATOM      5  H2  <0> d           1.537  -2.371  -1.978  0.00  0.00     0.028 H 
ATOM      6  H3  <0> d           1.447  -2.307  -0.201  0.00  0.00     0.028 H 
ENDBRANCH   1   3
BRANCH   1   7
ATOM      7  C3  <0> d           0.130  -0.094  -2.492  0.00  0.00    -0.073 C 
ATOM      8  H5  <0> d          -0.864  -0.542  -2.526  0.00  0.00     0.028 H 
ATOM      9  H6  <0> d           0.040   0.992  -2.535  0.00  0.00     0.028 H 
ATOM     10  H7  <0> d           0.716  -0.445  -3.341  0.00  0.00     0.028 H 
ENDBRANCH   1   7
BRANCH   1  11
ATOM     11  C4  <0> d           0.002  -0.004   0.002  0.00  0.00    -0.022 C 
ATOM     12  H8  <0> d           0.450  -0.366   0.927  0.00  0.00     0.043 H 
ATOM     13  H9  <0> d          -1.017  -0.381  -0.080  0.00  0.00     0.043 H 
BRANCH  11  14
ATOM     14  C5  <0> d          -0.018   1.503   0.010  0.00  0.00     0.041 A 
ATOM     15  N1  <0> d           1.103   2.192   0.003  0.00  0.00    -0.258 NA
ATOM     16  C7  <0> d           1.100   3.505   0.010  0.00  0.00     0.040 A 
ATOM     17  S1  <0> d          -0.599   3.867   0.029  0.00  0.00    -0.092 SA
ATOM     18  H11 <0> d           1.938   4.186   0.006  0.00  0.00     0.126 H 
ATOM     19  C6  <0> d          -1.194   2.182   0.019  0.00  0.00    -0.020 A 
ATOM     20  H10 <0> d          -2.207   1.808   0.022  0.00  0.00     0.098 H 
ENDBRANCH  11  14
ENDBRANCH   1  11
TORSDOF 4
