REMARK  2 active torsions:
REMARK  status: ('A' for Active; 'I' for Inactive)
REMARK    1  A    between atoms: C1_1  and  C2_2 
REMARK    2  A    between atoms: C4_4  and  C5_8 
ROOT
ATOM      1  C2  <0> d          -3.460   2.388   0.032  0.00  0.00     0.075 A 
ATOM      2  C3  <0> d          -2.592   1.348   0.022  0.00  0.00     0.095 A 
ATOM      3  C4  <0> d          -1.302   1.931   0.020  0.00  0.00     0.150 A 
ATOM      4  N1  <0> d          -1.468   3.239   0.033  0.00  0.00    -0.270 N 
ATOM      5  N2  <0> d          -2.721   3.526   0.035  0.00  0.00    -0.177 NA
ATOM      6  H1  <0> d          -0.593   3.905   0.040  0.00  0.00     0.189 HD
ATOM      7 Cl1  <0> d          -2.981  -0.344   0.015  0.00  0.00    -0.079 Cl
ENDROOT
BRANCH   1   8
ATOM      8  C1  <0> d          -4.964   2.299   0.038  0.00  0.00    -0.032 C 
ATOM      9  H2  <0> d          -5.392   3.312   0.046  0.00  0.00     0.035 H 
ATOM     10  H3  <0> d          -5.295   1.754   0.935  0.00  0.00     0.035 H 
ATOM     11  H4  <0> d          -5.303   1.764  -0.862  0.00  0.00     0.035 H 
ENDBRANCH   1   8
BRANCH   3  12
ATOM     12  C5  <0> d          -0.014   1.211   0.011  0.00  0.00     0.230 C 
ATOM     13  O1  <0> d           0.002  -0.004   0.004  0.00  0.00    -0.643 OA
ATOM     14  O2  <0> d           1.143   1.900   0.004  0.00  0.00    -0.643 OA
ENDBRANCH   3  12
TORSDOF 2
