REMARK  3 active torsions:
REMARK  status: ('A' for Active; 'I' for Inactive)
REMARK    1  A    between atoms: C1_1  and  C2_2 
REMARK    2  A    between atoms: C5_5  and  C8_9 
REMARK    3  A    between atoms: C7_7  and  O1_8 
ROOT
ATOM      1  C2  <0> d          -3.720   3.291   0.037  0.00  0.00    -0.029 A 
ATOM      2  C3  <0> d          -2.531   3.998   0.035  0.00  0.00    -0.074 A 
ATOM      3  C4  <0> d          -1.326   3.328   0.032  0.00  0.00    -0.066 A 
ATOM      4  C5  <0> d          -1.304   1.932   0.019  0.00  0.00     0.043 A 
ATOM      5  C6  <0> d          -2.504   1.220   0.021  0.00  0.00    -0.034 A 
ATOM      6  C7  <0> d          -3.709   1.903   0.030  0.00  0.00     0.072 A 
ATOM      7  H4  <0> d          -2.547   5.078   0.041  0.00  0.00     0.084 H 
ATOM      8  H5  <0> d          -0.399   3.883   0.036  0.00  0.00     0.085 H 
ATOM      9  H6  <0> d          -2.494   0.140   0.015  0.00  0.00     0.089 H 
ENDROOT
BRANCH   1  10
ATOM     10  C1  <0> d          -5.033   4.031   0.048  0.00  0.00    -0.049 C 
ATOM     11  H1  <0> d          -5.345   4.204   1.078  0.00  0.00     0.033 H 
ATOM     12  H2  <0> d          -4.915   4.988  -0.462  0.00  0.00     0.033 H 
ATOM     13  H3  <0> d          -5.789   3.437  -0.466  0.00  0.00     0.033 H 
ENDBRANCH   1  10
BRANCH   6  14
ATOM     14  O1  <0> d          -4.880   1.214   0.031  0.00  0.00    -0.360 OA
ATOM     15  H7  <0> d          -5.215   1.010   0.915  0.00  0.00     0.217 HD
ENDBRANCH   6  14
BRANCH   4  16
ATOM     16  C8  <0> d          -0.014   1.210   0.009  0.00  0.00     0.209 C 
ATOM     17  O2  <0> d           0.002  -0.004   0.002  0.00  0.00    -0.644 OA
ATOM     18  O3  <0> d           1.143   1.900   0.001  0.00  0.00    -0.644 OA
ENDBRANCH   4  16
TORSDOF 3
