REMARK  1 active torsions:
REMARK  status: ('A' for Active; 'I' for Inactive)
REMARK    1  A    between atoms: C1_1  and  C2_2 
ROOT
ATOM      1  C2  <0> d           0.029   4.068   0.023  0.00  0.00     0.032 A 
ATOM      2  C3  <0> d          -1.193   3.422   0.030  0.00  0.00    -0.035 A 
ATOM      3  C4  <0> d          -1.224   2.035   0.019  0.00  0.00     0.075 A 
ATOM      4  C5  <0> d          -0.016   1.347   0.009  0.00  0.00     0.155 A 
ATOM      5  C6  <0> d           1.167   2.064   0.002  0.00  0.00     0.041 A 
ATOM      6  N1  <0> d           1.156   3.383   0.009  0.00  0.00    -0.263 NA
ATOM      7  F1  <0> d           0.002  -0.004   0.002  0.00  0.00    -0.203 F 
ATOM      8 Cl1  <0> d          -2.735   1.180   0.022  0.00  0.00    -0.081 Cl
ATOM      9  H4  <0> d          -2.111   3.990   0.042  0.00  0.00     0.089 H 
ATOM     10  H5  <0> d           2.110   1.538  -0.010  0.00  0.00     0.119 H 
ENDROOT
BRANCH   1  11
ATOM     11  C1  <0> d           0.074   5.574   0.030  0.00  0.00    -0.035 C 
ATOM     12  H1  <0> d          -0.952   5.972   0.042  0.00  0.00     0.035 H 
ATOM     13  H2  <0> d           0.595   5.930  -0.871  0.00  0.00     0.035 H 
ATOM     14  H3  <0> d           0.611   5.921   0.925  0.00  0.00     0.035 H 
ENDBRANCH   1  11
TORSDOF 1
