REMARK  4 active torsions:
REMARK  status: ('A' for Active; 'I' for Inactive)
REMARK    1  A    between atoms: C1_1  and  C2_2 
REMARK    2  A    between atoms: C2_2  and  C3_4 
REMARK    3  A    between atoms: C2_2  and  O2_7 
REMARK    4  A    between atoms: C3_4  and  C4_6 
ROOT
ATOM      1  C2  <0> d          -0.013   1.086   0.008  0.00  0.00     0.089 C 
ATOM      2  H1  <0> d           0.001   0.086   0.002  0.00  0.00     0.094 H 
ENDROOT
BRANCH   1   3
ATOM      3  C1  <0> d          -0.753   1.593  -1.232  0.00  0.00    -0.046 C 
ATOM      4  H2  <0> d          -0.242   1.241  -2.128  0.00  0.00     0.031 H 
ATOM      5  H3  <0> d          -1.775   1.215  -1.224  0.00  0.00     0.031 H 
ATOM      6  H4  <0> d          -0.767   2.683  -1.226  0.00  0.00     0.031 H 
ENDBRANCH   1   3
BRANCH   1   7
ATOM      7  C3  <0> d           1.401   1.607  -0.003  0.00  0.00     0.151 C 
ATOM      8  O1  <0> d           1.719   2.506   0.739  0.00  0.00    -0.296 OA
BRANCH   7   9
ATOM      9  C4  <0> d           2.419   1.007  -0.939  0.00  0.00    -0.018 C 
ATOM     10  H5  <0> d           1.990   0.281  -1.476  0.00  0.00     0.037 H 
ATOM     11  H6  <0> d           2.796   1.780  -1.608  0.00  0.00     0.037 H 
ATOM     12  H7  <0> d           3.244   0.593  -0.360  0.00  0.00     0.037 H 
ENDBRANCH   7   9
ENDBRANCH   1   7
BRANCH   1  13
ATOM     13  O2  <0> d          -0.682   1.547   1.184  0.00  0.00    -0.388 OA
ATOM     14  H8  <0> d          -0.732   2.510   1.256  0.00  0.00     0.210 HD
ENDBRANCH   1  13
TORSDOF 4
