REMARK  9 active torsions:
REMARK  status: ('A' for Active; 'I' for Inactive)
REMARK    1  A    between atoms: C1_1  and  C2_2 
REMARK    2  A    between atoms: C2_2  and  C3_3 
REMARK    3  A    between atoms: C3_3  and  C4_4 
REMARK    4  A    between atoms: C4_4  and  C5_5 
REMARK    5  A    between atoms: C5_5  and  C6_6 
REMARK    6  A    between atoms: C6_6  and  C7_7 
REMARK    7  A    between atoms: C7_7  and  O1_8 
REMARK    8  A    between atoms: O1_8  and  C8_9 
REMARK    9  A    between atoms: C8_9  and  C9_10 
ROOT
ATOM      1  C4  <0> d          -1.413  -2.063   0.004  0.00  0.00    -0.051 C 
ATOM      2  H8  <0> d          -0.902  -2.415  -0.892  0.00  0.00     0.034 H 
ATOM      3  H9  <0> d          -0.885  -2.425   0.887  0.00  0.00     0.034 H 
ENDROOT
BRANCH   1   4
ATOM      4  C3  <0> d          -1.433  -0.534   0.013  0.00  0.00    -0.064 C 
ATOM      5  H6  <0> d          -1.944  -0.182   0.910  0.00  0.00     0.033 H 
ATOM      6  H7  <0> d          -1.960  -0.173  -0.870  0.00  0.00     0.033 H 
BRANCH   4   7
ATOM      7  C2  <0> d           0.002  -0.004   0.002  0.00  0.00    -0.069 C 
ATOM      8  H4  <0> d           0.512  -0.356  -0.895  0.00  0.00     0.032 H 
ATOM      9  H5  <0> d           0.529  -0.365   0.885  0.00  0.00     0.032 H 
BRANCH   7  10
ATOM     10  C1  <0> d          -0.019   1.526   0.010  0.00  0.00    -0.077 C 
ATOM     11  H1  <0> d           1.004   1.903   0.003  0.00  0.00     0.027 H 
ATOM     12  H2  <0> d          -0.546   1.887  -0.873  0.00  0.00     0.027 H 
ATOM     13  H3  <0> d          -0.529   1.877   0.907  0.00  0.00     0.027 H 
ENDBRANCH   7  10
ENDBRANCH   4   7
ENDBRANCH   1   4
BRANCH   1  14
ATOM     14  C5  <0> d          -2.826  -2.585   0.015  0.00  0.00     0.009 C 
ATOM     15  H10 <0> d          -3.511  -2.273   0.790  0.00  0.00     0.060 H 
BRANCH  14  16
ATOM     16  C6  <0> d          -3.224  -3.415  -0.913  0.00  0.00    -0.142 C 
BRANCH  16  17
ATOM     17  C7  <0> d          -3.621  -4.246  -1.841  0.00  0.00     0.120 C 
ATOM     18  H11 <0> d          -3.515  -5.310  -1.694  0.00  0.00     0.107 H 
BRANCH  17  19
ATOM     19  O1  <0> d          -4.165  -3.771  -2.985  0.00  0.00    -0.371 OA
BRANCH  19  20
ATOM     20  C8  <0> d          -4.577  -4.736  -3.956  0.00  0.00     0.018 C 
ATOM     21  H12 <0> d          -3.718  -5.330  -4.265  0.00  0.00     0.073 H 
ATOM     22  H13 <0> d          -5.333  -5.389  -3.521  0.00  0.00     0.073 H 
BRANCH  20  23
ATOM     23  C9  <0> d          -5.163  -4.016  -5.172  0.00  0.00    -0.056 C 
ATOM     24  H14 <0> d          -5.478  -4.752  -5.913  0.00  0.00     0.030 H 
ATOM     25  H15 <0> d          -6.023  -3.422  -4.863  0.00  0.00     0.030 H 
ATOM     26  H16 <0> d          -4.407  -3.363  -5.607  0.00  0.00     0.030 H 
ENDBRANCH  20  23
ENDBRANCH  19  20
ENDBRANCH  17  19
ENDBRANCH  16  17
ENDBRANCH  14  16
ENDBRANCH   1  14
TORSDOF 9
