REMARK  4 active torsions:
REMARK  status: ('A' for Active; 'I' for Inactive)
REMARK    1  A    between atoms: C2_2  and  C6_11 
REMARK    2  A    between atoms: C3_5  and  C5_9 
REMARK    3  A    between atoms: C5_9  and  O3_10 
REMARK    4  A    between atoms: C6_11  and  O4_12 
ROOT
ATOM      1  C1  <0> d          -0.673   3.532   3.607  0.00  0.00     0.045 C 
ATOM      2  C2  <0> d          -0.548   2.006   3.654  0.00  0.00     0.080 C 
ATOM      3  H1  <0> d           0.140   1.683   4.449  0.00  0.00     0.089 H 
ATOM      4  O1  <0> d           0.021   1.544   2.425  0.00  0.00    -0.372 OA
ATOM      5  C3  <0> d          -0.733   1.918   1.269  0.00  0.00     0.080 C 
ATOM      6  H2  <0> d          -1.717   1.437   1.377  0.00  0.00     0.089 H 
ATOM      7  C4  <0> d          -0.858   3.444   1.222  0.00  0.00     0.045 C 
ATOM      8  O2  <0> d          -1.427   3.906   2.450  0.00  0.00    -0.386 OA
ATOM      9  H3  <0> d           0.329   3.983   3.554  0.00  0.00     0.078 H 
ATOM     10  H4  <0> d          -1.188   3.889   4.512  0.00  0.00     0.078 H 
ATOM     11  H5  <0> d           0.139   3.889   1.085  0.00  0.00     0.078 H 
ATOM     12  H6  <0> d          -1.507   3.733   0.382  0.00  0.00     0.078 H 
ENDROOT
BRANCH   2  13
ATOM     13  C6  <0> d          -1.934   1.386   3.841  0.00  0.00     0.043 C 
ATOM     14  H10 <0> d          -2.407   1.810   4.739  0.00  0.00     0.078 H 
ATOM     15  H11 <0> d          -2.556   1.605   2.961  0.00  0.00     0.078 H 
BRANCH  13  16
ATOM     16  O4  <0> d          -1.806  -0.029   3.994  0.00  0.00    -0.398 OA
ATOM     17  H12 <0> d          -2.702  -0.650   4.140  0.00  0.00     0.209 HD
ENDBRANCH  13  16
ENDBRANCH   2  13
BRANCH   5  18
ATOM     18  C5  <0> d          -0.017   1.425   0.010  0.00  0.00     0.043 C 
ATOM     19  H7  <0> d          -0.549   1.789  -0.881  0.00  0.00     0.078 H 
ATOM     20  H8  <0> d           1.015   1.806   0.002  0.00  0.00     0.078 H 
BRANCH  18  21
ATOM     21  O3  <0> d           0.002  -0.004   0.002  0.00  0.00    -0.398 OA
ATOM     22  H9  <0> d           0.478  -0.543  -0.831  0.00  0.00     0.209 HD
ENDBRANCH  18  21
ENDBRANCH   5  18
TORSDOF 4
