REMARK  4 active torsions:
REMARK  status: ('A' for Active; 'I' for Inactive)
REMARK    1  A    between atoms: C1_1  and  C2_2 
REMARK    2  A    between atoms: C4_4  and  N3_10 
REMARK    3  A    between atoms: N1_5  and  C5_7 
REMARK    4  A    between atoms: C5_7  and  C6_8 
ROOT
ATOM      1  C2  <0> d          -3.982  -0.398   0.754  0.00  0.00     0.054 A 
ATOM      2  C3  <0> d          -4.001  -0.402  -0.643  0.00  0.00    -0.014 A 
ATOM      3  C4  <0> d          -3.037   0.457  -1.075  0.00  0.00     0.120 A 
ATOM      4  N1  <0> d          -2.430   0.973   0.019  0.00  0.00    -0.244 N 
ATOM      5  N2  <0> d          -3.044   0.423   1.151  0.00  0.00    -0.175 NA
ATOM      6  H4  <0> d          -4.665  -0.980  -1.269  0.00  0.00     0.092 H 
ENDROOT
BRANCH   4   7
ATOM      7  C5  <0> d          -1.329   1.940   0.019  0.00  0.00     0.098 C 
ATOM      8  H5  <0> d          -1.391   2.561   0.913  0.00  0.00     0.084 H 
ATOM      9  H6  <0> d          -1.400   2.570  -0.867  0.00  0.00     0.084 H 
BRANCH   7  10
ATOM     10  C6  <0> d          -0.014   1.204   0.009  0.00  0.00     0.193 C 
ATOM     11  O1  <0> d           0.002  -0.004   0.002  0.00  0.00    -0.647 OA
ATOM     12  O2  <0> d           1.139   1.891   0.001  0.00  0.00    -0.647 OA
ENDBRANCH   7  10
ENDBRANCH   4   7
BRANCH   3  13
ATOM     13  N3  <0> d          -2.729   0.750  -2.401  0.00  0.00    -0.384 N 
ATOM     14  H7  <0> d          -2.018   1.377  -2.607  0.00  0.00     0.157 HD
ATOM     15  H8  <0> d          -3.224   0.325  -3.118  0.00  0.00     0.157 HD
ENDBRANCH   3  13
BRANCH   1  16
ATOM     16  C1  <0> d          -4.888  -1.202   1.651  0.00  0.00    -0.034 C 
ATOM     17  H1  <0> d          -5.785  -0.624   1.875  0.00  0.00     0.035 H 
ATOM     18  H2  <0> d          -5.169  -2.128   1.148  0.00  0.00     0.035 H 
ATOM     19  H3  <0> d          -4.366  -1.437   2.579  0.00  0.00     0.035 H 
ENDBRANCH   1  16
TORSDOF 4
