REMARK  4 active torsions:
REMARK  status: ('A' for Active; 'I' for Inactive)
REMARK    1  A    between atoms: C1_1  and  C2_2 
REMARK    2  A    between atoms: C2_2  and  C3_3 
REMARK    3  A    between atoms: C2_2  and  C4_4 
REMARK    4  A    between atoms: C5_5  and  C7_9 
ROOT
ATOM      1  C2  <0> d          -0.019   1.526   0.010  0.00  0.00    -0.011 C 
ATOM      2  H4  <0> d          -0.546   1.887  -0.873  0.00  0.00     0.049 H 
ENDROOT
BRANCH   1   3
ATOM      3  C1  <0> d           0.002  -0.004   0.002  0.00  0.00    -0.067 C 
ATOM      4  H1  <0> d           0.529  -0.365   0.885  0.00  0.00     0.028 H 
ATOM      5  H2  <0> d          -1.020  -0.381   0.010  0.00  0.00     0.028 H 
ATOM      6  H3  <0> d           0.512  -0.356  -0.895  0.00  0.00     0.028 H 
ENDBRANCH   1   3
BRANCH   1   7
ATOM      7  C3  <0> d           1.417   2.055  -0.000  0.00  0.00    -0.067 C 
ATOM      8  H5  <0> d           1.944   1.694   0.883  0.00  0.00     0.028 H 
ATOM      9  H6  <0> d           1.927   1.704  -0.897  0.00  0.00     0.028 H 
ATOM     10  H7  <0> d           1.402   3.145   0.006  0.00  0.00     0.028 H 
ENDBRANCH   1   7
BRANCH   1  11
ATOM     11  C4  <0> d          -0.724   2.012   1.250  0.00  0.00     0.100 A 
ATOM     12  O1  <0> d          -0.377   1.768   2.516  0.00  0.00    -0.217 OA
ATOM     13  N1  <0> d          -1.116   2.283   3.318  0.00  0.00    -0.140 NA
ATOM     14  C6  <0> d          -2.079   2.945   2.749  0.00  0.00     0.048 A 
ATOM     15  C5  <0> d          -1.856   2.789   1.303  0.00  0.00     0.092 A 
ATOM     16  H8  <0> d          -2.875   3.491   3.234  0.00  0.00     0.119 H 
BRANCH  15  17
ATOM     17  C7  <0> d          -2.649   3.333   0.188  0.00  0.00     0.213 C 
ATOM     18  O2  <0> d          -2.320   3.106  -0.960  0.00  0.00    -0.644 OA
ATOM     19  O3  <0> d          -3.740   4.083   0.440  0.00  0.00    -0.644 OA
ENDBRANCH  15  17
ENDBRANCH   1  11
TORSDOF 4
