REMARK  1 active torsions:
REMARK  status: ('A' for Active; 'I' for Inactive)
REMARK    1  A    between atoms: C4_5  and  C6_7 
ROOT
ATOM      1  C6  <0> d          -0.018   1.468   0.010  0.00  0.00     0.054 C 
ATOM      2  C7  <0> d           0.002  -0.004   0.002  0.00  0.00     0.065 C 
ATOM      3  N2  <0> d           0.018  -1.140  -0.004  0.00  0.00    -0.197 NA
ATOM      4  H5  <0> d          -0.545   1.829  -0.873  0.00  0.00     0.064 H 
ATOM      5  H6  <0> d          -0.528   1.819   0.907  0.00  0.00     0.064 H 
ENDROOT
BRANCH   1   6
ATOM      6  C4  <0> d           1.396   1.989  -0.001  0.00  0.00     0.047 A 
ATOM      7  N1  <0> d           2.242   1.597   0.931  0.00  0.00    -0.265 NA
ATOM      8  C3  <0> d           3.490   2.024   0.959  0.00  0.00     0.003 A 
ATOM      9  C2  <0> d           3.954   2.913   0.009  0.00  0.00    -0.066 A 
ATOM     10  H3  <0> d           4.155   1.677   1.736  0.00  0.00     0.114 H 
ATOM     11  C1  <0> d           3.091   3.352  -0.985  0.00  0.00    -0.080 A 
ATOM     12  H2  <0> d           4.976   3.262   0.039  0.00  0.00     0.085 H 
ATOM     13  C5  <0> d           1.789   2.878  -0.984  0.00  0.00    -0.058 A 
ATOM     14  H1  <0> d           3.427   4.046  -1.741  0.00  0.00     0.083 H 
ATOM     15  H4  <0> d           1.090   3.199  -1.742  0.00  0.00     0.086 H 
ENDBRANCH   1   6
TORSDOF 1
