REMARK  0 active torsions:
REMARK  status: ('A' for Active; 'I' for Inactive)
ROOT
ATOM      1  C1  <0> d          -0.013   1.086   0.008  0.00  0.00     0.016 C 
ATOM      2  C2  <0> d          -0.901   1.665   1.107  0.00  0.00     0.061 C 
ATOM      3  S1  <0> d          -1.147   2.995  -0.095  0.00  0.00     0.228 S 
ATOM      4  O1  <0> d          -0.040   3.878  -0.213  0.00  0.00    -0.206 OA
ATOM      5  O2  <0> d          -2.501   3.406  -0.229  0.00  0.00    -0.206 OA
ATOM      6  N1  <0> d          -0.883   1.651  -1.022  0.00  0.00    -0.319 N 
ATOM      7  H1  <0> d           0.022  -0.008  -0.101  0.00  0.00     0.066 H 
ATOM      8  H2  <0> d           1.001   1.498  -0.102  0.00  0.00     0.066 H 
ATOM      9  H3  <0> d          -1.714   0.958   1.332  0.00  0.00     0.061 H 
ATOM     10  H4  <0> d          -0.301   1.834   2.013  0.00  0.00     0.061 H 
ATOM     11  H5  <0> d          -0.938   1.180  -2.014  0.00  0.00     0.172 HD
ENDROOT
TORSDOF 0
