REMARK  0 active torsions:
REMARK  status: ('A' for Active; 'I' for Inactive)
ROOT
ATOM      1  C1  <0> d          -4.077   2.983   2.258  0.00  0.00    -0.061 C 
ATOM      2  C2  <0> d          -4.920   2.047   1.384  0.00  0.00    -0.060 C 
ATOM      3  C3  <0> d          -4.290   1.998  -0.007  0.00  0.00    -0.026 C 
ATOM      4  C4  <0> d          -2.816   1.706   0.087  0.00  0.00     0.015 C 
ATOM      5  C5  <0> d          -2.105   1.854   1.223  0.00  0.00     0.010 C 
ATOM      6  C6  <0> d          -2.730   2.313   2.517  0.00  0.00    -0.036 C 
ATOM      7  C7  <0> d          -0.722   1.574   1.242  0.00  0.00     0.159 C 
ATOM      8  O1  <0> d          -0.092   1.729   2.270  0.00  0.00    -0.293 OA
ATOM      9  C8  <0> d          -0.013   1.086   0.008  0.00  0.00     0.009 C 
ATOM     10  C9  <0> d          -0.760   1.597  -1.231  0.00  0.00    -0.001 C 
ATOM     11  N1  <0> d          -2.183   1.278  -1.054  0.00  0.00    -0.392 N 
ATOM     12  H1  <0> d          -4.586   3.165   3.216  0.00  0.00     0.033 H 
ATOM     13  H2  <0> d          -3.917   3.941   1.741  0.00  0.00     0.033 H 
ATOM     14  H3  <0> d          -4.933   1.042   1.829  0.00  0.00     0.033 H 
ATOM     15  H4  <0> d          -5.949   2.433   1.319  0.00  0.00     0.033 H 
ATOM     16  H5  <0> d          -4.772   1.207  -0.600  0.00  0.00     0.042 H 
ATOM     17  H6  <0> d          -4.429   2.968  -0.507  0.00  0.00     0.042 H 
ATOM     18  H7  <0> d          -2.052   3.028   3.005  0.00  0.00     0.040 H 
ATOM     19  H8  <0> d          -2.874   1.440   3.171  0.00  0.00     0.040 H 
ATOM     20  H9  <0> d           1.019   1.468   0.003  0.00  0.00     0.047 H 
ATOM     21  H10 <0> d           0.003  -0.014   0.005  0.00  0.00     0.047 H 
ATOM     22  H11 <0> d          -0.619   2.684  -1.321  0.00  0.00     0.064 H 
ATOM     23  H12 <0> d          -0.365   1.099  -2.129  0.00  0.00     0.064 H 
ATOM     24  H13 <0> d          -2.719   0.708  -1.828  0.00  0.00     0.159 HD
ENDROOT
TORSDOF 0
