REMARK  4 active torsions:
REMARK  status: ('A' for Active; 'I' for Inactive)
REMARK    1  A    between atoms: C1_1  and  C2_2 
REMARK    2  A    between atoms: C4_4  and  C9_10 
REMARK    3  A    between atoms: C5_5  and  N1_9 
REMARK    4  A    between atoms: C6_6  and  C8_8 
ROOT
ATOM      1  C2  <0> d           1.176   1.783   0.000  0.00  0.00    -0.061 A 
ATOM      2  C3  <0> d          -0.013   1.076   0.008  0.00  0.00    -0.069 A 
ATOM      3  C4  <0> d          -1.218   1.749   0.017  0.00  0.00    -0.035 A 
ATOM      4  C5  <0> d          -1.236   3.138   0.031  0.00  0.00     0.037 A 
ATOM      5  C6  <0> d          -0.040   3.845   0.023  0.00  0.00    -0.035 A 
ATOM      6  C7  <0> d           1.162   3.166   0.008  0.00  0.00    -0.069 A 
ATOM      7  H4  <0> d           0.002  -0.004   0.002  0.00  0.00     0.085 H 
ATOM      8  H5  <0> d           2.092   3.715   0.002  0.00  0.00     0.085 H 
ENDROOT
BRANCH   1   9
ATOM      9  C1  <0> d           2.490   1.044  -0.016  0.00  0.00    -0.051 C 
ATOM     10  H1  <0> d           2.797   0.872  -1.047  0.00  0.00     0.033 H 
ATOM     11  H2  <0> d           3.247   1.640   0.494  0.00  0.00     0.033 H 
ATOM     12  H3  <0> d           2.375   0.088   0.494  0.00  0.00     0.033 H 
ENDBRANCH   1   9
BRANCH   5  13
ATOM     13  C8  <0> d          -0.055   5.352   0.031  0.00  0.00    -0.049 C 
ATOM     14  H6  <0> d          -0.069   5.721  -0.995  0.00  0.00     0.033 H 
ATOM     15  H7  <0> d          -0.943   5.704   0.555  0.00  0.00     0.033 H 
ATOM     16  H8  <0> d           0.837   5.721   0.538  0.00  0.00     0.033 H 
ENDBRANCH   5  13
BRANCH   3  17
ATOM     17  C9  <0> d          -2.513   0.978   0.019  0.00  0.00    -0.049 C 
ATOM     18  H11 <0> d          -2.820   0.787   1.047  0.00  0.00     0.033 H 
ATOM     19  H12 <0> d          -3.283   1.560  -0.488  0.00  0.00     0.033 H 
ATOM     20  H13 <0> d          -2.372   0.030  -0.500  0.00  0.00     0.033 H 
ENDBRANCH   3  17
BRANCH   4  21
ATOM     21  N1  <0> d          -2.454   3.822   0.046  0.00  0.00    -0.398 N 
ATOM     22  H9  <0> d          -2.465   4.792   0.052  0.00  0.00     0.156 HD
ATOM     23  H10 <0> d          -3.288   3.328   0.052  0.00  0.00     0.156 HD
ENDBRANCH   4  21
TORSDOF 4
