REMARK  0 active torsions:
REMARK  status: ('A' for Active; 'I' for Inactive)
ROOT
ATOM      1  C1  <0> d           2.375   1.358   0.001  0.00  0.00    -0.065 A 
ATOM      2  C2  <0> d           1.187   2.070   0.002  0.00  0.00    -0.073 A 
ATOM      3  C3  <0> d          -0.017   1.371   0.010  0.00  0.00    -0.026 A 
ATOM      4  C4  <0> d           0.002  -0.004   0.002  0.00  0.00     0.041 A 
ATOM      5  N1  <0> d           1.165  -0.648   0.009  0.00  0.00    -0.265 NA
ATOM      6  C5  <0> d           2.321  -0.023   0.008  0.00  0.00     0.003 A 
ATOM      7  C6  <0> d          -1.243  -0.851  -0.035  0.00  0.00    -0.018 C 
ATOM      8  C7  <0> d          -2.458  -0.079   0.473  0.00  0.00    -0.004 C 
ATOM      9  C8  <0> d          -2.469   1.271  -0.216  0.00  0.00     0.131 C 
ATOM     10  O1  <0> d          -3.377   1.605  -0.938  0.00  0.00    -0.298 OA
ATOM     11  C9  <0> d          -1.289   2.178   0.044  0.00  0.00     0.016 C 
ATOM     12  H1  <0> d           3.325   1.873  -0.005  0.00  0.00     0.085 H 
ATOM     13  H2  <0> d           1.195   3.150  -0.003  0.00  0.00     0.084 H 
ATOM     14  H3  <0> d           3.238  -0.593   0.014  0.00  0.00     0.114 H 
ATOM     15  H4  <0> d          -1.439  -1.169  -1.070  0.00  0.00     0.043 H 
ATOM     16  H5  <0> d          -1.102  -1.738   0.600  0.00  0.00     0.043 H 
ATOM     17  H6  <0> d          -3.374  -0.638   0.234  0.00  0.00     0.044 H 
ATOM     18  H7  <0> d          -2.381   0.049   1.563  0.00  0.00     0.044 H 
ATOM     19  H8  <0> d          -1.399   2.647   1.033  0.00  0.00     0.051 H 
ATOM     20  H9  <0> d          -1.250   2.958  -0.730  0.00  0.00     0.051 H 
ENDROOT
TORSDOF 0
