REMARK  1 active torsions:
REMARK  status: ('A' for Active; 'I' for Inactive)
REMARK    1  A    between atoms: C7_9  and  O1_11 
ROOT
ATOM      1  C1  <0> d          -0.017   1.383   0.010  0.00  0.00    -0.079 A 
ATOM      2  C2  <0> d           1.150   2.094   0.002  0.00  0.00    -0.071 A 
ATOM      3  C3  <0> d           2.375   1.422  -0.013  0.00  0.00    -0.005 A 
ATOM      4  C4  <0> d           3.774   1.855  -0.024  0.00  0.00    -0.056 A 
ATOM      5  C5  <0> d           4.529   0.746  -0.037  0.00  0.00    -0.022 A 
ATOM      6  N1  <0> d           3.728  -0.363  -0.035  0.00  0.00    -0.363 N 
ATOM      7  H1  <0> d           4.045  -1.280  -0.043  0.00  0.00     0.165 HD
ATOM      8  C6  <0> d           2.404   0.017  -0.021  0.00  0.00     0.079 A 
ATOM      9  C7  <0> d           1.201  -0.691  -0.014  0.00  0.00     0.139 A 
ATOM     10  C8  <0> d           0.002  -0.004   0.002  0.00  0.00    -0.045 A 
ATOM     11  H2  <0> d          -0.962   1.906   0.026  0.00  0.00     0.083 H 
ATOM     12  H3  <0> d           1.126   3.174   0.008  0.00  0.00     0.084 H 
ATOM     13  H4  <0> d           4.130   2.875  -0.022  0.00  0.00     0.086 H 
ATOM     14  H5  <0> d           5.609   0.731  -0.047  0.00  0.00     0.111 H 
ATOM     15  H6  <0> d          -0.929  -0.552   0.008  0.00  0.00     0.088 H 
ENDROOT
BRANCH   9  16
ATOM     16  O1  <0> d           1.209  -2.051  -0.022  0.00  0.00    -0.153 OA
ATOM     17  F1  <0> d           1.222  -2.549   1.081  0.00  0.00    -0.042 F 
ENDBRANCH   9  16
TORSDOF 1
