REMARK  3 active torsions:
REMARK  status: ('A' for Active; 'I' for Inactive)
REMARK    1  A    between atoms: C1_1  and  C2_2 
REMARK    2  A    between atoms: C5_6  and  O1_8 
REMARK    3  A    between atoms: O1_8  and  C7_9 
ROOT
ATOM      1  C2  <0> d           2.391   0.012  -0.021  0.00  0.00    -0.057 A 
ATOM      2  C3  <0> d           1.197  -0.695  -0.013  0.00  0.00    -0.060 A 
ATOM      3  C4  <0> d           0.002  -0.004   0.002  0.00  0.00     0.005 A 
ATOM      4  N1  <0> d          -0.016   1.315   0.009  0.00  0.00    -0.237 NA
ATOM      5  C5  <0> d           1.100   2.025   0.002  0.00  0.00     0.164 A 
ATOM      6  C6  <0> d           2.339   1.395  -0.013  0.00  0.00    -0.026 A 
ATOM      7  H4  <0> d           1.202  -1.775  -0.019  0.00  0.00     0.086 H 
ATOM      8  H5  <0> d          -0.930  -0.550   0.008  0.00  0.00     0.114 H 
ATOM      9  H6  <0> d           3.248   1.977  -0.019  0.00  0.00     0.091 H 
ENDROOT
BRANCH   5  10
ATOM     10  O1  <0> d           1.036   3.380   0.010  0.00  0.00    -0.339 OA
BRANCH  10  11
ATOM     11  C7  <0> d          -0.267   3.967   0.025  0.00  0.00     0.012 C 
ATOM     12  H7  <0> d          -0.818   3.652  -0.862  0.00  0.00     0.067 H 
ATOM     13  H8  <0> d          -0.801   3.643   0.918  0.00  0.00     0.067 H 
ATOM     14  H9  <0> d          -0.176   5.053   0.030  0.00  0.00     0.067 H 
ENDBRANCH  10  11
ENDBRANCH   5  10
BRANCH   1  15
ATOM     15  C1  <0> d           3.714  -0.709  -0.038  0.00  0.00    -0.051 C 
ATOM     16  H1  <0> d           4.023  -0.877  -1.069  0.00  0.00     0.033 H 
ATOM     17  H2  <0> d           4.464  -0.104   0.472  0.00  0.00     0.033 H 
ATOM     18  H3  <0> d           3.612  -1.667   0.472  0.00  0.00     0.033 H 
ENDBRANCH   1  15
TORSDOF 3
