REMARK  5 active torsions:
REMARK  status: ('A' for Active; 'I' for Inactive)
REMARK    1  A    between atoms: C1_1  and  C2_2 
REMARK    2  A    between atoms: C3_3  and  C8_11 
REMARK    3  A    between atoms: C4_7  and  C5_8 
REMARK    4  A    between atoms: C5_8  and  C6_9 
REMARK    5  A    between atoms: C5_8  and  C7_10 
ROOT
ATOM      1  C2  <0> d          -1.273   0.764   2.246  0.00  0.00    -0.012 A 
ATOM      2  C3  <0> d          -1.812   1.574   3.186  0.00  0.00     0.032 A 
ATOM      3  N1  <0> d          -1.606   2.850   2.796  0.00  0.00    -0.282 N 
ATOM      4  H1  <0> d          -1.897   3.670   3.289  0.00  0.00     0.189 HD
ATOM      5  N2  <0> d          -0.912   2.822   1.580  0.00  0.00    -0.178 NA
ATOM      6  C4  <0> d          -0.718   1.572   1.248  0.00  0.00     0.066 A 
ENDROOT
BRANCH   6   7
ATOM      7  C5  <0> d          -0.013   1.086   0.008  0.00  0.00    -0.017 C 
ATOM      8  H5  <0> d           0.002  -0.004   0.002  0.00  0.00     0.048 H 
BRANCH   7   9
ATOM      9  C6  <0> d           1.423   1.615  -0.003  0.00  0.00    -0.068 C 
ATOM     10  H6  <0> d           1.408   2.705   0.003  0.00  0.00     0.028 H 
ATOM     11  H7  <0> d           1.950   1.254   0.880  0.00  0.00     0.028 H 
ATOM     12  H8  <0> d           1.933   1.264  -0.900  0.00  0.00     0.028 H 
ENDBRANCH   7   9
BRANCH   7  13
ATOM     13  C7  <0> d          -0.753   1.593  -1.232  0.00  0.00    -0.068 C 
ATOM     14  H9  <0> d          -0.242   1.241  -2.128  0.00  0.00     0.028 H 
ATOM     15  H10 <0> d          -1.775   1.215  -1.224  0.00  0.00     0.028 H 
ATOM     16  H11 <0> d          -0.767   2.683  -1.226  0.00  0.00     0.028 H 
ENDBRANCH   7  13
ENDBRANCH   6   7
BRANCH   1  17
ATOM     17  C1  <0> d          -1.271  -0.743   2.270  0.00  0.00    -0.047 C 
ATOM     18  H2  <0> d          -0.375  -1.097   2.781  0.00  0.00     0.033 H 
ATOM     19  H3  <0> d          -2.155  -1.099   2.798  0.00  0.00     0.033 H 
ATOM     20  H4  <0> d          -1.279  -1.123   1.248  0.00  0.00     0.033 H 
ENDBRANCH   1  17
BRANCH   2  21
ATOM     21  C8  <0> d          -2.518   1.132   4.441  0.00  0.00    -0.035 C 
ATOM     22  H12 <0> d          -1.794   1.034   5.250  0.00  0.00     0.035 H 
ATOM     23  H13 <0> d          -3.271   1.871   4.715  0.00  0.00     0.035 H 
ATOM     24  H14 <0> d          -3.001   0.170   4.267  0.00  0.00     0.035 H 
ENDBRANCH   2  21
TORSDOF 5
