REMARK  2 active torsions:
REMARK  status: ('A' for Active; 'I' for Inactive)
REMARK    1  A    between atoms: C5_5  and  C7_7 
REMARK    2  A    between atoms: C7_7  and  O1_8 
ROOT
ATOM      1  C1  <0> d          -0.237   5.016   0.030  0.00  0.00    -0.082 A 
ATOM      2  C2  <0> d           0.891   5.816   0.024  0.00  0.00    -0.081 A 
ATOM      3  C3  <0> d           2.147   5.240   0.009  0.00  0.00    -0.061 A 
ATOM      4  C4  <0> d           2.276   3.862   0.001  0.00  0.00     0.042 A 
ATOM      5  C5  <0> d           1.147   3.062   0.008  0.00  0.00    -0.013 A 
ATOM      6  C6  <0> d          -0.109   3.640   0.017  0.00  0.00    -0.073 A 
ATOM      7 Cl1  <0> d           3.853   3.137  -0.018  0.00  0.00    -0.084 Cl
ATOM      8  H1  <0> d          -1.218   5.467   0.041  0.00  0.00     0.083 H 
ATOM      9  H2  <0> d           0.790   6.891   0.030  0.00  0.00     0.083 H 
ATOM     10  H3  <0> d           3.028   5.864   0.004  0.00  0.00     0.086 H 
ATOM     11  H4  <0> d          -0.990   3.016   0.017  0.00  0.00     0.084 H 
ENDROOT
BRANCH   5  12
ATOM     12  C7  <0> d           1.286   1.562  -0.002  0.00  0.00     0.042 C 
ATOM     13  H5  <0> d           1.840   1.243   0.881  0.00  0.00     0.081 H 
ATOM     14  H6  <0> d           1.823   1.252  -0.899  0.00  0.00     0.081 H 
BRANCH  12  15
ATOM     15  O1  <0> d          -0.011   0.963   0.007  0.00  0.00    -0.396 OA
ATOM     16  H7  <0> d           0.002  -0.004   0.002  0.00  0.00     0.209 HD
ENDBRANCH  12  15
ENDBRANCH   5  12
TORSDOF 2
