REMARK  3 active torsions:
REMARK  status: ('A' for Active; 'I' for Inactive)
REMARK    1  A    between atoms: C1_1  and  C2_2 
REMARK    2  A    between atoms: C2_2  and  C3_3 
REMARK    3  A    between atoms: C3_3  and  C4_4 
ROOT
ATOM      1  C4  <0> d           0.018  -2.020  -1.249  0.00  0.00    -0.099 C 
ATOM      2  C5  <0> d           0.016  -2.602  -2.269  0.00  0.00    -0.153 C 
ATOM      3  H4  <0> d           0.014  -3.122  -3.181  0.00  0.00     0.166 H 
ENDROOT
BRANCH   1   4
ATOM      4  C3  <0> d           0.020  -1.311  -0.005  0.00  0.00     0.075 C 
ATOM      5  H3  <0> d           0.036  -1.856   0.927  0.00  0.00     0.081 H 
BRANCH   4   6
ATOM      6  C2  <0> d           0.002  -0.004   0.002  0.00  0.00    -0.163 C 
BRANCH   6   7
ATOM      7  C1  <0> d          -0.016   1.303   0.009  0.00  0.00    -0.010 C 
ATOM      8  H1  <0> d           0.912   1.855   0.003  0.00  0.00     0.051 H 
ATOM      9  H2  <0> d          -0.958   1.830   0.017  0.00  0.00     0.051 H 
ENDBRANCH   6   7
ENDBRANCH   4   6
ENDBRANCH   1   4
TORSDOF 3
