REMARK  2 active torsions:
REMARK  status: ('A' for Active; 'I' for Inactive)
REMARK    1  A    between atoms: C1_1  and  C2_2 
REMARK    2  A    between atoms: C4_5  and  C6_8 
ROOT
ATOM      1  C2  <0> d          -0.718   1.572   1.248  0.00  0.00     0.121 A 
ATOM      2  N1  <0> d          -2.021   1.772   1.204  0.00  0.00    -0.245 NA
ATOM      3  C3  <0> d          -2.680   2.193   2.269  0.00  0.00     0.022 A 
ATOM      4  C4  <0> d          -1.972   2.437   3.451  0.00  0.00     0.075 A 
ATOM      5  C5  <0> d          -0.589   2.215   3.450  0.00  0.00     0.022 A 
ATOM      6  N2  <0> d          -0.012   1.788   2.341  0.00  0.00    -0.245 NA
ATOM      7  H4  <0> d          -3.748   2.351   2.226  0.00  0.00     0.116 H 
ATOM      8  H5  <0> d          -0.004   2.390   4.341  0.00  0.00     0.116 H 
ENDROOT
BRANCH   1   9
ATOM      9  C1  <0> d          -0.013   1.086   0.008  0.00  0.00    -0.020 C 
ATOM     10  H1  <0> d           0.002  -0.004   0.002  0.00  0.00     0.037 H 
ATOM     11  H2  <0> d           1.010   1.463   0.000  0.00  0.00     0.037 H 
ATOM     12  H3  <0> d          -0.540   1.447  -0.875  0.00  0.00     0.037 H 
ENDBRANCH   1   9
BRANCH   4  13
ATOM     13  C6  <0> d          -2.663   2.914   4.667  0.00  0.00     0.212 C 
ATOM     14  O1  <0> d          -2.031   3.120   5.683  0.00  0.00    -0.644 OA
ATOM     15  O2  <0> d          -3.994   3.121   4.647  0.00  0.00    -0.644 OA
ENDBRANCH   4  13
TORSDOF 2
