REMARK  2 active torsions:
REMARK  status: ('A' for Active; 'I' for Inactive)
REMARK    1  A    between atoms: C1_1  and  C2_2 
REMARK    2  A    between atoms: C4_4  and  N3_8 
ROOT
ATOM      1  C2  <0> d           0.002  -0.004   0.002  0.00  0.00     0.025 A 
ATOM      2  C3  <0> d           0.008  -0.816  -1.136  0.00  0.00    -0.017 A 
ATOM      3  C4  <0> d           0.027  -2.113  -0.721  0.00  0.00     0.115 A 
ATOM      4  N1  <0> d           0.034  -2.110   0.631  0.00  0.00    -0.286 N 
ATOM      5  H1  <0> d           0.047  -2.892   1.204  0.00  0.00     0.188 HD
ATOM      6  N2  <0> d           0.023  -0.776   1.058  0.00  0.00    -0.304 N 
ATOM      7  H5  <0> d          -0.001  -0.476  -2.160  0.00  0.00     0.092 H 
ATOM      8  H8  <0> d           0.028  -0.475   1.981  0.00  0.00     0.186 HD
ENDROOT
BRANCH   1   9
ATOM      9  C1  <0> d          -0.018   1.503   0.010  0.00  0.00    -0.036 C 
ATOM     10  H2  <0> d           1.004   1.880   0.003  0.00  0.00     0.035 H 
ATOM     11  H3  <0> d          -0.545   1.864  -0.873  0.00  0.00     0.035 H 
ATOM     12  H4  <0> d          -0.529   1.854   0.907  0.00  0.00     0.035 H 
ENDBRANCH   1   9
BRANCH   3  13
ATOM     13  N3  <0> d           0.038  -3.238  -1.541  0.00  0.00    -0.384 N 
ATOM     14  H6  <0> d           0.032  -3.136  -2.506  0.00  0.00     0.157 HD
ATOM     15  H7  <0> d           0.052  -4.125  -1.147  0.00  0.00     0.157 HD
ENDBRANCH   3  13
TORSDOF 2
