REMARK  5 active torsions:
REMARK  status: ('A' for Active; 'I' for Inactive)
REMARK    1  A    between atoms: C1_1  and  C2_2 
REMARK    2  A    between atoms: C3_3  and  C9_11 
REMARK    3  A    between atoms: C4_4  and  O2_10 
REMARK    4  A    between atoms: C6_6  and  O1_9 
REMARK    5  A    between atoms: C7_7  and  C8_8 
ROOT
ATOM      1  C2  <0> d          -0.718   1.572   1.248  0.00  0.00    -0.045 A 
ATOM      2  C3  <0> d          -2.083   1.789   1.225  0.00  0.00    -0.022 A 
ATOM      3  C4  <0> d          -2.735   2.232   2.367  0.00  0.00     0.074 A 
ATOM      4  C5  <0> d          -2.015   2.466   3.528  0.00  0.00    -0.018 A 
ATOM      5  C6  <0> d          -0.646   2.253   3.547  0.00  0.00     0.074 A 
ATOM      6  C7  <0> d           0.002   1.805   2.404  0.00  0.00    -0.022 A 
ATOM      7  H4  <0> d          -2.521   2.814   4.417  0.00  0.00     0.092 H 
ENDROOT
BRANCH   1   8
ATOM      8  C1  <0> d          -0.013   1.086   0.008  0.00  0.00    -0.050 C 
ATOM      9  H1  <0> d           0.002  -0.004   0.002  0.00  0.00     0.033 H 
ATOM     10  H2  <0> d           1.010   1.463   0.000  0.00  0.00     0.033 H 
ATOM     11  H3  <0> d          -0.540   1.447  -0.875  0.00  0.00     0.033 H 
ENDBRANCH   1   8
BRANCH   6  12
ATOM     12  C8  <0> d           1.490   1.573   2.424  0.00  0.00    -0.048 C 
ATOM     13  H5  <0> d           2.005   2.490   2.136  0.00  0.00     0.033 H 
ATOM     14  H6  <0> d           1.800   1.283   3.428  0.00  0.00     0.033 H 
ATOM     15  H7  <0> d           1.744   0.778   1.722  0.00  0.00     0.033 H 
ENDBRANCH   6  12
BRANCH   2  16
ATOM     16  C9  <0> d          -2.863   1.539  -0.040  0.00  0.00    -0.048 C 
ATOM     17  H10 <0> d          -3.211   0.506  -0.054  0.00  0.00     0.033 H 
ATOM     18  H11 <0> d          -3.720   2.212  -0.076  0.00  0.00     0.033 H 
ATOM     19  H12 <0> d          -2.223   1.719  -0.903  0.00  0.00     0.033 H 
ENDBRANCH   2  16
BRANCH   5  20
ATOM     20  O1  <0> d           0.063   2.482   4.684  0.00  0.00    -0.360 OA
ATOM     21  H8  <0> d           0.401   3.385   4.761  0.00  0.00     0.217 HD
ENDBRANCH   5  20
BRANCH   3  22
ATOM     22  O2  <0> d          -4.078   2.440   2.345  0.00  0.00    -0.360 OA
ATOM     23  H9  <0> d          -4.332   3.337   2.087  0.00  0.00     0.217 HD
ENDBRANCH   3  22
TORSDOF 5
