REMARK  2 active torsions:
REMARK  status: ('A' for Active; 'I' for Inactive)
REMARK    1  A    between atoms: C2_2  and  N2_7 
REMARK    2  A    between atoms: C3_3  and  N1_6 
ROOT
ATOM      1  C1  <0> d          -0.016   1.354   0.009  0.00  0.00    -0.018 A 
ATOM      2  C2  <0> d           0.002  -0.004   0.002  0.00  0.00     0.059 A 
ATOM      3  C3  <0> d           1.228  -0.657  -0.013  0.00  0.00     0.059 A 
ATOM      4  C4  <0> d           2.366   0.085  -0.020  0.00  0.00    -0.018 A 
ATOM      5  S1  <0> d           1.724   1.751  -0.005  0.00  0.00    -0.109 SA
ATOM      6  H1  <0> d          -0.865   2.022   0.017  0.00  0.00     0.098 H 
ATOM      7  H2  <0> d           3.393  -0.247  -0.031  0.00  0.00     0.098 H 
ENDROOT
BRANCH   2   8
ATOM      8  N2  <0> d          -1.201  -0.738   0.009  0.00  0.00    -0.397 N 
ATOM      9  H5  <0> d          -2.053  -0.273   0.020  0.00  0.00     0.156 HD
ATOM     10  H6  <0> d          -1.178  -1.707   0.003  0.00  0.00     0.156 HD
ENDBRANCH   2   8
BRANCH   3  11
ATOM     11  N1  <0> d           1.290  -2.065  -0.021  0.00  0.00    -0.397 N 
ATOM     12  H3  <0> d           0.473  -2.587  -0.016  0.00  0.00     0.156 HD
ATOM     13  H4  <0> d           2.151  -2.512  -0.032  0.00  0.00     0.156 HD
ENDBRANCH   3  11
TORSDOF 2
