REMARK  1 active torsions:
REMARK  status: ('A' for Active; 'I' for Inactive)
REMARK    1  A    between atoms: C1_1  and  C2_2 
ROOT
ATOM      1  C2  <0> d          -1.234   2.204  -3.371  0.00  0.00     0.031 A 
ATOM      2  C3  <0> d          -2.512   2.612  -3.042  0.00  0.00    -0.059 A 
ATOM      3  C4  <0> d          -2.932   2.509  -1.726  0.00  0.00    -0.073 A 
ATOM      4  C5  <0> d          -2.049   1.997  -0.786  0.00  0.00    -0.033 A 
ATOM      5  C6  <0> d          -0.785   1.607  -1.186  0.00  0.00     0.041 A 
ATOM      6  N1  <0> d          -0.422   1.722  -2.453  0.00  0.00    -0.258 NA
ATOM      7  C7  <0> d          -0.013   1.086   0.008  0.00  0.00    -0.024 C 
ATOM      8  C8  <0> d          -0.776   1.604   1.245  0.00  0.00    -0.056 C 
ATOM      9  C9  <0> d          -2.214   1.766   0.700  0.00  0.00    -0.039 C 
ATOM     10  H4  <0> d          -3.174   3.006  -3.799  0.00  0.00     0.086 H 
ATOM     11  H5  <0> d          -3.925   2.820  -1.437  0.00  0.00     0.084 H 
ATOM     12  H6  <0> d           0.002  -0.004   0.002  0.00  0.00     0.042 H 
ATOM     13  H7  <0> d           1.005   1.477   0.000  0.00  0.00     0.042 H 
ATOM     14  H8  <0> d          -0.747   0.873   2.053  0.00  0.00     0.034 H 
ATOM     15  H9  <0> d          -0.376   2.563   1.574  0.00  0.00     0.034 H 
ATOM     16  H10 <0> d          -2.700   2.624   1.164  0.00  0.00     0.040 H 
ATOM     17  H11 <0> d          -2.792   0.860   0.880  0.00  0.00     0.040 H 
ENDROOT
BRANCH   1  18
ATOM     18  C1  <0> d          -0.763   2.310  -4.799  0.00  0.00    -0.035 C 
ATOM     19  H1  <0> d          -1.000   1.388  -5.330  0.00  0.00     0.035 H 
ATOM     20  H2  <0> d          -1.262   3.148  -5.285  0.00  0.00     0.035 H 
ATOM     21  H3  <0> d           0.315   2.471  -4.815  0.00  0.00     0.035 H 
ENDBRANCH   1  18
TORSDOF 1
