REMARK  6 active torsions:
REMARK  status: ('A' for Active; 'I' for Inactive)
REMARK    1  A    between atoms: C1_1  and  C2_2 
REMARK    2  A    between atoms: C2_2  and  C3_3 
REMARK    3  A    between atoms: C3_3  and  C4_4 
REMARK    4  A    between atoms: C4_4  and  C5_5 
REMARK    5  A    between atoms: C5_5  and  O2_12 
REMARK    6  A    between atoms: C9_9  and  O1_11 
ROOT
ATOM      1  C5  <0> d           1.353  -0.422  -0.604  0.00  0.00     0.084 C 
ATOM      2  C6  <0> d           2.107   0.881  -0.942  0.00  0.00    -0.034 C 
ATOM      3  C7  <0> d           1.477   1.939  -0.002  0.00  0.00    -0.060 C 
ATOM      4  C8  <0> d          -0.019   1.538   0.011  0.00  0.00    -0.038 C 
ATOM      5  C9  <0> d           0.002  -0.004   0.002  0.00  0.00     0.065 C 
ATOM      6  H1  <0> d          -0.084  -0.384   1.020  0.00  0.00     0.087 H 
ATOM      7  H11 <0> d           3.171   0.771  -0.735  0.00  0.00     0.037 H 
ATOM      8  H12 <0> d           1.948   1.153  -1.986  0.00  0.00     0.037 H 
ATOM      9  H13 <0> d           1.606   2.942  -0.408  0.00  0.00     0.033 H 
ATOM     10  H14 <0> d           1.904   1.868   0.999  0.00  0.00     0.033 H 
ATOM     11  H15 <0> d          -0.522   1.918  -0.878  0.00  0.00     0.036 H 
ATOM     12  H16 <0> d          -0.505   1.908   0.913  0.00  0.00     0.036 H 
ENDROOT
BRANCH   1  13
ATOM     13  C4  <0> d           1.127  -1.243  -1.875  0.00  0.00    -0.034 C 
ATOM     14  H9  <0> d           0.551  -2.136  -1.633  0.00  0.00     0.037 H 
ATOM     15  H10 <0> d           0.578  -0.643  -2.602  0.00  0.00     0.037 H 
BRANCH  13  16
ATOM     16  C3  <0> d           2.477  -1.651  -2.466  0.00  0.00    -0.063 C 
ATOM     17  H7  <0> d           3.053  -0.758  -2.708  0.00  0.00     0.033 H 
ATOM     18  H8  <0> d           3.026  -2.251  -1.740  0.00  0.00     0.033 H 
BRANCH  16  19
ATOM     19  C2  <0> d           2.250  -2.472  -3.737  0.00  0.00    -0.068 C 
ATOM     20  H5  <0> d           1.675  -3.365  -3.495  0.00  0.00     0.032 H 
ATOM     21  H6  <0> d           1.702  -1.872  -4.464  0.00  0.00     0.032 H 
BRANCH  19  22
ATOM     22  C1  <0> d           3.601  -2.881  -4.329  0.00  0.00    -0.077 C 
ATOM     23  H2  <0> d           3.439  -3.465  -5.234  0.00  0.00     0.027 H 
ATOM     24  H3  <0> d           4.177  -1.987  -4.571  0.00  0.00     0.027 H 
ATOM     25  H4  <0> d           4.149  -3.480  -3.602  0.00  0.00     0.027 H 
ENDBRANCH  19  22
ENDBRANCH  16  19
ENDBRANCH  13  16
ENDBRANCH   1  13
BRANCH   1  26
ATOM     26  O2  <0> d           2.100  -1.186   0.345  0.00  0.00    -0.387 OA
ATOM     27  H18 <0> d           2.963  -1.480   0.022  0.00  0.00     0.210 HD
ENDBRANCH   1  26
BRANCH   5  28
ATOM     28  O1  <0> d          -1.070  -0.504  -0.800  0.00  0.00    -0.393 OA
ATOM     29  H17 <0> d          -1.948  -0.256  -0.482  0.00  0.00     0.210 HD
ENDBRANCH   5  28
TORSDOF 6
