REMARK  3 active torsions:
REMARK  status: ('A' for Active; 'I' for Inactive)
REMARK    1  A    between atoms: C1_1  and  C2_2 
REMARK    2  A    between atoms: C3_3  and  S1_8 
REMARK    3  A    between atoms: S1_8  and  C6_10 
ROOT
ATOM      1  C2  <0> d           0.002  -0.004   0.002  0.00  0.00     0.068 A 
ATOM      2  C3  <0> d           0.006  -0.689  -1.200  0.00  0.00     0.146 A 
ATOM      3  N1  <0> d           0.024  -2.010  -1.207  0.00  0.00    -0.248 NA
ATOM      4  C4  <0> d           0.039  -2.677  -0.067  0.00  0.00     0.020 A 
ATOM      5  C5  <0> d           0.035  -1.992   1.135  0.00  0.00     0.019 A 
ATOM      6  N2  <0> d           0.022  -0.671   1.143  0.00  0.00    -0.262 NA
ATOM      7  H4  <0> d           0.054  -3.757  -0.072  0.00  0.00     0.117 H 
ATOM      8  H5  <0> d           0.047  -2.537   2.068  0.00  0.00     0.117 H 
ENDROOT
BRANCH   2   9
ATOM      9  S1  <0> d          -0.015   0.200  -2.721  0.00  0.00     0.066 S 
ATOM     10  O1  <0> d          -0.580  -0.717  -3.648  0.00  0.00    -0.252 OA
BRANCH   9  11
ATOM     11  C6  <0> d           1.740   0.446  -3.109  0.00  0.00    -0.002 C 
ATOM     12  H6  <0> d           2.231  -0.522  -3.206  0.00  0.00     0.045 H 
ATOM     13  H7  <0> d           1.832   0.995  -4.046  0.00  0.00     0.045 H 
ATOM     14  H8  <0> d           2.213   1.014  -2.308  0.00  0.00     0.045 H 
ENDBRANCH   9  11
ENDBRANCH   2   9
BRANCH   1  15
ATOM     15  C1  <0> d          -0.018   1.503   0.010  0.00  0.00    -0.033 C 
ATOM     16  H1  <0> d           1.004   1.880   0.003  0.00  0.00     0.035 H 
ATOM     17  H2  <0> d          -0.545   1.864  -0.873  0.00  0.00     0.035 H 
ATOM     18  H3  <0> d          -0.529   1.854   0.907  0.00  0.00     0.035 H 
ENDBRANCH   1  15
TORSDOF 3
