REMARK  1 active torsions:
REMARK  status: ('A' for Active; 'I' for Inactive)
REMARK    1  A    between atoms: C1_1  and  C2_2 
ROOT
ATOM      1  C2  <0> d           0.002  -0.004   0.002  0.00  0.00    -0.020 A 
ATOM      2  C3  <0> d           0.006  -0.688  -1.199  0.00  0.00    -0.071 A 
ATOM      3  C4  <0> d           0.024  -2.070  -1.210  0.00  0.00    -0.042 A 
ATOM      4  C5  <0> d           0.040  -2.772  -0.016  0.00  0.00     0.158 A 
ATOM      5  C6  <0> d           0.036  -2.088   1.189  0.00  0.00     0.193 A 
ATOM      6  C7  <0> d           0.023  -0.702   1.197  0.00  0.00     0.164 A 
ATOM      7  F1  <0> d           0.025  -0.033   2.371  0.00  0.00    -0.202 F 
ATOM      8  F2  <0> d           0.050  -2.771   2.354  0.00  0.00    -0.200 F 
ATOM      9  F3  <0> d           0.058  -4.123  -0.027  0.00  0.00    -0.203 F 
ATOM     10  H4  <0> d          -0.006  -0.142  -2.131  0.00  0.00     0.084 H 
ATOM     11  H5  <0> d           0.027  -2.603  -2.149  0.00  0.00     0.088 H 
ENDROOT
BRANCH   1  12
ATOM     12  C1  <0> d          -0.018   1.503   0.010  0.00  0.00    -0.048 C 
ATOM     13  H1  <0> d           1.004   1.880   0.003  0.00  0.00     0.033 H 
ATOM     14  H2  <0> d          -0.545   1.864  -0.873  0.00  0.00     0.033 H 
ATOM     15  H3  <0> d          -0.529   1.854   0.907  0.00  0.00     0.033 H 
ENDBRANCH   1  12
TORSDOF 1
