REMARK  1 active torsions:
REMARK  status: ('A' for Active; 'I' for Inactive)
REMARK    1  A    between atoms: C1_1  and  C2_2 
ROOT
ATOM      1  C2  <0> d           2.379   1.429  -0.013  0.00  0.00    -0.020 A 
ATOM      2  C3  <0> d           2.404   0.033  -0.021  0.00  0.00     0.052 A 
ATOM      3  C4  <0> d           1.204  -0.681  -0.013  0.00  0.00    -0.062 A 
ATOM      4  C5  <0> d           0.002  -0.004   0.002  0.00  0.00    -0.080 A 
ATOM      5  C6  <0> d          -0.017   1.379   0.010  0.00  0.00    -0.061 A 
ATOM      6  C7  <0> d           1.170   2.094   0.002  0.00  0.00     0.041 A 
ATOM      7 Cl1  <0> d           1.135   3.829   0.011  0.00  0.00    -0.084 Cl
ATOM      8  C8  <0> d           3.655  -0.664  -0.036  0.00  0.00     0.100 C 
ATOM      9  N1  <0> d           4.647  -1.217  -0.048  0.00  0.00    -0.191 NA
ATOM     10  H4  <0> d           1.217  -1.761  -0.019  0.00  0.00     0.085 H 
ATOM     11  H5  <0> d          -0.927  -0.555   0.008  0.00  0.00     0.083 H 
ATOM     12  H6  <0> d          -0.961   1.904   0.017  0.00  0.00     0.086 H 
ENDROOT
BRANCH   1  13
ATOM     13  C1  <0> d           3.669   2.207  -0.021  0.00  0.00    -0.048 C 
ATOM     14  H1  <0> d           3.971   2.401  -1.050  0.00  0.00     0.033 H 
ATOM     15  H2  <0> d           3.525   3.154   0.500  0.00  0.00     0.033 H 
ATOM     16  H3  <0> d           4.445   1.630   0.483  0.00  0.00     0.033 H 
ENDBRANCH   1  13
TORSDOF 1
