REMARK  5 active torsions:
REMARK  status: ('A' for Active; 'I' for Inactive)
REMARK    1  A    between atoms: C1_1  and  C2_2 
REMARK    2  A    between atoms: C3_3  and  C9_12 
REMARK    3  A    between atoms: C4_5  and  C8_11 
REMARK    4  A    between atoms: C5_6  and  C6_8 
REMARK    5  A    between atoms: C6_8  and  C7_10 
ROOT
ATOM      1  C2  <0> d           0.002  -0.004   0.002  0.00  0.00    -0.043 A 
ATOM      2  C3  <0> d           0.009  -0.806  -1.057  0.00  0.00     0.034 A 
ATOM      3  N1  <0> d           0.028  -2.114  -0.712  0.00  0.00    -0.262 NA
ATOM      4  C4  <0> d           0.036  -2.308   0.564  0.00  0.00     0.024 A 
ATOM      5  C5  <0> d           0.026  -0.933   1.202  0.00  0.00     0.065 A 
ATOM      6  H1  <0> d          -0.867  -0.799   1.812  0.00  0.00     0.068 H 
ENDROOT
BRANCH   5   7
ATOM      7  C6  <0> d           1.272  -0.714   2.022  0.00  0.00     0.136 C 
ATOM      8  O1  <0> d           2.263  -0.258   1.504  0.00  0.00    -0.297 OA
BRANCH   7   9
ATOM      9  C7  <0> d           1.280  -1.063   3.487  0.00  0.00    -0.020 C 
ATOM     10  H5  <0> d           0.305  -1.457   3.773  0.00  0.00     0.037 H 
ATOM     11  H6  <0> d           2.046  -1.815   3.677  0.00  0.00     0.037 H 
ATOM     12  H7  <0> d           1.496  -0.169   4.073  0.00  0.00     0.037 H 
ENDBRANCH   7   9
ENDBRANCH   5   7
BRANCH   1  13
ATOM     13  C1  <0> d          -0.018   1.503   0.010  0.00  0.00    -0.052 C 
ATOM     14  H2  <0> d           1.004   1.880   0.003  0.00  0.00     0.033 H 
ATOM     15  H3  <0> d          -0.545   1.864  -0.873  0.00  0.00     0.033 H 
ATOM     16  H4  <0> d          -0.529   1.854   0.907  0.00  0.00     0.033 H 
ENDBRANCH   1  13
BRANCH   4  17
ATOM     17  C8  <0> d           0.056  -3.636   1.276  0.00  0.00    -0.038 C 
ATOM     18  H8  <0> d           0.064  -4.442   0.543  0.00  0.00     0.035 H 
ATOM     19  H9  <0> d           0.949  -3.701   1.898  0.00  0.00     0.035 H 
ATOM     20  H10 <0> d          -0.831  -3.725   1.904  0.00  0.00     0.035 H 
ENDBRANCH   4  17
BRANCH   2  21
ATOM     21  C9  <0> d          -0.004  -0.314  -2.482  0.00  0.00    -0.035 C 
ATOM     22  H11 <0> d           1.020  -0.181  -2.830  0.00  0.00     0.035 H 
ATOM     23  H12 <0> d          -0.511  -1.044  -3.114  0.00  0.00     0.035 H 
ATOM     24  H13 <0> d          -0.532   0.638  -2.533  0.00  0.00     0.035 H 
ENDBRANCH   2  21
TORSDOF 5
