REMARK  1 active torsions:
REMARK  status: ('A' for Active; 'I' for Inactive)
REMARK    1  A    between atoms: C1_1  and  C2_2 
ROOT
ATOM      1  C2  <0> d          -0.729   1.579   1.267  0.00  0.00     0.118 C 
ATOM      2  C3  <0> d          -2.161   1.004   1.327  0.00  0.00    -0.021 C 
ATOM      3  C4  <0> d          -2.347   0.779   2.846  0.00  0.00     0.012 C 
ATOM      4  C5  <0> d          -0.937   0.623   3.373  0.00  0.00     0.219 C 
ATOM      5  O1  <0> d          -0.648   0.159   4.456  0.00  0.00    -0.274 OA
ATOM      6  N1  <0> d          -0.052   1.074   2.467  0.00  0.00    -0.339 N 
ATOM      7  C6  <0> d          -0.768   3.051   1.286  0.00  0.00     0.090 C 
ATOM      8  N2  <0> d          -0.799   4.186   1.301  0.00  0.00    -0.195 NA
ATOM      9  H4  <0> d          -2.887   1.722   0.948  0.00  0.00     0.038 H 
ATOM     10  H5  <0> d          -2.226   0.061   0.783  0.00  0.00     0.038 H 
ATOM     11  H6  <0> d          -2.925  -0.126   3.030  0.00  0.00     0.047 H 
ATOM     12  H7  <0> d          -2.831   1.643   3.303  0.00  0.00     0.047 H 
ATOM     13  H8  <0> d           0.910   1.066   2.591  0.00  0.00     0.164 HD
ENDROOT
BRANCH   1  14
ATOM     14  C1  <0> d          -0.013   1.086   0.008  0.00  0.00    -0.041 C 
ATOM     15  H1  <0> d           0.002  -0.004   0.002  0.00  0.00     0.032 H 
ATOM     16  H2  <0> d           1.010   1.463   0.000  0.00  0.00     0.032 H 
ATOM     17  H3  <0> d          -0.540   1.447  -0.875  0.00  0.00     0.032 H 
ENDBRANCH   1  14
TORSDOF 1
