REMARK  3 active torsions:
REMARK  status: ('A' for Active; 'I' for Inactive)
REMARK    1  A    between atoms: C1_1  and  C2_2 
REMARK    2  A    between atoms: C5_6  and  C8_11 
REMARK    3  A    between atoms: C8_11  and  C10_13 
ROOT
ATOM      1  C2  <0> d          -0.013   1.086   0.008  0.00  0.00     0.016 C 
ATOM      2  H1  <0> d          -0.001   0.086   0.001  0.00  0.00     0.057 H 
ATOM      3  C3  <0> d          -0.702   1.573   1.252  0.00  0.00    -0.095 C 
ATOM      4  C4  <0> d          -0.217   2.469   2.046  0.00  0.00    -0.098 C 
ATOM      5  C5  <0> d           1.104   3.156   1.890  0.00  0.00    -0.011 C 
ATOM      6  H2  <0> d           1.830   2.693   2.559  0.00  0.00     0.053 H 
ATOM      7  C6  <0> d           1.606   3.047   0.448  0.00  0.00     0.001 C 
ATOM      8  C7  <0> d           1.406   1.612  -0.003  0.00  0.00     0.135 C 
ATOM      9  O1  <0> d           2.335   0.924  -0.353  0.00  0.00    -0.297 OA
ATOM     10  H6  <0> d          -1.664   1.148   1.497  0.00  0.00     0.077 H 
ATOM     11  H7  <0> d          -0.818   2.747   2.900  0.00  0.00     0.077 H 
ATOM     12  H8  <0> d           2.575   3.294   0.413  0.00  0.00     0.045 H 
ATOM     13  H9  <0> d           1.036   3.719  -0.194  0.00  0.00     0.045 H 
ENDROOT
BRANCH   5  14
ATOM     14  C8  <0> d           0.953   4.610   2.254  0.00  0.00    -0.085 C 
ATOM     15  C9  <0> d           1.638   5.110   3.252  0.00  0.00    -0.119 C 
ATOM     16  H10 <0> d           1.530   6.153   3.513  0.00  0.00     0.067 H 
ATOM     17  H11 <0> d           2.311   4.480   3.814  0.00  0.00     0.067 H 
BRANCH  14  18
ATOM     18  C10 <0> d           0.013   5.490   1.470  0.00  0.00    -0.055 C 
ATOM     19  H12 <0> d          -1.000   5.094   1.541  0.00  0.00     0.033 H 
ATOM     20  H13 <0> d           0.038   6.501   1.876  0.00  0.00     0.033 H 
ATOM     21  H14 <0> d           0.323   5.510   0.424  0.00  0.00     0.033 H 
ENDBRANCH  14  18
ENDBRANCH   5  14
BRANCH   1  22
ATOM     22  C1  <0> d          -0.758   1.595  -1.227  0.00  0.00    -0.063 C 
ATOM     23  H3  <0> d          -0.252   1.245  -2.127  0.00  0.00     0.028 H 
ATOM     24  H4  <0> d          -1.781   1.219  -1.216  0.00  0.00     0.028 H 
ATOM     25  H5  <0> d          -0.772   2.685  -1.220  0.00  0.00     0.028 H 
ENDBRANCH   1  22
TORSDOF 3
