REMARK  2 active torsions:
REMARK  status: ('A' for Active; 'I' for Inactive)
REMARK    1  A    between atoms: C7_8  and  C8_11 
REMARK    2  A    between atoms: C8_11  and  O3_12 
ROOT
ATOM      1  C1  <0> d          -0.019   1.536   0.011  0.00  0.00    -0.060 C 
ATOM      2  C2  <0> d           1.454   1.996  -0.001  0.00  0.00    -0.060 C 
ATOM      3  C3  <0> d           2.235   0.792   0.584  0.00  0.00    -0.013 C 
ATOM      4  C4  <0> d           1.481  -0.419  -0.004  0.00  0.00     0.164 C 
ATOM      5  C5  <0> d           0.002  -0.004   0.002  0.00  0.00    -0.013 C 
ATOM      6  O1  <0> d           1.685  -1.574   0.815  0.00  0.00    -0.352 OA
ATOM      7  C6  <0> d           1.715  -2.683  -0.117  0.00  0.00     0.049 C 
ATOM      8  C7  <0> d           2.416  -2.048  -1.345  0.00  0.00     0.083 C 
ATOM      9  H1  <0> d           3.499  -2.069  -1.223  0.00  0.00     0.090 H 
ATOM     10  O2  <0> d           1.928  -0.689  -1.332  0.00  0.00    -0.346 OA
ATOM     11  H2  <0> d          -0.516   1.898   0.910  0.00  0.00     0.033 H 
ATOM     12  H3  <0> d          -0.533   1.907  -0.876  0.00  0.00     0.033 H 
ATOM     13  H4  <0> d           1.781   2.204  -1.020  0.00  0.00     0.033 H 
ATOM     14  H5  <0> d           1.583   2.877   0.628  0.00  0.00     0.033 H 
ATOM     15  H6  <0> d           3.272   0.803   0.246  0.00  0.00     0.041 H 
ATOM     16  H7  <0> d           2.182   0.789   1.672  0.00  0.00     0.041 H 
ATOM     17  H8  <0> d          -0.491  -0.390   0.894  0.00  0.00     0.041 H 
ATOM     18  H9  <0> d          -0.495  -0.380  -0.892  0.00  0.00     0.041 H 
ATOM     19  H10 <0> d           2.301  -3.512   0.281  0.00  0.00     0.078 H 
ATOM     20  H11 <0> d           0.705  -3.008  -0.370  0.00  0.00     0.078 H 
ENDROOT
BRANCH   8  21
ATOM     21  C8  <0> d           2.003  -2.762  -2.633  0.00  0.00     0.043 C 
ATOM     22  H12 <0> d           2.204  -3.829  -2.537  0.00  0.00     0.078 H 
ATOM     23  H13 <0> d           0.939  -2.607  -2.810  0.00  0.00     0.078 H 
BRANCH  21  24
ATOM     24  O3  <0> d           2.750  -2.234  -3.731  0.00  0.00    -0.398 OA
ATOM     25  H14 <0> d           2.540  -2.641  -4.582  0.00  0.00     0.209 HD
ENDBRANCH  21  24
ENDBRANCH   8  21
TORSDOF 2
