REMARK  4 active torsions:
REMARK  status: ('A' for Active; 'I' for Inactive)
REMARK    1  A    between atoms: C1_1  and  C2_2 
REMARK    2  A    between atoms: C2_2  and  C3_4 
REMARK    3  A    between atoms: C2_2  and  O1_10 
REMARK    4  A    between atoms: C3_4  and  N1_5 
ROOT
ATOM      1  C3  <0> d           1.751  -1.809  -0.024  0.00  0.00     0.024 C 
ATOM      2  H5  <0> d           2.715  -1.874   0.479  0.00  0.00     0.068 H 
ATOM      3  H6  <0> d           1.027  -2.438   0.493  0.00  0.00     0.068 H 
ENDROOT
BRANCH   1   4
ATOM      4  C2  <0> d           1.898  -2.285  -1.471  0.00  0.00     0.048 C 
ATOM      5  H1  <0> d           0.957  -2.137  -2.000  0.00  0.00     0.084 H 
BRANCH   4   6
ATOM      6  C1  <0> d           2.262  -3.771  -1.484  0.00  0.00    -0.051 C 
ATOM      7  H2  <0> d           1.475  -4.342  -0.992  0.00  0.00     0.030 H 
ATOM      8  H3  <0> d           2.367  -4.110  -2.515  0.00  0.00     0.030 H 
ATOM      9  H4  <0> d           3.204  -3.919  -0.955  0.00  0.00     0.030 H 
ENDBRANCH   4   6
BRANCH   4  10
ATOM     10  O1  <0> d           2.930  -1.536  -2.116  0.00  0.00    -0.394 OA
ATOM     11  H10 <0> d           3.798  -1.621  -1.698  0.00  0.00     0.210 HD
ENDBRANCH   4  10
ENDBRANCH   1   4
BRANCH   1  12
ATOM     12  N1  <0> d           1.287  -0.420  -0.013  0.00  0.00    -0.348 N 
ATOM     13  C6  <0> d           0.002  -0.004   0.002  0.00  0.00     0.065 A 
ATOM     14  N2  <0> d          -0.016   1.301   0.009  0.00  0.00    -0.255 NA
ATOM     15  H9  <0> d          -0.867  -0.645   0.007  0.00  0.00     0.143 H 
ATOM     16  C5  <0> d           1.244   1.760  -0.000  0.00  0.00     0.018 A 
ATOM     17  C4  <0> d           2.075   0.700  -0.014  0.00  0.00    -0.003 A 
ATOM     18  H8  <0> d           1.541   2.799   0.002  0.00  0.00     0.117 H 
ATOM     19  H7  <0> d           3.154   0.728  -0.024  0.00  0.00     0.113 H 
ENDBRANCH   1  12
TORSDOF 4
