REMARK  5 active torsions:
REMARK  status: ('A' for Active; 'I' for Inactive)
REMARK    1  A    between atoms: C1_1  and  C2_2 
REMARK    2  A    between atoms: C2_2  and  O1_3 
REMARK    3  A    between atoms: O1_3  and  C3_4 
REMARK    4  A    between atoms: C3_4  and  C4_6 
REMARK    5  A    between atoms: C5_9  and  N3_11 
ROOT
ATOM      1  C3  <0> d           1.757   3.125   0.002  0.00  0.00     0.338 C 
ATOM      2  O2  <0> d           0.961   4.044   0.015  0.00  0.00    -0.255 OA
ENDROOT
BRANCH   1   3
ATOM      3  O1  <0> d           3.081   3.380  -0.009  0.00  0.00    -0.315 OA
BRANCH   3   4
ATOM      4  C2  <0> d           3.484   4.775  -0.006  0.00  0.00     0.026 C 
ATOM      5  H4  <0> d           3.083   5.272  -0.889  0.00  0.00     0.074 H 
ATOM      6  H5  <0> d           3.099   5.262   0.891  0.00  0.00     0.074 H 
BRANCH   4   7
ATOM      7  C1  <0> d           5.011   4.865  -0.020  0.00  0.00    -0.056 C 
ATOM      8  H1  <0> d           5.413   4.369   0.864  0.00  0.00     0.030 H 
ATOM      9  H2  <0> d           5.396   4.379  -0.916  0.00  0.00     0.030 H 
ATOM     10  H3  <0> d           5.314   5.913  -0.017  0.00  0.00     0.030 H 
ENDBRANCH   4   7
ENDBRANCH   3   4
ENDBRANCH   1   3
BRANCH   1  11
ATOM     11  C4  <0> d           1.277   1.739  -0.001  0.00  0.00     0.270 A 
ATOM     12  O3  <0> d          -0.016   1.339   0.009  0.00  0.00    -0.251 OA
ATOM     13  C5  <0> d           0.002  -0.004   0.002  0.00  0.00     0.265 A 
ATOM     14  N2  <0> d           1.266  -0.383  -0.012  0.00  0.00    -0.103 NA
ATOM     15  N1  <0> d           2.023   0.657  -0.014  0.00  0.00    -0.114 NA
BRANCH  13  16
ATOM     16  N3  <0> d          -1.094  -0.831   0.009  0.00  0.00    -0.362 N 
ATOM     17  H6  <0> d          -1.987  -0.453   0.020  0.00  0.00     0.159 HD
ATOM     18  H7  <0> d          -0.975  -1.794   0.002  0.00  0.00     0.159 HD
ENDBRANCH  13  16
ENDBRANCH   1  11
TORSDOF 5
