REMARK  0 active torsions:
REMARK  status: ('A' for Active; 'I' for Inactive)
ROOT
ATOM      1  C1  <0> d          -0.017   1.387   0.010  0.00  0.00    -0.005 A 
ATOM      2  C2  <0> d           1.201   2.054   0.002  0.00  0.00     0.057 A 
ATOM      3  C3  <0> d           2.361   1.291  -0.014  0.00  0.00     0.045 A 
ATOM      4  N1  <0> d           2.284  -0.025  -0.020  0.00  0.00    -0.158 NA
ATOM      5  N2  <0> d           1.160  -0.645  -0.013  0.00  0.00    -0.122 NA
ATOM      6  C4  <0> d           0.002  -0.004   0.002  0.00  0.00     0.222 A 
ATOM      7  O1  <0> d          -1.162  -0.701   0.010  0.00  0.00    -0.168 OA
ATOM      8 Cl1  <0> d           1.271   3.788   0.010  0.00  0.00    -0.083 Cl
ATOM      9  H1  <0> d          -0.950   1.932   0.026  0.00  0.00     0.093 H 
ATOM     10  H2  <0> d           3.326   1.776  -0.021  0.00  0.00     0.120 H 
ENDROOT
TORSDOF 0
