REMARK  1 active torsions:
REMARK  status: ('A' for Active; 'I' for Inactive)
REMARK    1  A    between atoms: C3_3  and  C4_4 
ROOT
ATOM      1  C1  <0> d          -1.332  -0.728  -0.193  0.00  0.00    -0.054 A 
ATOM      2  C2  <0> d          -0.656  -0.726   1.180  0.00  0.00    -0.054 A 
ATOM      3  C3  <0> d           0.002  -0.004   0.002  0.00  0.00     0.009 A 
ATOM      4  H1  <0> d          -2.224  -0.114  -0.315  0.00  0.00     0.034 H 
ATOM      5  H2  <0> d          -1.321  -1.659  -0.758  0.00  0.00     0.034 H 
ATOM      6  H3  <0> d          -0.200  -1.657   1.518  0.00  0.00     0.034 H 
ATOM      7  H4  <0> d          -1.103  -0.111   1.961  0.00  0.00     0.034 H 
ATOM      8  H5  <0> d           0.891  -0.460  -0.435  0.00  0.00     0.052 H 
ENDROOT
BRANCH   3   9
ATOM      9  C4  <0> d          -0.018   1.503   0.010  0.00  0.00     0.178 A 
ATOM     10  N3  <0> d          -1.100   2.282   0.019  0.00  0.00    -0.111 NA
ATOM     11  N2  <0> d          -0.692   3.506   0.028  0.00  0.00    -0.021 NA
ATOM     12  N4  <0> d           0.594   3.511   0.015  0.00  0.00    -0.021 NA
ATOM     13  N1  <0> d           1.024   2.297   0.005  0.00  0.00    -0.111 NA
ENDBRANCH   3   9
TORSDOF 1
