REMARK  4 active torsions:
REMARK  status: ('A' for Active; 'I' for Inactive)
REMARK    1  A    between atoms: C1_1  and  O1_2 
REMARK    2  A    between atoms: O1_2  and  C2_3 
REMARK    3  A    between atoms: C2_3  and  C3_5 
REMARK    4  A    between atoms: C4_6  and  N2_11 
ROOT
ATOM      1  C3  <0> d           1.092  -0.661  -0.004  0.00  0.00     0.157 A 
ATOM      2  C4  <0> d          -0.068   0.126   0.022  0.00  0.00     0.061 A 
ATOM      3  C5  <0> d           0.060   1.516   0.019  0.00  0.00    -0.054 A 
ATOM      4  C6  <0> d           1.331   2.059  -0.008  0.00  0.00    -0.064 A 
ATOM      5  C7  <0> d           2.434   1.217  -0.032  0.00  0.00     0.003 A 
ATOM      6  N1  <0> d           2.292  -0.089  -0.029  0.00  0.00    -0.253 NA
ATOM      7  H4  <0> d          -0.812   2.151   0.034  0.00  0.00     0.087 H 
ATOM      8  H5  <0> d           1.465   3.131  -0.011  0.00  0.00     0.085 H 
ATOM      9  H6  <0> d           3.427   1.642  -0.054  0.00  0.00     0.114 H 
ENDROOT
BRANCH   1  10
ATOM     10  C2  <0> d           0.981  -2.132  -0.001  0.00  0.00     0.314 C 
ATOM     11  O2  <0> d          -0.111  -2.659  -0.080  0.00  0.00    -0.257 OA
BRANCH  10  12
ATOM     12  O1  <0> d           2.090  -2.892   0.089  0.00  0.00    -0.321 OA
BRANCH  12  13
ATOM     13  C1  <0> d           1.905  -4.332   0.085  0.00  0.00     0.013 C 
ATOM     14  H1  <0> d           1.284  -4.620   0.933  0.00  0.00     0.067 H 
ATOM     15  H2  <0> d           1.418  -4.634  -0.842  0.00  0.00     0.067 H 
ATOM     16  H3  <0> d           2.876  -4.823   0.162  0.00  0.00     0.067 H 
ENDBRANCH  12  13
ENDBRANCH  10  12
ENDBRANCH   1  10
BRANCH   2  17
ATOM     17  N2  <0> d          -1.322  -0.467   0.050  0.00  0.00    -0.397 N 
ATOM     18  H7  <0> d          -2.116   0.082   0.146  0.00  0.00     0.156 HD
ATOM     19  H8  <0> d          -1.405  -1.431  -0.028  0.00  0.00     0.156 HD
ENDBRANCH   2  17
TORSDOF 4
