REMARK  0 active torsions:
REMARK  status: ('A' for Active; 'I' for Inactive)
ROOT
ATOM      1  C1  <0> d          -0.017   1.370   0.010  0.00  0.00     0.057 C 
ATOM      2  N1  <0> d           1.165   1.895   0.001  0.00  0.00    -0.266 NA
ATOM      3  C2  <0> d           2.164   0.814   0.002  0.00  0.00     0.149 C 
ATOM      4  H1  <0> d           2.513   0.613  -1.011  0.00  0.00     0.097 H 
ATOM      5  C3  <0> d           1.339  -0.382   0.542  0.00  0.00     0.122 C 
ATOM      6  H2  <0> d           1.694  -1.351   0.192  0.00  0.00     0.111 H 
ATOM      7  N2  <0> d           0.002  -0.004   0.002  0.00  0.00    -0.361 N 
ATOM      8  N3  <0> d           1.276  -0.282   2.007  0.00  0.00    -0.199 N 
ATOM      9  C4  <0> d           2.398   0.014   2.718  0.00  0.00     0.720 C 
ATOM     10  N4  <0> d           3.375   0.711   2.163  0.00  0.00    -0.024 NA
ATOM     11  C5  <0> d           3.317   1.136   0.897  0.00  0.00     0.288 C 
ATOM     12  O1  <0> d           4.245   1.772   0.438  0.00  0.00    -0.268 OA
ATOM     13  N5  <0> d           2.514  -0.410   4.007  0.00  0.00    -0.116 NA
ATOM     14  H3  <0> d          -0.926   1.953   0.026  0.00  0.00     0.142 H 
ATOM     15  H4  <0> d          -0.704  -0.601  -0.292  0.00  0.00     0.162 HD
ATOM     16  H5  <0> d           3.313  -0.200   4.516  0.00  0.00     0.206 HD
ATOM     17  H6  <0> d           0.434  -0.427   2.467  0.00  0.00     0.180 HD
ENDROOT
TORSDOF 0
