REMARK  0 active torsions:
REMARK  status: ('A' for Active; 'I' for Inactive)
ROOT
ATOM      1  C1  <0> d          -1.227   2.131   0.019  0.00  0.00    -0.044 A 
ATOM      2  C2  <0> d          -1.199   3.511   0.031  0.00  0.00     0.003 A 
ATOM      3  N1  <0> d          -0.055   4.166   0.024  0.00  0.00    -0.271 NA
ATOM      4  C3  <0> d           1.108   3.545   0.010  0.00  0.00     0.024 A 
ATOM      5  C4  <0> d           1.174   2.164   0.003  0.00  0.00     0.072 A 
ATOM      6  C5  <0> d          -0.017   1.428   0.010  0.00  0.00     0.069 A 
ATOM      7  C6  <0> d           0.002  -0.004   0.002  0.00  0.00     0.101 C 
ATOM      8  N2  <0> d           0.018  -1.140  -0.004  0.00  0.00    -0.191 NA
ATOM      9 Cl1  <0> d           2.710   1.356  -0.017  0.00  0.00    -0.081 Cl
ATOM     10  H1  <0> d          -2.169   1.602   0.021  0.00  0.00     0.088 H 
ATOM     11  H2  <0> d          -2.128   4.062   0.043  0.00  0.00     0.114 H 
ATOM     12  H3  <0> d           2.020   4.122   0.005  0.00  0.00     0.117 H 
ENDROOT
TORSDOF 0
