REMARK  0 active torsions:
REMARK  status: ('A' for Active; 'I' for Inactive)
ROOT
ATOM      1  C1  <0> d           2.885  -1.647   1.678  0.00  0.00    -0.059 A 
ATOM      2  C2  <0> d           1.617  -1.552   1.135  0.00  0.00    -0.046 A 
ATOM      3  C3  <0> d           1.183  -0.356   0.589  0.00  0.00     0.105 A 
ATOM      4  C4  <0> d           2.029   0.752   0.587  0.00  0.00     0.106 A 
ATOM      5  C5  <0> d           3.298   0.651   1.131  0.00  0.00    -0.027 A 
ATOM      6  C6  <0> d           3.724  -0.547   1.676  0.00  0.00     0.036 A 
ATOM      7 Cl1  <0> d           5.316  -0.671   2.360  0.00  0.00    -0.084 Cl
ATOM      8  O1  <0> d           1.376   1.797  -0.001  0.00  0.00    -0.323 OA
ATOM      9  C7  <0> d          -0.018   1.436   0.010  0.00  0.00     0.115 C 
ATOM     10  O2  <0> d           0.002  -0.004   0.002  0.00  0.00    -0.323 OA
ATOM     11  H1  <0> d           3.221  -2.580   2.104  0.00  0.00     0.086 H 
ATOM     12  H2  <0> d           0.963  -2.412   1.138  0.00  0.00     0.087 H 
ATOM     13  H3  <0> d           3.955   1.508   1.131  0.00  0.00     0.090 H 
ATOM     14  H4  <0> d          -0.519   1.817  -0.880  0.00  0.00     0.118 H 
ATOM     15  H5  <0> d          -0.502   1.807   0.913  0.00  0.00     0.118 H 
ENDROOT
TORSDOF 0
