REMARK  6 active torsions:
REMARK  status: ('A' for Active; 'I' for Inactive)
REMARK    1  A    between atoms: C1_1  and  C2_2 
REMARK    2  A    between atoms: C2_2  and  C3_3 
REMARK    3  A    between atoms: C3_3  and  C4_4 
REMARK    4  A    between atoms: C5_5  and  C9_10 
REMARK    5  A    between atoms: C7_7  and  C8_9 
REMARK    6  A    between atoms: C9_10  and  C10_11 
ROOT
ATOM      1  C4  <0> d           0.707  -0.490  -1.238  0.00  0.00     0.059 A 
ATOM      2  C5  <0> d           2.026  -0.729  -1.350  0.00  0.00    -0.026 A 
ATOM      3  C6  <0> d           2.252  -1.169  -2.675  0.00  0.00    -0.046 A 
ATOM      4  C7  <0> d           1.058  -1.165  -3.295  0.00  0.00     0.050 A 
ATOM      5  O1  <0> d           0.127  -0.753  -2.420  0.00  0.00    -0.319 OA
ATOM      6  H8  <0> d           3.201  -1.450  -3.107  0.00  0.00     0.088 H 
ENDROOT
BRANCH   1   7
ATOM      7  C3  <0> d           0.002  -0.004   0.002  0.00  0.00    -0.020 C 
ATOM      8  H6  <0> d           0.529  -0.365   0.885  0.00  0.00     0.043 H 
ATOM      9  H7  <0> d          -1.020  -0.381   0.010  0.00  0.00     0.043 H 
BRANCH   7  10
ATOM     10  C2  <0> d          -0.019   1.526   0.010  0.00  0.00    -0.063 C 
ATOM     11  H4  <0> d           1.004   1.903   0.003  0.00  0.00     0.033 H 
ATOM     12  H5  <0> d          -0.546   1.887  -0.873  0.00  0.00     0.033 H 
BRANCH  10  13
ATOM     13  C1  <0> d          -0.735   2.019   1.269  0.00  0.00    -0.076 C 
ATOM     14  H1  <0> d          -1.757   1.642   1.277  0.00  0.00     0.027 H 
ATOM     15  H2  <0> d          -0.208   1.658   2.152  0.00  0.00     0.027 H 
ATOM     16  H3  <0> d          -0.750   3.109   1.275  0.00  0.00     0.027 H 
ENDBRANCH  10  13
ENDBRANCH   7  10
ENDBRANCH   1   7
BRANCH   2  17
ATOM     17  C9  <0> d           3.064  -0.562  -0.270  0.00  0.00    -0.042 C 
ATOM     18  H12 <0> d           4.040  -0.393  -0.726  0.00  0.00     0.039 H 
ATOM     19  H13 <0> d           2.803   0.291   0.356  0.00  0.00     0.039 H 
BRANCH  17  20
ATOM     20  C10 <0> d           3.115  -1.828   0.588  0.00  0.00    -0.073 C 
ATOM     21  H14 <0> d           3.376  -2.681  -0.038  0.00  0.00     0.028 H 
ATOM     22  H15 <0> d           3.866  -1.708   1.369  0.00  0.00     0.028 H 
ATOM     23  H16 <0> d           2.140  -1.997   1.044  0.00  0.00     0.028 H 
ENDBRANCH  17  20
ENDBRANCH   2  17
BRANCH   4  24
ATOM     24  C8  <0> d           0.809  -1.556  -4.729  0.00  0.00    -0.031 C 
ATOM     25  H9  <0> d          -0.252  -1.454  -4.954  0.00  0.00     0.036 H 
ATOM     26  H10 <0> d           1.384  -0.905  -5.388  0.00  0.00     0.036 H 
ATOM     27  H11 <0> d           1.116  -2.591  -4.882  0.00  0.00     0.036 H 
ENDBRANCH   4  24
TORSDOF 6
