REMARK  2 active torsions:
REMARK  status: ('A' for Active; 'I' for Inactive)
REMARK    1  A    between atoms: C2_2  and  C3_3 
REMARK    2  A    between atoms: C3_3  and  N1_4 
ROOT
ATOM      1  N1  <0> d          -2.146   1.365  -1.112  0.00  0.00    -0.347 N 
ATOM      2  C4  <0> d          -2.166   1.911  -2.366  0.00  0.00    -0.002 A 
ATOM      3  C5  <0> d          -3.050   1.197  -3.089  0.00  0.00     0.018 A 
ATOM      4  N2  <0> d          -3.562   0.245  -2.294  0.00  0.00    -0.255 NA
ATOM      5  C6  <0> d          -3.026   0.340  -1.109  0.00  0.00     0.065 A 
ATOM      6  H6  <0> d          -1.583   2.753  -2.712  0.00  0.00     0.113 H 
ATOM      7  H7  <0> d          -3.305   1.364  -4.125  0.00  0.00     0.117 H 
ATOM      8  H8  <0> d          -3.248  -0.296  -0.265  0.00  0.00     0.143 H 
ENDROOT
BRANCH   1   9
ATOM      9  C3  <0> d          -1.328   1.812   0.018  0.00  0.00     0.014 C 
ATOM     10  H4  <0> d          -1.853   1.605   0.951  0.00  0.00     0.070 H 
ATOM     11  H5  <0> d          -1.145   2.883  -0.066  0.00  0.00     0.070 H 
BRANCH   9  12
ATOM     12  C2  <0> d          -0.013   1.076   0.008  0.00  0.00    -0.095 C 
ATOM     13  C1  <0> d           1.113   1.746   0.001  0.00  0.00    -0.123 C 
ATOM     14  H1  <0> d           1.098   2.826   0.007  0.00  0.00     0.066 H 
ATOM     15  H2  <0> d           2.055   1.219  -0.011  0.00  0.00     0.066 H 
ATOM     16  H3  <0> d           0.002  -0.004   0.002  0.00  0.00     0.078 H 
ENDBRANCH   9  12
ENDBRANCH   1   9
TORSDOF 2
