REMARK  2 active torsions:
REMARK  status: ('A' for Active; 'I' for Inactive)
REMARK    1  A    between atoms: C1_1  and  C2_2 
REMARK    2  A    between atoms: C5_5  and  C6_7 
ROOT
ATOM      1  C2  <0> d           3.430   2.092   0.213  0.00  0.00     0.085 A 
ATOM      2  C3  <0> d           2.396   1.257   0.323  0.00  0.00     0.134 A 
ATOM      3  C4  <0> d           1.222   2.003   0.001  0.00  0.00     0.134 A 
ATOM      4  C5  <0> d           1.616   3.247  -0.277  0.00  0.00     0.085 A 
ATOM      5  O1  <0> d           2.959   3.304  -0.150  0.00  0.00    -0.314 OA
ATOM      6  O2  <0> d          -0.017   1.434   0.010  0.00  0.00    -0.344 OA
ATOM      7  C7  <0> d           0.002  -0.004   0.002  0.00  0.00     0.046 C 
ATOM      8  C8  <0> d           1.021  -0.513   1.026  0.00  0.00     0.046 C 
ATOM      9  O3  <0> d           2.338  -0.062   0.666  0.00  0.00    -0.344 OA
ATOM     10  H7  <0> d          -0.988  -0.382   0.257  0.00  0.00     0.078 H 
ATOM     11  H8  <0> d           0.279  -0.357  -0.991  0.00  0.00     0.078 H 
ATOM     12  H9  <0> d           0.764  -0.130   2.014  0.00  0.00     0.078 H 
ATOM     13  H10 <0> d           1.003  -1.603   1.045  0.00  0.00     0.078 H 
ENDROOT
BRANCH   1  14
ATOM     14  C1  <0> d           4.877   1.743   0.454  0.00  0.00    -0.029 C 
ATOM     15  H1  <0> d           5.328   1.401  -0.478  0.00  0.00     0.036 H 
ATOM     16  H2  <0> d           5.408   2.624   0.813  0.00  0.00     0.036 H 
ATOM     17  H3  <0> d           4.940   0.950   1.200  0.00  0.00     0.036 H 
ENDBRANCH   1  14
BRANCH   4  18
ATOM     18  C6  <0> d           0.716   4.392  -0.666  0.00  0.00    -0.029 C 
ATOM     19  H4  <0> d           1.317   5.286  -0.833  0.00  0.00     0.036 H 
ATOM     20  H5  <0> d           0.181   4.139  -1.581  0.00  0.00     0.036 H 
ATOM     21  H6  <0> d           0.000   4.580   0.134  0.00  0.00     0.036 H 
ENDBRANCH   4  18
TORSDOF 2
