REMARK  0 active torsions:
REMARK  status: ('A' for Active; 'I' for Inactive)
ROOT
ATOM      1  C1  <0> d          -0.779   3.504  -1.221  0.00  0.00    -0.064 C 
ATOM      2  C2  <0> d          -1.495   3.998   0.038  0.00  0.00    -0.064 C 
ATOM      3  C3  <0> d          -0.755   3.491   1.277  0.00  0.00    -0.049 C 
ATOM      4  C4  <0> d          -0.734   1.961   1.269  0.00  0.00     0.046 C 
ATOM      5  H1  <0> d          -0.235   1.578   2.171  0.00  0.00     0.064 H 
ATOM      6  C5  <0> d          -0.018   1.468   0.010  0.00  0.00     0.046 C 
ATOM      7  H2  <0> d           1.027   1.811   0.002  0.00  0.00     0.064 H 
ATOM      8  C6  <0> d          -0.758   1.975  -1.229  0.00  0.00    -0.049 C 
ATOM      9  C7  <0> d           0.002  -0.004   0.002  0.00  0.00     0.065 C 
ATOM     10  N1  <0> d           0.018  -1.140  -0.004  0.00  0.00    -0.197 NA
ATOM     11  C8  <0> d          -2.115   1.452   1.279  0.00  0.00     0.065 C 
ATOM     12  N2  <0> d          -3.181   1.058   1.287  0.00  0.00    -0.197 NA
ATOM     13  H3  <0> d           0.253   3.885  -1.229  0.00  0.00     0.033 H 
ATOM     14  H4  <0> d          -1.310   3.869  -2.112  0.00  0.00     0.033 H 
ATOM     15  H5  <0> d          -1.510   5.098   0.044  0.00  0.00     0.033 H 
ATOM     16  H6  <0> d          -2.527   3.617   0.046  0.00  0.00     0.033 H 
ATOM     17  H7  <0> d           0.277   3.872   1.270  0.00  0.00     0.035 H 
ATOM     18  H8  <0> d          -1.270   3.846   2.182  0.00  0.00     0.035 H 
ATOM     19  H9  <0> d          -1.790   1.594  -1.222  0.00  0.00     0.035 H 
ATOM     20  H10 <0> d          -0.243   1.620  -2.134  0.00  0.00     0.035 H 
ENDROOT
TORSDOF 0
