REMARK  5 active torsions:
REMARK  status: ('A' for Active; 'I' for Inactive)
REMARK    1  A    between atoms: C1_1  and  C2_2 
REMARK    2  A    between atoms: C2_2  and  C3_4 
REMARK    3  A    between atoms: C2_2  and  C5_9 
REMARK    4  A    between atoms: C3_4  and  C4_6 
REMARK    5  A    between atoms: C3_4  and  O2_8 
ROOT
ATOM      1  C2  <0> d          -2.055  -0.505  -1.288  0.00  0.00     0.061 C 
ATOM      2  H1  <0> d          -2.190   0.569  -1.414  0.00  0.00     0.060 H 
ENDROOT
BRANCH   1   3
ATOM      3  C1  <0> d          -1.260  -1.062  -2.472  0.00  0.00    -0.061 C 
ATOM      4  H3  <0> d          -1.125  -2.136  -2.346  0.00  0.00     0.028 H 
ATOM      5  H4  <0> d          -1.804  -0.869  -3.397  0.00  0.00     0.028 H 
ATOM      6  H5  <0> d          -0.286  -0.576  -2.515  0.00  0.00     0.028 H 
ENDBRANCH   1   3
BRANCH   1   7
ATOM      7  C3  <0> d          -1.293  -0.775   0.010  0.00  0.00     0.131 C 
ATOM      8  H2  <0> d          -1.898  -0.459   0.860  0.00  0.00     0.101 H 
BRANCH   7   9
ATOM      9  C4  <0> d           0.002  -0.004   0.002  0.00  0.00     0.203 C 
ATOM     10  O1  <0> d           1.056  -0.594  -0.011  0.00  0.00    -0.646 OA
ATOM     11  O4  <0> d          -0.016   1.338   0.009  0.00  0.00    -0.646 OA
ENDBRANCH   7   9
BRANCH   7  12
ATOM     12  O2  <0> d          -1.014  -2.173   0.117  0.00  0.00    -0.384 OA
ATOM     13  H6  <0> d          -0.477  -2.523  -0.607  0.00  0.00     0.210 HD
ENDBRANCH   7  12
ENDBRANCH   1   7
BRANCH   1  14
ATOM     14  C5  <0> d          -3.403  -1.177  -1.228  0.00  0.00     0.179 C 
ATOM     15  O3  <0> d          -3.721  -1.807  -0.248  0.00  0.00    -0.648 OA
ATOM     16  O5  <0> d          -4.250  -1.076  -2.265  0.00  0.00    -0.648 OA
ENDBRANCH   1  14
TORSDOF 5
