REMARK  8 active torsions:
REMARK  status: ('A' for Active; 'I' for Inactive)
REMARK    1  A    between atoms: C1_1  and  C2_2 
REMARK    2  A    between atoms: C2_2  and  C3_3 
REMARK    3  A    between atoms: C3_3  and  O1_7 
REMARK    4  A    between atoms: O1_7  and  C5_8 
REMARK    5  A    between atoms: C5_8  and  C6_10 
REMARK    6  A    between atoms: C5_8  and  O2_11 
REMARK    7  A    between atoms: O2_11  and  C7_12 
REMARK    8  A    between atoms: C7_12  and  C8_13 
ROOT
ATOM      1  C3  <0> d          -0.987   2.500   1.268  0.00  0.00     0.124 C 
ATOM      2  H1  <0> d          -0.438   2.347   2.197  0.00  0.00     0.106 H 
ATOM      3  C4  <0> d          -1.410   3.907   1.174  0.00  0.00     0.091 C 
ATOM      4  N1  <0> d          -1.736   4.992   1.101  0.00  0.00    -0.195 NA
ENDROOT
BRANCH   1   5
ATOM      5  C2  <0> d          -0.086   2.158   0.080  0.00  0.00    -0.032 C 
ATOM      6  H6  <0> d           0.747   2.860   0.041  0.00  0.00     0.037 H 
ATOM      7  H7  <0> d          -0.661   2.225  -0.844  0.00  0.00     0.037 H 
BRANCH   5   8
ATOM      8  C1  <0> d           0.454   0.735   0.242  0.00  0.00    -0.073 C 
ATOM      9  H3  <0> d          -0.379   0.033   0.281  0.00  0.00     0.027 H 
ATOM     10  H4  <0> d           1.095   0.491  -0.604  0.00  0.00     0.027 H 
ATOM     11  H5  <0> d           1.029   0.668   1.166  0.00  0.00     0.027 H 
ENDBRANCH   5   8
ENDBRANCH   1   5
BRANCH   1  12
ATOM     12  O1  <0> d          -2.139   1.654   1.251  0.00  0.00    -0.342 OA
BRANCH  12  13
ATOM     13  C5  <0> d          -2.633   1.320   2.550  0.00  0.00     0.129 C 
ATOM     14  H2  <0> d          -2.545   2.186   3.206  0.00  0.00     0.128 H 
BRANCH  13  15
ATOM     15  C6  <0> d          -4.103   0.906   2.445  0.00  0.00    -0.031 C 
ATOM     16  H8  <0> d          -4.479   0.651   3.436  0.00  0.00     0.034 H 
ATOM     17  H9  <0> d          -4.684   1.732   2.037  0.00  0.00     0.034 H 
ATOM     18  H10 <0> d          -4.190   0.040   1.789  0.00  0.00     0.034 H 
ENDBRANCH  13  15
BRANCH  13  19
ATOM     19  O2  <0> d          -1.870   0.237   3.085  0.00  0.00    -0.362 OA
BRANCH  19  20
ATOM     20  C7  <0> d          -0.573   0.614   3.551  0.00  0.00     0.019 C 
ATOM     21  H11 <0> d           0.040   0.928   2.706  0.00  0.00     0.073 H 
ATOM     22  H12 <0> d          -0.667   1.438   4.258  0.00  0.00     0.073 H 
BRANCH  20  23
ATOM     23  C8  <0> d           0.087  -0.580   4.245  0.00  0.00    -0.056 C 
ATOM     24  H13 <0> d          -0.526  -0.894   5.090  0.00  0.00     0.030 H 
ATOM     25  H14 <0> d           0.180  -1.404   3.538  0.00  0.00     0.030 H 
ATOM     26  H15 <0> d           1.076  -0.292   4.600  0.00  0.00     0.030 H 
ENDBRANCH  20  23
ENDBRANCH  19  20
ENDBRANCH  13  19
ENDBRANCH  12  13
ENDBRANCH   1  12
TORSDOF 8
