REMARK  5 active torsions:
REMARK  status: ('A' for Active; 'I' for Inactive)
REMARK    1  A    between atoms: C1_1  and  O1_2 
REMARK    2  A    between atoms: O1_2  and  C2_3 
REMARK    3  A    between atoms: C2_3  and  C3_4 
REMARK    4  A    between atoms: C3_4  and  O3_6 
REMARK    5  A    between atoms: O3_6  and  C4_7 
ROOT
ATOM      1  C2  <0> d          -1.329   1.940   0.019  0.00  0.00     0.099 C 
ATOM      2  H4  <0> d          -1.391   2.561   0.913  0.00  0.00     0.089 H 
ATOM      3  H5  <0> d          -1.400   2.570  -0.867  0.00  0.00     0.089 H 
ENDROOT
BRANCH   1   4
ATOM      4  O1  <0> d          -2.403   0.997   0.019  0.00  0.00    -0.386 OA
BRANCH   4   5
ATOM      5  C1  <0> d          -3.701   1.593   0.028  0.00  0.00     0.005 C 
ATOM      6  H1  <0> d          -3.812   2.207   0.922  0.00  0.00     0.066 H 
ATOM      7  H2  <0> d          -3.821   2.217  -0.858  0.00  0.00     0.066 H 
ATOM      8  H3  <0> d          -4.461   0.811   0.028  0.00  0.00     0.066 H 
ENDBRANCH   4   5
ENDBRANCH   1   4
BRANCH   1   9
ATOM      9  C3  <0> d          -0.014   1.204   0.009  0.00  0.00     0.282 C 
ATOM     10  O2  <0> d           0.002  -0.004   0.002  0.00  0.00    -0.263 OA
BRANCH   9  11
ATOM     11  O3  <0> d           1.139   1.891   0.001  0.00  0.00    -0.325 OA
BRANCH  11  12
ATOM     12  C4  <0> d           2.367   1.117  -0.015  0.00  0.00     0.013 C 
ATOM     13  H6  <0> d           2.392   0.493  -0.908  0.00  0.00     0.067 H 
ATOM     14  H7  <0> d           3.223   1.792  -0.019  0.00  0.00     0.067 H 
ATOM     15  H8  <0> d           2.409   0.484   0.872  0.00  0.00     0.067 H 
ENDBRANCH  11  12
ENDBRANCH   9  11
ENDBRANCH   1   9
TORSDOF 5
