REMARK  5 active torsions:
REMARK  status: ('A' for Active; 'I' for Inactive)
REMARK    1  A    between atoms: C1_1  and  C2_2 
REMARK    2  A    between atoms: C2_2  and  C3_3 
REMARK    3  A    between atoms: C2_2  and  C4_4 
REMARK    4  A    between atoms: C6_6  and  C8_8 
REMARK    5  A    between atoms: C8_8  and  O1_9 
ROOT
ATOM      1  C4  <0> d          -1.433  -0.534   0.013  0.00  0.00    -0.051 C 
ATOM      2  C5  <0> d          -1.566  -1.965  -0.533  0.00  0.00    -0.056 C 
ATOM      3  C6  <0> d          -2.859  -1.498  -1.223  0.00  0.00    -0.033 C 
ATOM      4  C7  <0> d          -2.267  -0.079  -1.197  0.00  0.00    -0.056 C 
ATOM      5  H8  <0> d          -1.933  -0.382   0.969  0.00  0.00     0.040 H 
ATOM      6  H9  <0> d          -0.775  -2.242  -1.230  0.00  0.00     0.034 H 
ATOM      7  H10 <0> d          -1.730  -2.714   0.242  0.00  0.00     0.034 H 
ATOM      8  H11 <0> d          -3.749  -1.611  -0.604  0.00  0.00     0.043 H 
ATOM      9  H12 <0> d          -2.997   0.694  -0.959  0.00  0.00     0.034 H 
ATOM     10  H13 <0> d          -1.667   0.160  -2.075  0.00  0.00     0.034 H 
ENDROOT
BRANCH   1  11
ATOM     11  C2  <0> d           0.002  -0.004   0.002  0.00  0.00    -0.058 C 
ATOM     12  H4  <0> d           0.512  -0.356  -0.895  0.00  0.00     0.039 H 
BRANCH  11  13
ATOM     13  C1  <0> d          -0.019   1.526   0.010  0.00  0.00    -0.073 C 
ATOM     14  H1  <0> d           1.004   1.903   0.003  0.00  0.00     0.028 H 
ATOM     15  H2  <0> d          -0.546   1.887  -0.873  0.00  0.00     0.028 H 
ATOM     16  H3  <0> d          -0.529   1.877   0.907  0.00  0.00     0.028 H 
ENDBRANCH  11  13
BRANCH  11  17
ATOM     17  C3  <0> d           0.742  -0.511   1.242  0.00  0.00    -0.073 C 
ATOM     18  H5  <0> d           0.232  -0.159   2.138  0.00  0.00     0.028 H 
ATOM     19  H6  <0> d           0.757  -1.601   1.236  0.00  0.00     0.028 H 
ATOM     20  H7  <0> d           1.765  -0.134   1.234  0.00  0.00     0.028 H 
ENDBRANCH  11  17
ENDBRANCH   1  11
BRANCH   3  21
ATOM     21  C8  <0> d          -3.038  -2.062  -2.634  0.00  0.00     0.020 C 
ATOM     22  H14 <0> d          -2.252  -1.675  -3.282  0.00  0.00     0.074 H 
ATOM     23  H15 <0> d          -2.979  -3.150  -2.600  0.00  0.00     0.074 H 
BRANCH  21  24
ATOM     24  O1  <0> d          -4.314  -1.669  -3.145  0.00  0.00    -0.400 OA
ATOM     25  H16 <0> d          -4.496  -1.992  -4.038  0.00  0.00     0.209 HD
ENDBRANCH  21  24
ENDBRANCH   3  21
TORSDOF 5
