REMARK  6 active torsions:
REMARK  status: ('A' for Active; 'I' for Inactive)
REMARK    1  A    between atoms: C2_2  and  C3_3 
REMARK    2  A    between atoms: C3_3  and  O1_4 
REMARK    3  A    between atoms: O1_4  and  C4_5 
REMARK    4  A    between atoms: C4_5  and  C5_7 
REMARK    5  A    between atoms: C5_7  and  C6_9 
REMARK    6  A    between atoms: C5_7  and  O3_11 
ROOT
ATOM      1  C4  <0> d          -2.003   3.720  -1.132  0.00  0.00     0.291 C 
ATOM      2  O2  <0> d          -1.481   4.350  -2.021  0.00  0.00    -0.262 OA
ENDROOT
BRANCH   1   3
ATOM      3  O1  <0> d          -3.320   3.463  -1.175  0.00  0.00    -0.316 OA
BRANCH   3   4
ATOM      4  C3  <0> d          -4.054   3.973  -2.320  0.00  0.00     0.043 C 
ATOM      5  H5  <0> d          -3.966   5.059  -2.353  0.00  0.00     0.081 H 
ATOM      6  H6  <0> d          -3.642   3.547  -3.235  0.00  0.00     0.081 H 
BRANCH   4   7
ATOM      7  C2  <0> d          -5.506   3.589  -2.197  0.00  0.00    -0.089 C 
ATOM      8  C1  <0> d          -6.440   4.475  -2.439  0.00  0.00    -0.123 C 
ATOM      9  H2  <0> d          -6.170   5.480  -2.728  0.00  0.00     0.066 H 
ATOM     10  H3  <0> d          -7.481   4.200  -2.351  0.00  0.00     0.066 H 
ATOM     11  H4  <0> d          -5.777   2.584  -1.908  0.00  0.00     0.078 H 
ENDBRANCH   4   7
ENDBRANCH   3   4
ENDBRANCH   1   3
BRANCH   1  12
ATOM     12  C5  <0> d          -1.176   3.222   0.025  0.00  0.00     0.135 C 
ATOM     13  H1  <0> d          -1.611   3.575   0.961  0.00  0.00     0.105 H 
BRANCH  12  14
ATOM     14  C6  <0> d          -1.156   1.715   0.017  0.00  0.00    -0.075 C 
ATOM     15  C7  <0> d          -0.013   1.076   0.008  0.00  0.00    -0.122 C 
ATOM     16  H8  <0> d           0.002  -0.004   0.002  0.00  0.00     0.066 H 
ATOM     17  H9  <0> d           0.915   1.629   0.002  0.00  0.00     0.066 H 
ATOM     18  H7  <0> d          -2.084   1.163   0.018  0.00  0.00     0.080 H 
ENDBRANCH  12  14
BRANCH  12  19
ATOM     19  O3  <0> d           0.159   3.717  -0.096  0.00  0.00    -0.382 OA
ATOM     20  H10 <0> d           0.608   3.442  -0.907  0.00  0.00     0.211 HD
ENDBRANCH  12  19
ENDBRANCH   1  12
TORSDOF 6
