REMARK  2 active torsions:
REMARK  status: ('A' for Active; 'I' for Inactive)
REMARK    1  A    between atoms: C3_3  and  N4_8 
REMARK    2  A    between atoms: C4_5  and  N3_7 
ROOT
ATOM      1  C1  <0> d           1.173   2.163   0.003  0.00  0.00     0.045 A 
ATOM      2  C2  <0> d          -0.017   1.428   0.010  0.00  0.00     0.108 A 
ATOM      3  C3  <0> d          -1.238   2.137   0.019  0.00  0.00     0.162 A 
ATOM      4  N1  <0> d          -1.207   3.464   0.031  0.00  0.00    -0.044 NA
ATOM      5  C4  <0> d          -0.054   4.115   0.024  0.00  0.00     0.721 A 
ATOM      6  N2  <0> d           1.112   3.482   0.010  0.00  0.00    -0.074 NA
ATOM      7  C5  <0> d           0.002  -0.004   0.002  0.00  0.00     0.105 C 
ATOM      8  N5  <0> d           0.018  -1.140  -0.004  0.00  0.00    -0.191 NA
ATOM      9  H1  <0> d           2.128   1.659  -0.009  0.00  0.00     0.118 H 
ENDROOT
BRANCH   3  10
ATOM     10  N4  <0> d          -2.442   1.462   0.021  0.00  0.00    -0.382 N 
ATOM     11  H4  <0> d          -2.454   0.492   0.016  0.00  0.00     0.157 HD
ATOM     12  H5  <0> d          -3.276   1.958   0.028  0.00  0.00     0.157 HD
ENDBRANCH   3  10
BRANCH   5  13
ATOM     13  N3  <0> d          -0.065   5.496   0.030  0.00  0.00    -0.231 N 
ATOM     14  H2  <0> d           0.771   5.988   0.025  0.00  0.00     0.174 HD
ATOM     15  H3  <0> d          -0.909   5.974   0.041  0.00  0.00     0.174 HD
ENDBRANCH   5  13
TORSDOF 2
