REMARK  7 active torsions:
REMARK  status: ('A' for Active; 'I' for Inactive)
REMARK    1  A    between atoms: C1_1  and  C2_2 
REMARK    2  A    between atoms: C2_2  and  C3_3 
REMARK    3  A    between atoms: C2_2  and  O1_4 
REMARK    4  A    between atoms: O1_4  and  C4_5 
REMARK    5  A    between atoms: C4_5  and  C5_6 
REMARK    6  A    between atoms: C5_6  and  O3_8 
REMARK    7  A    between atoms: O3_8  and  C6_9 
ROOT
ATOM      1  O1  <0> d           0.693  -0.477   1.160  0.00  0.00    -0.377 OA
ENDROOT
BRANCH   1   2
ATOM      2  C2  <0> d           0.002  -0.004   0.002  0.00  0.00     0.032 C 
ATOM      3  H4  <0> d          -1.020  -0.381   0.010  0.00  0.00     0.082 H 
BRANCH   2   4
ATOM      4  C1  <0> d          -0.019   1.526   0.010  0.00  0.00    -0.052 C 
ATOM      5  H1  <0> d           1.004   1.903   0.003  0.00  0.00     0.030 H 
ATOM      6  H2  <0> d          -0.546   1.887  -0.873  0.00  0.00     0.030 H 
ATOM      7  H3  <0> d          -0.529   1.877   0.907  0.00  0.00     0.030 H 
ENDBRANCH   2   4
BRANCH   2   8
ATOM      8  C3  <0> d           0.718  -0.497  -1.257  0.00  0.00    -0.052 C 
ATOM      9  H5  <0> d           1.741  -0.120  -1.264  0.00  0.00     0.030 H 
ATOM     10  H6  <0> d           0.733  -1.587  -1.263  0.00  0.00     0.030 H 
ATOM     11  H7  <0> d           0.191  -0.136  -2.140  0.00  0.00     0.030 H 
ENDBRANCH   2   8
ENDBRANCH   1   2
BRANCH   1  12
ATOM     12  C4  <0> d          -0.150  -0.689   2.294  0.00  0.00     0.100 C 
ATOM     13  H8  <0> d          -0.632   0.249   2.568  0.00  0.00     0.089 H 
ATOM     14  H9  <0> d          -0.911  -1.430   2.048  0.00  0.00     0.089 H 
BRANCH  12  15
ATOM     15  C5  <0> d           0.679  -1.185   3.451  0.00  0.00     0.282 C 
ATOM     16  O2  <0> d           1.870  -1.341   3.317  0.00  0.00    -0.263 OA
BRANCH  15  17
ATOM     17  O3  <0> d           0.095  -1.453   4.629  0.00  0.00    -0.325 OA
BRANCH  17  18
ATOM     18  C6  <0> d           0.941  -1.919   5.681  0.00  0.00     0.013 C 
ATOM     19  H10 <0> d           1.423  -2.848   5.376  0.00  0.00     0.067 H 
ATOM     20  H11 <0> d           1.702  -1.169   5.896  0.00  0.00     0.067 H 
ATOM     21  H12 <0> d           0.344  -2.097   6.576  0.00  0.00     0.067 H 
ENDBRANCH  17  18
ENDBRANCH  15  17
ENDBRANCH  12  15
ENDBRANCH   1  12
TORSDOF 7
