REMARK  1 active torsions:
REMARK  status: ('A' for Active; 'I' for Inactive)
REMARK    1  A    between atoms: C3_4  and  C5_8 
ROOT
ATOM      1  C1  <0> d          -0.017   1.383   0.010  0.00  0.00    -0.027 A 
ATOM      2  C2  <0> d           1.193   2.059   0.002  0.00  0.00     0.007 A 
ATOM      3  N1  <0> d           2.319   1.363  -0.013  0.00  0.00    -0.245 NA
ATOM      4  C3  <0> d           2.299   0.045  -0.020  0.00  0.00     0.131 A 
ATOM      5  N2  <0> d           1.168  -0.632  -0.013  0.00  0.00    -0.221 NA
ATOM      6  C4  <0> d           0.002  -0.004   0.002  0.00  0.00     0.129 A 
ATOM      7 Cl1  <0> d          -1.482  -0.904   0.012  0.00  0.00    -0.062 Cl
ATOM      8  H1  <0> d          -0.952   1.924   0.026  0.00  0.00     0.090 H 
ATOM      9  H2  <0> d           1.217   3.138   0.007  0.00  0.00     0.115 H 
ENDROOT
BRANCH   4  10
ATOM     10  C5  <0> d           3.604  -0.708  -0.036  0.00  0.00     0.006 A 
ATOM     11  C7  <0> d           3.888  -1.655   1.131  0.00  0.00    -0.054 A 
ATOM     12  C6  <0> d           3.544  -2.222  -0.247  0.00  0.00    -0.054 A 
ATOM     13  H6  <0> d           4.921  -1.743   1.468  0.00  0.00     0.034 H 
ATOM     14  H7  <0> d           3.131  -1.733   1.911  0.00  0.00     0.034 H 
ATOM     15  H4  <0> d           2.560  -2.674  -0.374  0.00  0.00     0.034 H 
ATOM     16  H5  <0> d           4.350  -2.683  -0.818  0.00  0.00     0.034 H 
ATOM     17  H3  <0> d           4.450  -0.173  -0.467  0.00  0.00     0.052 H 
ENDBRANCH   4  10
TORSDOF 1
