REMARK  7 active torsions:
REMARK  status: ('A' for Active; 'I' for Inactive)
REMARK    1  A    between atoms: C1_1  and  C2_2 
REMARK    2  A    between atoms: C2_2  and  C3_4 
REMARK    3  A    between atoms: C2_2  and  C4_6 
REMARK    4  A    between atoms: C3_4  and  O1_5 
REMARK    5  A    between atoms: C4_6  and  C5_8 
REMARK    6  A    between atoms: C4_6  and  C6_9 
REMARK    7  A    between atoms: C6_9  and  O2_10 
ROOT
ATOM      1  C2  <0> d           0.002  -0.004   0.002  0.00  0.00    -0.032 C 
ATOM      2  H1  <0> d           0.512  -0.356  -0.895  0.00  0.00     0.043 H 
ENDROOT
BRANCH   1   3
ATOM      3  C1  <0> d          -0.019   1.526   0.010  0.00  0.00    -0.071 C 
ATOM      4  H3  <0> d           1.004   1.903   0.003  0.00  0.00     0.028 H 
ATOM      5  H4  <0> d          -0.546   1.887  -0.873  0.00  0.00     0.028 H 
ATOM      6  H5  <0> d          -0.529   1.877   0.907  0.00  0.00     0.028 H 
ENDBRANCH   1   3
BRANCH   1   7
ATOM      7  C3  <0> d           0.742  -0.511   1.242  0.00  0.00     0.020 C 
ATOM      8  H6  <0> d           0.285  -0.087   2.136  0.00  0.00     0.074 H 
ATOM      9  H7  <0> d           0.680  -1.598   1.282  0.00  0.00     0.074 H 
BRANCH   7  10
ATOM     10  O1  <0> d           2.113  -0.114   1.173  0.00  0.00    -0.400 OA
ATOM     11  H8  <0> d           2.644  -0.402   1.929  0.00  0.00     0.209 HD
ENDBRANCH   7  10
ENDBRANCH   1   7
BRANCH   1  12
ATOM     12  C4  <0> d          -1.433  -0.534   0.013  0.00  0.00    -0.032 C 
ATOM     13  H2  <0> d          -1.944  -0.182   0.910  0.00  0.00     0.043 H 
BRANCH  12  14
ATOM     14  C5  <0> d          -2.173  -0.027  -1.227  0.00  0.00    -0.071 C 
ATOM     15  H9  <0> d          -3.196  -0.404  -1.219  0.00  0.00     0.028 H 
ATOM     16  H10 <0> d          -2.188   1.063  -1.221  0.00  0.00     0.028 H 
ATOM     17  H11 <0> d          -1.663  -0.378  -2.123  0.00  0.00     0.028 H 
ENDBRANCH  12  14
BRANCH  12  18
ATOM     18  C6  <0> d          -1.413  -2.063   0.004  0.00  0.00     0.020 C 
ATOM     19  H12 <0> d          -0.982  -2.416  -0.933  0.00  0.00     0.074 H 
ATOM     20  H13 <0> d          -0.810  -2.423   0.839  0.00  0.00     0.074 H 
BRANCH  18  21
ATOM     21  O2  <0> d          -2.747  -2.559   0.132  0.00  0.00    -0.400 OA
ATOM     22  H14 <0> d          -2.810  -3.524   0.134  0.00  0.00     0.209 HD
ENDBRANCH  18  21
ENDBRANCH  12  18
ENDBRANCH   1  12
TORSDOF 7
