REMARK  2 active torsions:
REMARK  status: ('A' for Active; 'I' for Inactive)
REMARK    1  A    between atoms: C1_1  and  C2_2 
REMARK    2  A    between atoms: C4_5  and  C8_13 
ROOT
ATOM      1  C2  <0> d          -2.233   1.273   1.163  0.00  0.00     0.009 C 
ATOM      2  H1  <0> d          -2.405   0.200   0.992  0.00  0.00     0.071 H 
ATOM      3  C3  <0> d          -0.735   1.583   1.266  0.00  0.00    -0.026 C 
ATOM      4  C4  <0> d          -0.013   1.086   0.008  0.00  0.00     0.035 C 
ATOM      5  H2  <0> d          -0.012  -0.013  -0.038  0.00  0.00     0.075 H 
ATOM      6  N1  <0> d          -0.726   1.573  -1.175  0.00  0.00    -0.250 N 
ATOM      7  C5  <0> d          -2.017   2.003  -1.153  0.00  0.00     0.121 A 
ATOM      8  C6  <0> d          -2.350   2.381  -2.407  0.00  0.00    -0.021 A 
ATOM      9  C7  <0> d          -1.224   2.175  -3.225  0.00  0.00     0.025 A 
ATOM     10  N2  <0> d          -0.257   1.691  -2.483  0.00  0.00    -0.183 NA
ATOM     11  N3  <0> d          -2.787   2.014   0.013  0.00  0.00    -0.371 N 
ATOM     12  H6  <0> d          -0.591   2.669   1.362  0.00  0.00     0.039 H 
ATOM     13  H7  <0> d          -0.316   1.077   2.148  0.00  0.00     0.039 H 
ATOM     14  H8  <0> d          -3.306   2.772  -2.722  0.00  0.00     0.091 H 
ATOM     15  H9  <0> d          -1.165   2.380  -4.284  0.00  0.00     0.117 H 
ATOM     16  H10 <0> d          -3.752   2.532   0.105  0.00  0.00     0.161 HD
ENDROOT
BRANCH   1  17
ATOM     17  C1  <0> d          -2.937   1.710   2.449  0.00  0.00    -0.057 C 
ATOM     18  H3  <0> d          -2.521   1.155   3.302  0.00  0.00     0.030 H 
ATOM     19  H4  <0> d          -4.014   1.502   2.366  0.00  0.00     0.030 H 
ATOM     20  H5  <0> d          -2.784   2.789   2.602  0.00  0.00     0.030 H 
ENDBRANCH   1  17
BRANCH   4  21
ATOM     21  C8  <0> d           1.422   1.618  -0.003  0.00  0.00    -0.055 C 
ATOM     22  H11 <0> d           1.938   1.260  -0.906  0.00  0.00     0.030 H 
ATOM     23  H12 <0> d           1.953   1.258   0.890  0.00  0.00     0.030 H 
ATOM     24  H13 <0> d           1.405   2.718  -0.001  0.00  0.00     0.030 H 
ENDBRANCH   4  21
TORSDOF 2
