REMARK  1 active torsions:
REMARK  status: ('A' for Active; 'I' for Inactive)
REMARK    1  A    between atoms: C6_8  and  C7_9 
ROOT
ATOM      1  C1  <0> d          -0.990   1.654  -1.257  0.00  0.00    -0.064 C 
ATOM      2  C2  <0> d          -2.429   1.495  -0.706  0.00  0.00    -0.060 C 
ATOM      3  C3  <0> d          -2.305   1.865   0.787  0.00  0.00    -0.036 A 
ATOM      4  H1  <0> d          -2.866   2.731   1.137  0.00  0.00     0.042 H 
ATOM      5  C4  <0> d          -0.832   1.631   1.179  0.00  0.00    -0.036 A 
ATOM      6  H2  <0> d          -0.293   2.337   1.811  0.00  0.00     0.042 H 
ATOM      7  C5  <0> d          -0.117   1.127  -0.091  0.00  0.00    -0.060 C 
ATOM      8  C6  <0> d          -1.939   0.759   1.778  0.00  0.00     0.038 A 
ATOM      9  H3  <0> d          -0.768   2.701  -1.463  0.00  0.00     0.033 H 
ATOM     10  H4  <0> d          -0.849   1.046  -2.151  0.00  0.00     0.033 H 
ATOM     11  H5  <0> d          -3.109   2.178  -1.213  0.00  0.00     0.033 H 
ATOM     12  H6  <0> d          -2.768   0.465  -0.817  0.00  0.00     0.033 H 
ATOM     13  H7  <0> d          -0.083   0.037  -0.103  0.00  0.00     0.033 H 
ATOM     14  H8  <0> d           0.890   1.540  -0.152  0.00  0.00     0.033 H 
ATOM     15  H9  <0> d          -2.192   0.920   2.826  0.00  0.00     0.057 H 
ENDROOT
BRANCH   8  16
ATOM     16  C7  <0> d          -2.038  -0.666   1.297  0.00  0.00     0.177 C 
ATOM     17  O1  <0> d          -1.052  -1.362   1.264  0.00  0.00    -0.648 OA
ATOM     18  O2  <0> d          -3.223  -1.161   0.906  0.00  0.00    -0.648 OA
ENDBRANCH   8  16
TORSDOF 1
