REMARK  4 active torsions:
REMARK  status: ('A' for Active; 'I' for Inactive)
REMARK    1  A    between atoms: C1_1  and  C2_2 
REMARK    2  A    between atoms: C2_2  and  C3_3 
REMARK    3  A    between atoms: C2_2  and  N1_4 
REMARK    4  A    between atoms: N1_4  and  C4_5 
ROOT
ATOM      1  N1  <0> d           0.688  -0.476  -1.203  0.00  0.00    -0.386 N 
ATOM      2  H8  <0> d           1.426   0.167  -1.704  0.00  0.00     0.160 HD
ENDROOT
BRANCH   1   3
ATOM      3  C2  <0> d           0.002  -0.004   0.002  0.00  0.00     0.003 C 
ATOM      4  H4  <0> d          -1.022  -0.405  -0.029  0.00  0.00     0.071 H 
BRANCH   3   5
ATOM      5  C1  <0> d          -0.019   1.526   0.010  0.00  0.00    -0.058 C 
ATOM      6  H1  <0> d          -0.551   1.890  -0.881  0.00  0.00     0.030 H 
ATOM      7  H2  <0> d           1.013   1.907   0.003  0.00  0.00     0.030 H 
ATOM      8  H3  <0> d          -0.534   1.881   0.915  0.00  0.00     0.030 H 
ENDBRANCH   3   5
BRANCH   3   9
ATOM      9  C3  <0> d           0.742  -0.511   1.242  0.00  0.00    -0.058 C 
ATOM     10  H5  <0> d           0.757  -1.611   1.235  0.00  0.00     0.030 H 
ATOM     11  H6  <0> d           0.227  -0.156   2.147  0.00  0.00     0.030 H 
ATOM     12  H7  <0> d           1.774  -0.130   1.234  0.00  0.00     0.030 H 
ENDBRANCH   3   9
ENDBRANCH   1   3
BRANCH   1  13
ATOM     13  C4  <0> d           0.404  -1.744  -1.717  0.00  0.00     0.031 A 
ATOM     14  C9  <0> d           1.053  -2.193  -2.859  0.00  0.00    -0.020 A 
ATOM     15  C8  <0> d           0.770  -3.449  -3.365  0.00  0.00     0.118 A 
ATOM     16  H12 <0> d           1.778  -1.562  -3.352  0.00  0.00     0.091 H 
ATOM     17  C7  <0> d          -0.160  -4.257  -2.732  0.00  0.00    -0.046 A 
ATOM     18  F1  <0> d           1.401  -3.888  -4.476  0.00  0.00    -0.206 F 
ATOM     19  C6  <0> d          -0.807  -3.811  -1.594  0.00  0.00    -0.078 A 
ATOM     20  H11 <0> d          -0.380  -5.238  -3.127  0.00  0.00     0.088 H 
ATOM     21  C5  <0> d          -0.524  -2.560  -1.082  0.00  0.00    -0.057 A 
ATOM     22  H10 <0> d          -1.532  -4.444  -1.103  0.00  0.00     0.083 H 
ATOM     23  H9  <0> d          -1.028  -2.215  -0.191  0.00  0.00     0.086 H 
ENDBRANCH   1  13
TORSDOF 4
