REMARK  2 active torsions:
REMARK  status: ('A' for Active; 'I' for Inactive)
REMARK    1  A    between atoms: C1_1  and  C2_2 
REMARK    2  A    between atoms: C3_4  and  N3_7 
ROOT
ATOM      1  C2  <0> d           1.257   2.001   0.001  0.00  0.00     0.133 A 
ATOM      2  N1  <0> d           2.147   1.037  -0.013  0.00  0.00    -0.208 NA
ATOM      3  C3  <0> d           1.724  -0.220  -0.016  0.00  0.00     0.184 A 
ATOM      4  S1  <0> d           0.002  -0.004   0.002  0.00  0.00     0.051 SA
ATOM      5  N2  <0> d          -0.021   1.708   0.011  0.00  0.00    -0.193 NA
ENDROOT
BRANCH   1   6
ATOM      6  C1  <0> d           1.702   3.441   0.004  0.00  0.00    -0.019 C 
ATOM      7  H1  <0> d           1.819   3.783   1.032  0.00  0.00     0.037 H 
ATOM      8  H2  <0> d           2.654   3.528  -0.519  0.00  0.00     0.037 H 
ATOM      9  H3  <0> d           0.954   4.053  -0.499  0.00  0.00     0.037 H 
ENDBRANCH   1   6
BRANCH   3  10
ATOM     10  N3  <0> d           2.459  -1.391  -0.028  0.00  0.00    -0.377 N 
ATOM     11  H4  <0> d           2.006  -2.248  -0.028  0.00  0.00     0.158 HD
ATOM     12  H5  <0> d           3.428  -1.355  -0.037  0.00  0.00     0.158 HD
ENDBRANCH   3  10
TORSDOF 2
