REMARK  4 active torsions:
REMARK  status: ('A' for Active; 'I' for Inactive)
REMARK    1  A    between atoms: C1_1  and  C2_2 
REMARK    2  A    between atoms: C2_2  and  O1_3 
REMARK    3  A    between atoms: O1_3  and  C3_4 
REMARK    4  A    between atoms: C4_5  and  C6_9 
ROOT
ATOM      1  C3  <0> d          -0.720   3.130   0.025  0.00  0.00     0.211 A 
ATOM      2  C4  <0> d           0.629   3.130   0.012  0.00  0.00     0.090 A 
ATOM      3  N1  <0> d           1.036   1.847   0.002  0.00  0.00    -0.237 NA
ATOM      4  C5  <0> d          -0.013   1.076   0.008  0.00  0.00     0.106 A 
ATOM      5  O2  <0> d          -1.115   1.842   0.017  0.00  0.00    -0.280 OA
ATOM      6  H6  <0> d           0.002  -0.004   0.002  0.00  0.00     0.155 H 
ENDROOT
BRANCH   1   7
ATOM      7  O1  <0> d          -1.528   4.222   0.038  0.00  0.00    -0.329 OA
BRANCH   7   8
ATOM      8  C2  <0> d          -2.937   3.986   0.050  0.00  0.00     0.025 C 
ATOM      9  H4  <0> d          -3.205   3.410   0.948  0.00  0.00     0.074 H 
ATOM     10  H5  <0> d          -3.222   3.420  -0.848  0.00  0.00     0.074 H 
BRANCH   8  11
ATOM     11  C1  <0> d          -3.678   5.325   0.065  0.00  0.00    -0.056 C 
ATOM     12  H1  <0> d          -4.763   5.144   0.074  0.00  0.00     0.030 H 
ATOM     13  H2  <0> d          -3.410   5.902  -0.833  0.00  0.00     0.030 H 
ATOM     14  H3  <0> d          -3.393   5.892   0.963  0.00  0.00     0.030 H 
ENDBRANCH   8  11
ENDBRANCH   7   8
ENDBRANCH   1   7
BRANCH   2  15
ATOM     15  C6  <0> d           1.519   4.346   0.011  0.00  0.00    -0.031 C 
ATOM     16  H7  <0> d           2.573   4.029  -0.001  0.00  0.00     0.035 H 
ATOM     17  H8  <0> d           1.326   4.943   0.914  0.00  0.00     0.035 H 
ATOM     18  H9  <0> d           1.309   4.953  -0.882  0.00  0.00     0.035 H 
ENDBRANCH   2  15
TORSDOF 4
