REMARK  3 active torsions:
REMARK  status: ('A' for Active; 'I' for Inactive)
REMARK    1  A    between atoms: C1_1  and  C2_2 
REMARK    2  A    between atoms: C7_8  and  C9_11 
REMARK    3  A    between atoms: C7_8  and  C10_12 
ROOT
ATOM      1  C2  <0> d          -0.120  -0.245   0.381  0.00  0.00     0.018 C 
ATOM      2  C3  <0> d          -1.389  -1.133   0.563  0.00  0.00    -0.051 C 
ATOM      3  C4  <0> d          -0.835  -2.551   0.837  0.00  0.00    -0.059 C 
ATOM      4  C5  <0> d           0.714  -2.381   0.784  0.00  0.00    -0.040 C 
ATOM      5  H1  <0> d           1.299  -3.168   1.260  0.00  0.00     0.041 H 
ATOM      6  C6  <0> d           0.868  -0.938   1.385  0.00  0.00    -0.047 C 
ATOM      7  C7  <0> d           1.022  -2.111  -0.721  0.00  0.00     0.018 C 
ATOM      8  C8  <0> d           0.485  -0.674  -0.963  0.00  0.00     0.143 C 
ATOM      9  O1  <0> d           0.513  -0.039  -1.989  0.00  0.00    -0.296 OA
ATOM     10  H5  <0> d          -1.978  -0.785   1.412  0.00  0.00     0.034 H 
ATOM     11  H6  <0> d          -1.990  -1.128  -0.346  0.00  0.00     0.034 H 
ATOM     12  H7  <0> d          -1.147  -2.897   1.822  0.00  0.00     0.033 H 
ATOM     13  H8  <0> d          -1.168  -3.244   0.065  0.00  0.00     0.033 H 
ATOM     14  H9  <0> d           1.885  -0.559   1.286  0.00  0.00     0.035 H 
ATOM     15  H10 <0> d           0.512  -0.882   2.414  0.00  0.00     0.035 H 
ENDROOT
BRANCH   7  16
ATOM     16  C9  <0> d           2.531  -2.148  -0.971  0.00  0.00    -0.062 C 
ATOM     17  H11 <0> d           2.920  -3.130  -0.699  0.00  0.00     0.029 H 
ATOM     18  H12 <0> d           2.729  -1.959  -2.026  0.00  0.00     0.029 H 
ATOM     19  H13 <0> d           3.018  -1.384  -0.366  0.00  0.00     0.029 H 
ENDBRANCH   7  16
BRANCH   7  20
ATOM     20  C10 <0> d           0.310  -3.139  -1.602  0.00  0.00    -0.062 C 
ATOM     21  H14 <0> d          -0.767  -2.977  -1.552  0.00  0.00     0.029 H 
ATOM     22  H15 <0> d           0.646  -3.029  -2.633  0.00  0.00     0.029 H 
ATOM     23  H16 <0> d           0.543  -4.144  -1.249  0.00  0.00     0.029 H 
ENDBRANCH   7  20
BRANCH   1  24
ATOM     24  C1  <0> d          -0.326   1.260   0.570  0.00  0.00    -0.062 C 
ATOM     25  H2  <0> d           0.628   1.774   0.457  0.00  0.00     0.029 H 
ATOM     26  H3  <0> d          -1.028   1.627  -0.180  0.00  0.00     0.029 H 
ATOM     27  H4  <0> d          -0.726   1.450   1.566  0.00  0.00     0.029 H 
ENDBRANCH   1  24
TORSDOF 3
