REMARK  2 active torsions:
REMARK  status: ('A' for Active; 'I' for Inactive)
REMARK    1  A    between atoms: C1_1  and  N1_2 
REMARK       I    between atoms: N1_2  and  C2_3 
REMARK       I    between atoms: C2_3  and  N2_5 
REMARK    2  A    between atoms: N2_5  and  C3_6 
ROOT
ATOM      1  C3  <0> d          -0.021   1.395   0.003  0.00  0.00     0.036 A 
ATOM      2  C4  <0> d          -1.235   2.071   0.005  0.00  0.00    -0.057 A 
ATOM      3  C5  <0> d          -1.254   3.452   0.011  0.00  0.00    -0.081 A 
ATOM      4  C6  <0> d          -0.068   4.162   0.006  0.00  0.00    -0.083 A 
ATOM      5  C7  <0> d           1.142   3.492  -0.001  0.00  0.00    -0.081 A 
ATOM      6  C8  <0> d           1.169   2.111  -0.002  0.00  0.00    -0.057 A 
ATOM      7  H6  <0> d          -2.162   1.517   0.004  0.00  0.00     0.086 H 
ATOM      8  H7  <0> d          -2.198   3.978   0.016  0.00  0.00     0.083 H 
ATOM      9  H8  <0> d          -0.086   5.242   0.007  0.00  0.00     0.083 H 
ATOM     10  H9  <0> d           2.067   4.049  -0.004  0.00  0.00     0.083 H 
ATOM     11  H10 <0> d           2.114   1.589  -0.008  0.00  0.00     0.086 H 
ENDROOT
BRANCH   1  12
ATOM     12  N2  <0> d           0.002  -0.004   0.002  0.00  0.00    -0.309 N 
ATOM     13  C2  <0> d          -0.938  -0.695   0.677  0.00  0.00     0.320 C 
ATOM     14  N1  <0> d          -0.863  -2.038   0.753  0.00  0.00    -0.347 N 
ATOM     15  O1  <0> d          -1.855  -0.105   1.216  0.00  0.00    -0.247 OA
ATOM     16  H4  <0> d          -0.132  -2.508   0.323  0.00  0.00     0.163 HD
ATOM     17  H5  <0> d           0.695  -0.477  -0.485  0.00  0.00     0.170 HD
BRANCH  14  18
ATOM     18  C1  <0> d          -1.885  -2.788   1.487  0.00  0.00    -0.017 C 
ATOM     19  H1  <0> d          -1.896  -2.466   2.528  0.00  0.00     0.056 H 
ATOM     20  H2  <0> d          -2.862  -2.605   1.039  0.00  0.00     0.056 H 
ATOM     21  H3  <0> d          -1.658  -3.853   1.439  0.00  0.00     0.056 H 
ENDBRANCH  14  18
ENDBRANCH   1  12
TORSDOF 2
