REMARK  3 active torsions:
REMARK  status: ('A' for Active; 'I' for Inactive)
REMARK    1  A    between atoms: C1_1  and  N1_2 
REMARK    2  A    between atoms: N1_2  and  C2_3 
REMARK    3  A    between atoms: N1_2  and  C3_4 
ROOT
ATOM      1  C3  <0> d          -0.049   1.114   2.371  0.00  0.00     0.049 A 
ATOM      2  C4  <0> d           1.274   1.464   2.603  0.00  0.00    -0.059 A 
ATOM      3  C5  <0> d           1.914   1.025   3.746  0.00  0.00    -0.081 A 
ATOM      4  C6  <0> d           1.241   0.230   4.655  0.00  0.00    -0.080 A 
ATOM      5  C7  <0> d          -0.076  -0.125   4.427  0.00  0.00    -0.044 A 
ATOM      6  C8  <0> d          -0.724   0.314   3.287  0.00  0.00     0.137 A 
ATOM      7  F1  <0> d          -2.010  -0.034   3.063  0.00  0.00    -0.204 F 
ATOM      8  H7  <0> d           1.802   2.081   1.891  0.00  0.00     0.086 H 
ATOM      9  H8  <0> d           2.942   1.300   3.928  0.00  0.00     0.083 H 
ATOM     10  H9  <0> d           1.745  -0.115   5.546  0.00  0.00     0.083 H 
ATOM     11  H10 <0> d          -0.599  -0.747   5.139  0.00  0.00     0.088 H 
ENDROOT
BRANCH   1  12
ATOM     12  N1  <0> d          -0.700   1.560   1.217  0.00  0.00    -0.289 NA
BRANCH  12  13
ATOM     13  C1  <0> d          -0.013   1.086   0.008  0.00  0.00    -0.029 C 
ATOM     14  H1  <0> d           0.002  -0.004   0.002  0.00  0.00     0.048 H 
ATOM     15  H2  <0> d           1.010   1.463   0.000  0.00  0.00     0.048 H 
ATOM     16  H3  <0> d          -0.540   1.447  -0.875  0.00  0.00     0.048 H 
ENDBRANCH  12  13
BRANCH  12  17
ATOM     17  C2  <0> d          -0.822   3.023   1.213  0.00  0.00    -0.029 C 
ATOM     18  H4  <0> d          -1.332   3.344   0.305  0.00  0.00     0.048 H 
ATOM     19  H5  <0> d          -1.396   3.342   2.083  0.00  0.00     0.048 H 
ATOM     20  H6  <0> d           0.171   3.471   1.249  0.00  0.00     0.048 H 
ENDBRANCH  12  17
ENDBRANCH   1  12
TORSDOF 3
