REMARK  5 active torsions:
REMARK  status: ('A' for Active; 'I' for Inactive)
REMARK    1  A    between atoms: C1_1  and  C2_2 
REMARK    2  A    between atoms: C2_2  and  C3_3 
REMARK    3  A    between atoms: C2_2  and  C4_4 
REMARK    4  A    between atoms: C7_7  and  N1_10 
REMARK    5  A    between atoms: N1_10  and  C10_11 
ROOT
ATOM      1  C4  <0> d          -3.645   2.998   0.037  0.00  0.00    -0.055 A 
ATOM      2  C5  <0> d          -3.628   1.616   0.029  0.00  0.00    -0.074 A 
ATOM      3  C6  <0> d          -2.424   0.938   0.019  0.00  0.00    -0.057 A 
ATOM      4  C7  <0> d          -1.230   1.648   0.017  0.00  0.00     0.027 A 
ATOM      5  C8  <0> d          -1.251   3.037   0.030  0.00  0.00    -0.057 A 
ATOM      6  C9  <0> d          -2.458   3.708   0.035  0.00  0.00    -0.074 A 
ATOM      7  H8  <0> d          -4.557   1.065   0.030  0.00  0.00     0.084 H 
ATOM      8  H9  <0> d          -2.412  -0.141   0.012  0.00  0.00     0.086 H 
ATOM      9  H10 <0> d          -0.324   3.591   0.033  0.00  0.00     0.086 H 
ATOM     10  H11 <0> d          -2.474   4.787   0.041  0.00  0.00     0.084 H 
ENDROOT
BRANCH   1  11
ATOM     11  C2  <0> d          -4.960   3.734   0.047  0.00  0.00    -0.036 C 
ATOM     12  H4  <0> d          -5.779   3.015   0.046  0.00  0.00     0.046 H 
BRANCH  11  13
ATOM     13  C1  <0> d          -5.047   4.605   1.302  0.00  0.00    -0.069 C 
ATOM     14  H1  <0> d          -4.229   5.325   1.302  0.00  0.00     0.028 H 
ATOM     15  H2  <0> d          -5.999   5.138   1.309  0.00  0.00     0.028 H 
ATOM     16  H3  <0> d          -4.977   3.974   2.188  0.00  0.00     0.028 H 
ENDBRANCH  11  13
BRANCH  11  17
ATOM     17  C3  <0> d          -5.059   4.620  -1.197  0.00  0.00    -0.069 C 
ATOM     18  H5  <0> d          -4.997   3.999  -2.091  0.00  0.00     0.028 H 
ATOM     19  H6  <0> d          -6.010   5.152  -1.189  0.00  0.00     0.028 H 
ATOM     20  H7  <0> d          -4.240   5.339  -1.196  0.00  0.00     0.028 H 
ENDBRANCH  11  17
ENDBRANCH   1  11
BRANCH   4  21
ATOM     21  N1  <0> d          -0.011   0.966   0.007  0.00  0.00    -0.394 N 
ATOM     22  H12 <0> d           0.002  -0.004   0.002  0.00  0.00     0.159 HD
BRANCH  21  23
ATOM     23  C10 <0> d           1.248   1.716  -0.001  0.00  0.00    -0.021 C 
ATOM     24  H13 <0> d           1.288   2.348  -0.888  0.00  0.00     0.056 H 
ATOM     25  H14 <0> d           1.305   2.338   0.892  0.00  0.00     0.056 H 
ATOM     26  H15 <0> d           2.086   1.019  -0.012  0.00  0.00     0.056 H 
ENDBRANCH  21  23
ENDBRANCH   4  21
TORSDOF 5
