REMARK  1 active torsions:
REMARK  status: ('A' for Active; 'I' for Inactive)
REMARK    1  A    between atoms: C1_1  and  N1_2 
ROOT
ATOM      1  N1  <0> d           0.002  -0.004   0.002  0.00  0.00    -0.369 N 
ATOM      2  C2  <0> d           0.008  -0.778  -1.121  0.00  0.00    -0.020 A 
ATOM      3  C3  <0> d           0.027  -2.073  -0.758  0.00  0.00    -0.047 A 
ATOM      4  C4  <0> d           0.033  -2.090   0.709  0.00  0.00     0.061 A 
ATOM      5  C5  <0> d           0.023  -0.781   1.104  0.00  0.00    -0.001 A 
ATOM      6  C6  <0> d           0.052  -3.244   1.556  0.00  0.00     0.101 C 
ATOM      7  N2  <0> d           0.067  -4.160   2.228  0.00  0.00    -0.191 NA
ATOM      8  H4  <0> d          -0.002  -0.411  -2.137  0.00  0.00     0.111 H 
ATOM      9  H5  <0> d           0.035  -2.930  -1.415  0.00  0.00     0.088 H 
ATOM     10  H6  <0> d           0.028  -0.429   2.125  0.00  0.00     0.113 H 
ENDROOT
BRANCH   1  11
ATOM     11  C1  <0> d          -0.018   1.461   0.010  0.00  0.00    -0.015 C 
ATOM     12  H1  <0> d           1.005   1.838   0.002  0.00  0.00     0.057 H 
ATOM     13  H2  <0> d          -0.545   1.822  -0.873  0.00  0.00     0.057 H 
ATOM     14  H3  <0> d          -0.528   1.812   0.907  0.00  0.00     0.057 H 
ENDBRANCH   1  11
TORSDOF 1
