REMARK  3 active torsions:
REMARK  status: ('A' for Active; 'I' for Inactive)
REMARK    1  A    between atoms: C3_3  and  N2_9 
REMARK    2  A    between atoms: C4_4  and  C6_7 
REMARK    3  A    between atoms: C6_7  and  O1_8 
ROOT
ATOM      1  C1  <0> d           1.193   2.063   0.002  0.00  0.00    -0.064 A 
ATOM      2  C2  <0> d          -0.017   1.389   0.010  0.00  0.00    -0.054 A 
ATOM      3  C3  <0> d           0.002  -0.004   0.002  0.00  0.00     0.052 A 
ATOM      4  C4  <0> d           1.226  -0.661  -0.013  0.00  0.00     0.083 A 
ATOM      5  N1  <0> d           2.354   0.020  -0.020  0.00  0.00    -0.261 NA
ATOM      6  C5  <0> d           2.370   1.338  -0.013  0.00  0.00     0.003 A 
ATOM      7  H1  <0> d           1.217   3.143   0.007  0.00  0.00     0.085 H 
ATOM      8  H2  <0> d          -0.952   1.929   0.017  0.00  0.00     0.087 H 
ATOM      9  H3  <0> d           3.316   1.859  -0.020  0.00  0.00     0.114 H 
ENDROOT
BRANCH   4  10
ATOM     10  C6  <0> d           1.264  -2.168  -0.021  0.00  0.00     0.059 C 
ATOM     11  H4  <0> d           2.176  -2.514   0.487  0.00  0.00     0.083 H 
ATOM     12  H5  <0> d           0.380  -2.559   0.504  0.00  0.00     0.083 H 
BRANCH  10  13
ATOM     13  O1  <0> d           1.263  -2.637  -1.371  0.00  0.00    -0.395 OA
ATOM     14  H6  <0> d           1.288  -3.717  -1.578  0.00  0.00     0.209 HD
ENDBRANCH  10  13
ENDBRANCH   4  10
BRANCH   3  15
ATOM     15  N2  <0> d          -1.192  -0.729   0.010  0.00  0.00    -0.397 N 
ATOM     16  H7  <0> d          -1.168  -1.829   0.004  0.00  0.00     0.156 HD
ATOM     17  H8  <0> d          -2.156  -0.201   0.022  0.00  0.00     0.156 HD
ENDBRANCH   3  15
TORSDOF 3
