REMARK  4 active torsions:
REMARK  status: ('A' for Active; 'I' for Inactive)
REMARK    1  A    between atoms: C1_1  and  C2_2 
REMARK    2  A    between atoms: C4_4  and  O2_11 
REMARK    3  A    between atoms: C7_7  and  C8_8 
REMARK    4  A    between atoms: C8_8  and  C9_10 
ROOT
ATOM      1  C2  <0> d           3.187   2.403  -1.168  0.00  0.00    -0.045 A 
ATOM      2  C3  <0> d           2.051   1.629  -1.240  0.00  0.00    -0.044 A 
ATOM      3  C4  <0> d           1.335   1.335  -0.085  0.00  0.00     0.066 A 
ATOM      4  C5  <0> d           1.758   1.826   1.145  0.00  0.00    -0.050 A 
ATOM      5  C6  <0> d           2.887   2.591   1.229  0.00  0.00    -0.066 A 
ATOM      6  C7  <0> d           3.616   2.893   0.072  0.00  0.00     0.015 A 
ATOM      7  H4  <0> d           1.716   1.249  -2.195  0.00  0.00     0.088 H 
ATOM      8  H5  <0> d           1.196   1.597   2.038  0.00  0.00     0.087 H 
ATOM      9  H6  <0> d           3.215   2.966   2.187  0.00  0.00     0.085 H 
ENDROOT
BRANCH   6  10
ATOM     10  C8  <0> d           4.826   3.719   0.159  0.00  0.00     0.156 C 
ATOM     11  O1  <0> d           5.395   4.071  -0.853  0.00  0.00    -0.293 OA
BRANCH  10  12
ATOM     12  C9  <0> d           5.363   4.131   1.506  0.00  0.00    -0.017 C 
ATOM     13  H7  <0> d           5.588   3.315   2.038  0.00  0.00     0.038 H 
ATOM     14  H8  <0> d           6.259   4.736   1.370  0.00  0.00     0.038 H 
ATOM     15  H9  <0> d           4.608   4.713   2.035  0.00  0.00     0.038 H 
ENDBRANCH  10  12
ENDBRANCH   6  10
BRANCH   1  16
ATOM     16  C1  <0> d           3.965   2.723  -2.418  0.00  0.00    -0.050 C 
ATOM     17  H1  <0> d           3.667   3.702  -2.791  0.00  0.00     0.033 H 
ATOM     18  H2  <0> d           5.031   2.730  -2.190  0.00  0.00     0.033 H 
ATOM     19  H3  <0> d           3.761   1.967  -3.176  0.00  0.00     0.033 H 
ENDBRANCH   1  16
BRANCH   3  20
ATOM     20  O2  <0> d           0.215   0.572  -0.159  0.00  0.00    -0.361 OA
ATOM     21  H10 <0> d           0.379  -0.377  -0.063  0.00  0.00     0.217 HD
ENDBRANCH   3  20
TORSDOF 4
