REMARK  5 active torsions:
REMARK  status: ('A' for Active; 'I' for Inactive)
REMARK    1  A    between atoms: C1_1  and  C2_2 
REMARK    2  A    between atoms: C5_5  and  N2_11 
REMARK    3  A    between atoms: C7_7  and  N1_8 
REMARK    4  A    between atoms: N1_8  and  C8_9 
REMARK    5  A    between atoms: N1_8  and  C9_10 
ROOT
ATOM      1  C2  <0> d          -3.644   3.009   0.037  0.00  0.00    -0.041 A 
ATOM      2  C3  <0> d          -2.455   3.712   0.035  0.00  0.00    -0.073 A 
ATOM      3  C4  <0> d          -1.250   3.037   0.030  0.00  0.00    -0.057 A 
ATOM      4  C5  <0> d          -1.230   1.648   0.017  0.00  0.00     0.027 A 
ATOM      5  C6  <0> d          -2.422   0.938   0.019  0.00  0.00    -0.037 A 
ATOM      6  C7  <0> d          -3.632   1.620   0.029  0.00  0.00     0.018 A 
ATOM      7  H4  <0> d          -2.467   4.792   0.041  0.00  0.00     0.084 H 
ATOM      8  H5  <0> d          -0.322   3.590   0.033  0.00  0.00     0.086 H 
ATOM      9  H6  <0> d          -2.410  -0.141   0.013  0.00  0.00     0.089 H 
ENDROOT
BRANCH   6  10
ATOM     10  N1  <0> d          -4.834   0.910   0.030  0.00  0.00    -0.291 NA
BRANCH  10  11
ATOM     11  C8  <0> d          -4.945   0.059  -1.163  0.00  0.00    -0.029 C 
ATOM     12  H7  <0> d          -4.119  -0.652  -1.179  0.00  0.00     0.048 H 
ATOM     13  H8  <0> d          -5.890  -0.483  -1.136  0.00  0.00     0.048 H 
ATOM     14  H9  <0> d          -4.907   0.680  -2.057  0.00  0.00     0.048 H 
ENDBRANCH  10  11
BRANCH  10  15
ATOM     15  C9  <0> d          -4.976   0.116   1.258  0.00  0.00    -0.029 C 
ATOM     16  H10 <0> d          -4.960   0.779   2.123  0.00  0.00     0.048 H 
ATOM     17  H11 <0> d          -5.921  -0.427   1.233  0.00  0.00     0.048 H 
ATOM     18  H12 <0> d          -4.151  -0.593   1.329  0.00  0.00     0.048 H 
ENDBRANCH  10  15
ENDBRANCH   6  10
BRANCH   1  19
ATOM     19  C1  <0> d          -4.957   3.750   0.047  0.00  0.00    -0.050 C 
ATOM     20  H1  <0> d          -5.268   3.923   1.077  0.00  0.00     0.033 H 
ATOM     21  H2  <0> d          -4.838   4.707  -0.462  0.00  0.00     0.033 H 
ATOM     22  H3  <0> d          -5.713   3.156  -0.467  0.00  0.00     0.033 H 
ENDBRANCH   1  19
BRANCH   4  23
ATOM     23  N2  <0> d          -0.011   0.966   0.007  0.00  0.00    -0.399 N 
ATOM     24  H13 <0> d           0.002  -0.004   0.002  0.00  0.00     0.156 HD
ATOM     25  H14 <0> d           0.822   1.462   0.002  0.00  0.00     0.156 HD
ENDBRANCH   4  23
TORSDOF 5
