REMARK  1 active torsions:
REMARK  status: ('A' for Active; 'I' for Inactive)
REMARK    1  A    between atoms: C2_2  and  C3_3 
ROOT
ATOM      1  C3  <0> d           1.292  -0.725  -0.014  0.00  0.00     0.040 A 
ATOM      2  C4  <0> d           2.277  -0.382  -0.943  0.00  0.00     0.129 A 
ATOM      3  C5  <0> d           3.481  -1.061  -0.952  0.00  0.00    -0.045 A 
ATOM      4  C6  <0> d           3.711  -2.078  -0.044  0.00  0.00    -0.077 A 
ATOM      5  C7  <0> d           2.741  -2.424   0.879  0.00  0.00    -0.045 A 
ATOM      6  C8  <0> d           1.534  -1.751   0.903  0.00  0.00     0.129 A 
ATOM      7  F1  <0> d           0.589  -2.087   1.809  0.00  0.00    -0.205 F 
ATOM      8  F2  <0> d           2.053   0.612  -1.831  0.00  0.00    -0.205 F 
ATOM      9  H4  <0> d           4.243  -0.796  -1.670  0.00  0.00     0.088 H 
ATOM     10  H5  <0> d           4.654  -2.605  -0.056  0.00  0.00     0.083 H 
ATOM     11  H6  <0> d           2.928  -3.220   1.584  0.00  0.00     0.088 H 
ENDROOT
BRANCH   1  12
ATOM     12  C2  <0> d           0.002  -0.004   0.002  0.00  0.00    -0.076 C 
ATOM     13  C1  <0> d          -0.016   1.322   0.009  0.00  0.00    -0.120 C 
ATOM     14  H1  <0> d           0.912   1.875   0.003  0.00  0.00     0.066 H 
ATOM     15  H2  <0> d          -0.958   1.849   0.017  0.00  0.00     0.066 H 
ATOM     16  H3  <0> d          -0.926  -0.557   0.008  0.00  0.00     0.083 H 
ENDBRANCH   1  12
TORSDOF 1
