REMARK  5 active torsions:
REMARK  status: ('A' for Active; 'I' for Inactive)
REMARK    1  A    between atoms: C1_1  and  C2_2 
REMARK    2  A    between atoms: C1_1  and  C5_10 
REMARK    3  A    between atoms: C2_2  and  C3_3 
REMARK    4  A    between atoms: C4_6  and  N4_9 
REMARK    5  A    between atoms: C5_10  and  O1_11 
ROOT
ATOM      1  C2  <0> d           0.002  -0.004   0.002  0.00  0.00    -0.004 C 
ATOM      2  H4  <0> d           0.512  -0.356  -0.895  0.00  0.00     0.044 H 
ATOM      3  H5  <0> d           0.529  -0.365   0.885  0.00  0.00     0.044 H 
ENDROOT
BRANCH   1   4
ATOM      4  C1  <0> d          -0.019   1.526   0.010  0.00  0.00    -0.039 C 
ATOM      5  H2  <0> d          -0.546   1.887  -0.873  0.00  0.00     0.036 H 
ATOM      6  H3  <0> d          -0.529   1.877   0.907  0.00  0.00     0.036 H 
BRANCH   4   7
ATOM      7  C5  <0> d           1.417   2.055  -0.000  0.00  0.00     0.017 C 
ATOM      8  H8  <0> d           1.944   1.694   0.883  0.00  0.00     0.073 H 
ATOM      9  H9  <0> d           1.927   1.704  -0.897  0.00  0.00     0.073 H 
BRANCH   7  10
ATOM     10  O1  <0> d           1.397   3.484   0.007  0.00  0.00    -0.401 OA
ATOM     11  H10 <0> d           2.275   3.889   0.001  0.00  0.00     0.209 HD
ENDBRANCH   7  10
ENDBRANCH   4   7
ENDBRANCH   1   4
BRANCH   1  12
ATOM     12  C3  <0> d          -1.412  -0.526   0.013  0.00  0.00     0.165 A 
ATOM     13  N1  <0> d          -2.148  -0.788  -1.068  0.00  0.00    -0.046 NA
ATOM     14  C4  <0> d          -3.332  -1.228  -0.702  0.00  0.00     0.716 A 
ATOM     15  N2  <0> d          -3.366  -1.253   0.647  0.00  0.00    -0.106 N 
ATOM     16  H1  <0> d          -4.108  -1.532   1.205  0.00  0.00     0.208 HD
ATOM     17  N3  <0> d          -2.110  -0.799   1.082  0.00  0.00    -0.144 NA
BRANCH  14  18
ATOM     18  N4  <0> d          -4.361  -1.600  -1.549  0.00  0.00    -0.231 N 
ATOM     19  H6  <0> d          -4.241  -1.546  -2.510  0.00  0.00     0.174 HD
ATOM     20  H7  <0> d          -5.202  -1.914  -1.183  0.00  0.00     0.174 HD
ENDBRANCH  14  18
ENDBRANCH   1  12
TORSDOF 5
