REMARK  1 active torsions:
REMARK  status: ('A' for Active; 'I' for Inactive)
REMARK    1  A    between atoms: C2_2  and  C3_3 
ROOT
ATOM      1  C3  <0> d           0.996   5.893   0.026  0.00  0.00     0.056 A 
ATOM      2  C4  <0> d           2.257   5.272   0.011  0.00  0.00    -0.054 A 
ATOM      3  C5  <0> d           2.343   3.912   0.001  0.00  0.00    -0.069 A 
ATOM      4  C6  <0> d           1.146   3.167   0.008  0.00  0.00    -0.007 A 
ATOM      5  C7  <0> d           1.163   1.764   0.000  0.00  0.00    -0.071 A 
ATOM      6  C8  <0> d          -0.013   1.076   0.008  0.00  0.00    -0.082 A 
ATOM      7  C9  <0> d          -1.234   1.747   0.017  0.00  0.00    -0.081 A 
ATOM      8  C10 <0> d          -1.287   3.106   0.031  0.00  0.00    -0.054 A 
ATOM      9  C11 <0> d          -0.095   3.852   0.024  0.00  0.00     0.067 A 
ATOM     10  N1  <0> d          -0.120   5.187   0.032  0.00  0.00    -0.248 NA
ATOM     11  H4  <0> d           3.156   5.871   0.007  0.00  0.00     0.087 H 
ATOM     12  H5  <0> d           3.303   3.418  -0.010  0.00  0.00     0.085 H 
ATOM     13  H6  <0> d           2.103   1.232  -0.011  0.00  0.00     0.084 H 
ATOM     14  H7  <0> d           0.002  -0.004   0.002  0.00  0.00     0.083 H 
ATOM     15  H8  <0> d          -2.152   1.179   0.018  0.00  0.00     0.083 H 
ATOM     16  H9  <0> d          -2.242   3.611   0.042  0.00  0.00     0.087 H 
ENDROOT
BRANCH   1  17
ATOM     17  C2  <0> d           0.918   7.368   0.036  0.00  0.00    -0.064 C 
ATOM     18  C1  <0> d          -0.264   7.969   0.050  0.00  0.00    -0.119 C 
ATOM     19  H1  <0> d          -1.170   7.380   0.055  0.00  0.00     0.066 H 
ATOM     20  H2  <0> d          -0.322   9.048   0.057  0.00  0.00     0.066 H 
ATOM     21  H3  <0> d           1.823   7.957   0.031  0.00  0.00     0.085 H 
ENDBRANCH   1  17
TORSDOF 1
