REMARK  2 active torsions:
REMARK  status: ('A' for Active; 'I' for Inactive)
REMARK    1  A    between atoms: C10_10  and  C11_11 
REMARK    2  A    between atoms: C11_11  and  O1_12 
ROOT
ATOM      1  C1  <0> d           1.155   1.776   0.001  0.00  0.00    -0.082 A 
ATOM      2  C2  <0> d           1.155   3.170   0.008  0.00  0.00    -0.082 A 
ATOM      3  C3  <0> d          -0.011   3.871   0.023  0.00  0.00    -0.072 A 
ATOM      4  C4  <0> d          -1.236   3.183   0.031  0.00  0.00    -0.018 A 
ATOM      5  C5  <0> d          -1.237   1.766   0.018  0.00  0.00    -0.025 A 
ATOM      6  C6  <0> d          -0.013   1.076   0.008  0.00  0.00    -0.072 A 
ATOM      7  C7  <0> d          -2.462   1.078   0.019  0.00  0.00    -0.072 A 
ATOM      8  C8  <0> d          -3.629   1.779   0.029  0.00  0.00    -0.082 A 
ATOM      9  C9  <0> d          -3.628   3.173   0.036  0.00  0.00    -0.074 A 
ATOM     10  C10 <0> d          -2.460   3.873   0.045  0.00  0.00    -0.024 A 
ATOM     11  H1  <0> d           2.094   1.243  -0.012  0.00  0.00     0.083 H 
ATOM     12  H2  <0> d           2.096   3.701   0.002  0.00  0.00     0.083 H 
ATOM     13  H3  <0> d           0.006   4.951   0.028  0.00  0.00     0.084 H 
ATOM     14  H4  <0> d           0.002  -0.004   0.002  0.00  0.00     0.084 H 
ATOM     15  H5  <0> d          -2.478  -0.002   0.013  0.00  0.00     0.084 H 
ATOM     16  H6  <0> d          -4.569   1.248   0.031  0.00  0.00     0.083 H 
ATOM     17  H7  <0> d          -4.567   3.705   0.044  0.00  0.00     0.084 H 
ENDROOT
BRANCH  10  18
ATOM     18  C11 <0> d          -2.480   5.380   0.054  0.00  0.00     0.041 C 
ATOM     19  H8  <0> d          -1.964   5.745   0.941  0.00  0.00     0.081 H 
ATOM     20  H9  <0> d          -1.979   5.755  -0.839  0.00  0.00     0.081 H 
BRANCH  18  21
ATOM     21  O1  <0> d          -3.834   5.838   0.068  0.00  0.00    -0.396 OA
ATOM     22  H10 <0> d          -3.923   6.800   0.074  0.00  0.00     0.209 HD
ENDBRANCH  18  21
ENDBRANCH  10  18
TORSDOF 2
