REMARK  6 active torsions:
REMARK  status: ('A' for Active; 'I' for Inactive)
REMARK    1  A    between atoms: C1_1  and  C2_2 
REMARK    2  A    between atoms: C2_2  and  C3_4 
REMARK    3  A    between atoms: C2_2  and  C7_10 
REMARK    4  A    between atoms: C3_4  and  C4_5 
REMARK    5  A    between atoms: C4_5  and  C5_7 
REMARK    6  A    between atoms: C4_5  and  C6_8 
ROOT
ATOM      1  C3  <0> d           2.696   3.548  -0.005  0.00  0.00    -0.041 C 
ATOM      2  H6  <0> d           3.181   3.236   0.920  0.00  0.00     0.035 H 
ATOM      3  H7  <0> d           3.210   3.097  -0.854  0.00  0.00     0.035 H 
ENDROOT
BRANCH   1   4
ATOM      4  C2  <0> d           2.756   5.072  -0.123  0.00  0.00     0.028 C 
ATOM      5  H1  <0> d           2.167   5.522   0.677  0.00  0.00     0.056 H 
BRANCH   4   6
ATOM      6  C1  <0> d           2.188   5.502  -1.477  0.00  0.00    -0.064 C 
ATOM      7  H3  <0> d           2.231   6.587  -1.561  0.00  0.00     0.028 H 
ATOM      8  H4  <0> d           2.776   5.052  -2.277  0.00  0.00     0.028 H 
ATOM      9  H5  <0> d           1.153   5.171  -1.558  0.00  0.00     0.028 H 
ENDBRANCH   4   6
BRANCH   4  10
ATOM     10  C7  <0> d           4.188   5.529  -0.011  0.00  0.00     0.176 C 
ATOM     11  O2  <0> d           5.070   4.719   0.147  0.00  0.00    -0.648 OA
ATOM     12  O4  <0> d           4.483   6.836  -0.087  0.00  0.00    -0.648 OA
ENDBRANCH   4  10
ENDBRANCH   1   4
BRANCH   1  13
ATOM     13  C4  <0> d           1.235   3.094   0.007  0.00  0.00     0.028 C 
ATOM     14  H2  <0> d           0.727   3.482  -0.876  0.00  0.00     0.056 H 
BRANCH  13  15
ATOM     15  C5  <0> d           0.546   3.625   1.266  0.00  0.00    -0.064 C 
ATOM     16  H8  <0> d           0.588   4.714   1.271  0.00  0.00     0.028 H 
ATOM     17  H9  <0> d          -0.495   3.302   1.274  0.00  0.00     0.028 H 
ATOM     18  H10 <0> d           1.054   3.237   2.149  0.00  0.00     0.028 H 
ENDBRANCH  13  15
BRANCH  13  19
ATOM     19  C6  <0> d           1.177   1.588  -0.001  0.00  0.00     0.176 C 
ATOM     20  O1  <0> d           2.199   0.944  -0.014  0.00  0.00    -0.648 OA
ATOM     21  O3  <0> d          -0.011   0.963   0.007  0.00  0.00    -0.648 OA
ENDBRANCH  13  19
ENDBRANCH   1  13
TORSDOF 6
