REMARK  2 active torsions:
REMARK  status: ('A' for Active; 'I' for Inactive)
REMARK    1  A    between atoms: C1_1  and  C2_2 
REMARK    2  A    between atoms: C3_4  and  C6_10 
ROOT
ATOM      1  C2  <0> d          -2.516   0.947   0.037  0.00  0.00     0.042 C 
ATOM      2  H1  <0> d          -2.737   0.836  -1.025  0.00  0.00     0.056 H 
ATOM      3  C3  <0> d          -1.423   2.019   0.259  0.00  0.00     0.063 C 
ATOM      4  H2  <0> d          -1.408   2.738  -0.560  0.00  0.00     0.061 H 
ATOM      5  C4  <0> d          -1.884   2.690   1.569  0.00  0.00     0.042 C 
ATOM      6  O1  <0> d          -3.264   2.284   1.782  0.00  0.00    -0.320 OA
ATOM      7  C5  <0> d          -3.710   1.518   0.777  0.00  0.00     0.263 C 
ATOM      8  O2  <0> d          -4.870   1.315   0.507  0.00  0.00    -0.265 OA
ATOM      9  H6  <0> d          -1.264   2.352   2.400  0.00  0.00     0.076 H 
ATOM     10  H7  <0> d          -1.823   3.774   1.475  0.00  0.00     0.076 H 
ENDROOT
BRANCH   1  11
ATOM     11  C1  <0> d          -2.092  -0.392   0.645  0.00  0.00    -0.063 C 
ATOM     12  H3  <0> d          -1.833  -0.249   1.694  0.00  0.00     0.028 H 
ATOM     13  H4  <0> d          -2.914  -1.103   0.567  0.00  0.00     0.028 H 
ATOM     14  H5  <0> d          -1.226  -0.777   0.107  0.00  0.00     0.028 H 
ENDBRANCH   1  11
BRANCH   3  15
ATOM     15  C6  <0> d          -0.070   1.379   0.431  0.00  0.00     0.180 C 
ATOM     16  O3  <0> d           0.304   1.044   1.530  0.00  0.00    -0.648 OA
ATOM     17  O4  <0> d           0.717   1.175  -0.636  0.00  0.00    -0.648 OA
ENDBRANCH   3  15
TORSDOF 2
