REMARK  8 active torsions:
REMARK  status: ('A' for Active; 'I' for Inactive)
REMARK    1  A    between atoms: C1_1  and  C2_2 
REMARK    2  A    between atoms: C2_2  and  C3_3 
REMARK    3  A    between atoms: C2_2  and  C4_4 
REMARK    4  A    between atoms: C4_4  and  O2_6 
REMARK    5  A    between atoms: O2_6  and  C5_7 
REMARK    6  A    between atoms: C5_7  and  C6_8 
REMARK    7  A    between atoms: C5_7  and  C7_9 
REMARK    8  A    between atoms: C5_7  and  C8_10 
ROOT
ATOM      1  O2  <0> d          -1.639  -1.849   0.008  0.00  0.00    -0.311 OA
ENDROOT
BRANCH   1   2
ATOM      2  C4  <0> d          -1.412  -0.526   0.013  0.00  0.00     0.263 C 
ATOM      3  O1  <0> d          -2.341   0.247   0.026  0.00  0.00    -0.265 OA
BRANCH   2   4
ATOM      4  C2  <0> d           0.002  -0.004   0.002  0.00  0.00     0.023 C 
ATOM      5  H4  <0> d           0.512  -0.356  -0.895  0.00  0.00     0.054 H 
BRANCH   4   6
ATOM      6  C1  <0> d          -0.019   1.526   0.010  0.00  0.00    -0.065 C 
ATOM      7  H1  <0> d           1.004   1.903   0.003  0.00  0.00     0.028 H 
ATOM      8  H2  <0> d          -0.546   1.887  -0.873  0.00  0.00     0.028 H 
ATOM      9  H3  <0> d          -0.529   1.877   0.907  0.00  0.00     0.028 H 
ENDBRANCH   4   6
BRANCH   4  10
ATOM     10  C3  <0> d           0.742  -0.511   1.242  0.00  0.00    -0.065 C 
ATOM     11  H5  <0> d           1.765  -0.134   1.234  0.00  0.00     0.028 H 
ATOM     12  H6  <0> d           0.232  -0.159   2.138  0.00  0.00     0.028 H 
ATOM     13  H7  <0> d           0.757  -1.601   1.236  0.00  0.00     0.028 H 
ENDBRANCH   4  10
ENDBRANCH   2   4
ENDBRANCH   1   2
BRANCH   1  14
ATOM     14  C5  <0> d          -3.004  -2.272   0.018  0.00  0.00     0.060 C 
BRANCH  14  15
ATOM     15  C6  <0> d          -3.717  -1.728  -1.221  0.00  0.00    -0.048 C 
ATOM     16  H8  <0> d          -3.226  -2.106  -2.118  0.00  0.00     0.031 H 
ATOM     17  H9  <0> d          -4.758  -2.051  -1.213  0.00  0.00     0.031 H 
ATOM     18  H10 <0> d          -3.674  -0.639  -1.216  0.00  0.00     0.031 H 
ENDBRANCH  14  15
BRANCH  14  19
ATOM     19  C7  <0> d          -3.063  -3.801   0.011  0.00  0.00    -0.048 C 
ATOM     20  H11 <0> d          -2.555  -4.189   0.894  0.00  0.00     0.031 H 
ATOM     21  H12 <0> d          -4.104  -4.124   0.019  0.00  0.00     0.031 H 
ATOM     22  H13 <0> d          -2.572  -4.179  -0.886  0.00  0.00     0.031 H 
ENDBRANCH  14  19
BRANCH  14  23
ATOM     23  C8  <0> d          -3.693  -1.742   1.277  0.00  0.00    -0.048 C 
ATOM     24  H14 <0> d          -3.650  -0.652   1.283  0.00  0.00     0.031 H 
ATOM     25  H15 <0> d          -4.734  -2.065   1.286  0.00  0.00     0.031 H 
ATOM     26  H16 <0> d          -3.185  -2.129   2.160  0.00  0.00     0.031 H 
ENDBRANCH  14  23
ENDBRANCH   1  14
TORSDOF 8
