REMARK  1 active torsions:
REMARK  status: ('A' for Active; 'I' for Inactive)
REMARK    1  A    between atoms: C3_4  and  C5_8 
ROOT
ATOM      1  C1  <0> d          -0.013   1.086   0.008  0.00  0.00     0.039 C 
ATOM      2  C2  <0> d          -0.756   1.594  -1.231  0.00  0.00     0.040 C 
ATOM      3  O1  <0> d          -0.868   3.019  -1.159  0.00  0.00    -0.373 OA
ATOM      4  C3  <0> d          -1.542   3.482   0.016  0.00  0.00     0.152 C 
ATOM      5  H1  <0> d          -2.564   3.103   0.022  0.00  0.00     0.100 H 
ATOM      6  C4  <0> d          -0.799   2.973   1.254  0.00  0.00     0.052 C 
ATOM      7  O2  <0> d          -0.685   1.548   1.183  0.00  0.00    -0.386 OA
ATOM      8  H2  <0> d           0.002  -0.004   0.002  0.00  0.00     0.077 H 
ATOM      9  H3  <0> d           1.010   1.464   0.000  0.00  0.00     0.077 H 
ATOM     10  H4  <0> d          -0.202   1.318  -2.127  0.00  0.00     0.077 H 
ATOM     11  H5  <0> d          -1.751   1.151  -1.266  0.00  0.00     0.077 H 
ATOM     12  H6  <0> d           0.197   3.416   1.289  0.00  0.00     0.078 H 
ATOM     13  H7  <0> d          -1.353   3.250   2.151  0.00  0.00     0.078 H 
ENDROOT
BRANCH   4  14
ATOM     14  C5  <0> d          -1.563   5.011   0.024  0.00  0.00     0.415 C 
ATOM     15  F1  <0> d          -2.235   5.475  -1.111  0.00  0.00    -0.168 F 
ATOM     16  F2  <0> d          -2.221   5.463   1.173  0.00  0.00    -0.168 F 
ATOM     17  F3  <0> d          -0.250   5.496   0.019  0.00  0.00    -0.168 F 
ENDBRANCH   4  14
TORSDOF 1
