REMARK  5 active torsions:
REMARK  status: ('A' for Active; 'I' for Inactive)
REMARK    1  A    between atoms: C1_1  and  O1_2 
REMARK    2  A    between atoms: O1_2  and  C2_3 
REMARK    3  A    between atoms: C2_3  and  C3_5 
REMARK    4  A    between atoms: C3_5  and  N1_6 
REMARK    5  A    between atoms: C4_7  and  N5_11 
ROOT
ATOM      1  C3  <0> d          -0.013   1.086   0.008  0.00  0.00     0.116 C 
ATOM      2  H4  <0> d           0.002  -0.004   0.002  0.00  0.00     0.084 H 
ATOM      3  H5  <0> d           1.010   1.463   0.000  0.00  0.00     0.084 H 
ENDROOT
BRANCH   1   4
ATOM      4  C2  <0> d          -0.742   1.585  -1.213  0.00  0.00     0.279 C 
ATOM      5  O2  <0> d          -1.732   2.266  -1.089  0.00  0.00    -0.263 OA
BRANCH   4   6
ATOM      6  O1  <0> d          -0.290   1.274  -2.438  0.00  0.00    -0.325 OA
BRANCH   6   7
ATOM      7  C1  <0> d          -1.042   1.789  -3.568  0.00  0.00     0.013 C 
ATOM      8  H1  <0> d          -2.064   1.411  -3.528  0.00  0.00     0.067 H 
ATOM      9  H2  <0> d          -1.056   2.878  -3.529  0.00  0.00     0.067 H 
ATOM     10  H3  <0> d          -0.572   1.464  -4.496  0.00  0.00     0.067 H 
ENDBRANCH   6   7
ENDBRANCH   4   6
ENDBRANCH   1   4
BRANCH   1  11
ATOM     11  N1  <0> d          -0.698   1.558   1.213  0.00  0.00    -0.069 N 
ATOM     12  N4  <0> d          -0.461   2.752   1.918  0.00  0.00    -0.030 NA
ATOM     13  N3  <0> d          -1.287   2.770   2.908  0.00  0.00    -0.008 NA
ATOM     14  N2  <0> d          -2.011   1.710   2.905  0.00  0.00     0.065 NA
ATOM     15  C4  <0> d          -1.692   0.937   1.890  0.00  0.00     0.738 A 
BRANCH  15  16
ATOM     16  N5  <0> d          -2.264  -0.283   1.574  0.00  0.00    -0.230 N 
ATOM     17  H6  <0> d          -1.954  -0.778   0.800  0.00  0.00     0.174 HD
ATOM     18  H7  <0> d          -2.974  -0.643   2.128  0.00  0.00     0.174 HD
ENDBRANCH  15  16
ENDBRANCH   1  11
TORSDOF 5
