REMARK  3 active torsions:
REMARK  status: ('A' for Active; 'I' for Inactive)
REMARK    1  A    between atoms: C1_1  and  C2_2 
REMARK    2  A    between atoms: C2_2  and  C3_4 
REMARK    3  A    between atoms: C7_9  and  N2_10 
ROOT
ATOM      1  C3  <0> d          -1.142   3.229   0.033  0.00  0.00     0.055 A 
ATOM      2  C4  <0> d          -1.254   1.831   0.010  0.00  0.00    -0.064 A 
ATOM      3  C5  <0> d          -0.095   1.079  -0.001  0.00  0.00    -0.065 A 
ATOM      4  C6  <0> d           1.134   1.719  -0.001  0.00  0.00     0.004 A 
ATOM      5  N1  <0> d           1.221   3.034   0.015  0.00  0.00    -0.243 NA
ATOM      6  C7  <0> d           0.144   3.805   0.032  0.00  0.00     0.134 A 
ATOM      7  H4  <0> d          -2.223   1.354   0.005  0.00  0.00     0.085 H 
ATOM      8  H5  <0> d          -0.146   0.001  -0.015  0.00  0.00     0.085 H 
ATOM      9  H6  <0> d           2.038   1.129  -0.015  0.00  0.00     0.114 H 
ENDROOT
BRANCH   1  10
ATOM     10  C2  <0> d          -2.339   4.075   0.051  0.00  0.00     0.159 C 
ATOM     11  O1  <0> d          -2.232   5.281  -0.034  0.00  0.00    -0.293 OA
BRANCH  10  12
ATOM     12  C1  <0> d          -3.704   3.447   0.175  0.00  0.00    -0.016 C 
ATOM     13  H1  <0> d          -3.600   2.354   0.240  0.00  0.00     0.038 H 
ATOM     14  H2  <0> d          -4.308   3.707  -0.706  0.00  0.00     0.038 H 
ATOM     15  H3  <0> d          -4.199   3.823   1.083  0.00  0.00     0.038 H 
ENDBRANCH  10  12
ENDBRANCH   1  10
BRANCH   6  16
ATOM     16  N2  <0> d           0.282   5.179   0.048  0.00  0.00    -0.383 N 
ATOM     17  H7  <0> d           1.284   5.631   0.047  0.00  0.00     0.157 HD
ATOM     18  H8  <0> d          -0.611   5.821   0.062  0.00  0.00     0.157 HD
ENDBRANCH   6  16
TORSDOF 3
