REMARK  2 active torsions:
REMARK  status: ('A' for Active; 'I' for Inactive)
REMARK    1  A    between atoms: C1_1  and  O1_2 
REMARK    2  A    between atoms: O1_2  and  C2_3 
ROOT
ATOM      1  C2  <0> d           1.580   4.154   0.008  0.00  0.00     0.080 A 
ATOM      2  C3  <0> d           2.932   3.871  -0.006  0.00  0.00    -0.050 A 
ATOM      3  C4  <0> d           3.372   2.555  -0.017  0.00  0.00    -0.078 A 
ATOM      4  C5  <0> d           2.472   1.512  -0.013  0.00  0.00    -0.056 A 
ATOM      5  C6  <0> d           1.105   1.772   0.001  0.00  0.00     0.045 A 
ATOM      6  C7  <0> d           0.654   3.104   0.012  0.00  0.00     0.025 A 
ATOM      7  C8  <0> d          -0.809   3.037   0.025  0.00  0.00    -0.053 A 
ATOM      8  C9  <0> d          -1.142   1.737   0.016  0.00  0.00    -0.022 A 
ATOM      9  N1  <0> d          -0.011   0.966   0.007  0.00  0.00    -0.365 N 
ATOM     10  H1  <0> d           0.002  -0.004   0.002  0.00  0.00     0.165 HD
ATOM     11  H5  <0> d           3.651   4.678  -0.010  0.00  0.00     0.087 H 
ATOM     12  H6  <0> d           4.432   2.346  -0.028  0.00  0.00     0.083 H 
ATOM     13  H7  <0> d           2.828   0.492  -0.021  0.00  0.00     0.086 H 
ATOM     14  H8  <0> d          -1.490   3.875   0.035  0.00  0.00     0.087 H 
ATOM     15  H9  <0> d          -2.153   1.356   0.019  0.00  0.00     0.111 H 
ENDROOT
BRANCH   1  16
ATOM     16  O1  <0> d           1.151   5.444   0.018  0.00  0.00    -0.355 OA
BRANCH  16  17
ATOM     17  C1  <0> d           2.155   6.461   0.014  0.00  0.00     0.010 C 
ATOM     18  H2  <0> d           2.785   6.354   0.897  0.00  0.00     0.066 H 
ATOM     19  H3  <0> d           2.767   6.363  -0.883  0.00  0.00     0.066 H 
ATOM     20  H4  <0> d           1.679   7.441   0.023  0.00  0.00     0.066 H 
ENDBRANCH  16  17
ENDBRANCH   1  16
TORSDOF 2
