REMARK  7 active torsions:
REMARK  status: ('A' for Active; 'I' for Inactive)
REMARK    1  A    between atoms: C1_1  and  C2_2 
REMARK    2  A    between atoms: C2_2  and  C3_3 
REMARK    3  A    between atoms: C3_3  and  C4_5 
REMARK    4  A    between atoms: C3_3  and  O1_11 
REMARK    5  A    between atoms: C4_5  and  C5_6 
REMARK    6  A    between atoms: C6_7  and  C7_8 
REMARK    7  A    between atoms: C7_8  and  C9_10 
ROOT
ATOM      1  C4  <0> d          -0.772   1.460   3.762  0.00  0.00     0.015 C 
ATOM      2  H7  <0> d          -0.789   2.545   3.860  0.00  0.00     0.055 H 
ATOM      3  H8  <0> d          -1.794   1.087   3.683  0.00  0.00     0.055 H 
ENDROOT
BRANCH   1   4
ATOM      4  C3  <0> d           0.011   1.072   2.506  0.00  0.00     0.045 C 
ATOM      5  H1  <0> d           0.104  -0.013   2.456  0.00  0.00     0.084 H 
BRANCH   4   6
ATOM      6  C2  <0> d          -0.729   1.579   1.267  0.00  0.00    -0.044 C 
ATOM      7  H5  <0> d          -0.744   2.669   1.273  0.00  0.00     0.036 H 
ATOM      8  H6  <0> d          -1.751   1.202   1.275  0.00  0.00     0.036 H 
BRANCH   6   9
ATOM      9  C1  <0> d          -0.013   1.086   0.008  0.00  0.00    -0.074 C 
ATOM     10  H2  <0> d           0.002  -0.004   0.002  0.00  0.00     0.027 H 
ATOM     11  H3  <0> d           1.010   1.463   0.000  0.00  0.00     0.027 H 
ATOM     12  H4  <0> d          -0.540   1.447  -0.875  0.00  0.00     0.027 H 
ENDBRANCH   6   9
ENDBRANCH   4   6
BRANCH   4  13
ATOM     13  O1  <0> d           1.313   1.660   2.557  0.00  0.00    -0.395 OA
ATOM     14  H14 <0> d           1.307   2.626   2.603  0.00  0.00     0.210 HD
ENDBRANCH   4  13
ENDBRANCH   1   4
BRANCH   1  15
ATOM     15  C5  <0> d          -0.125   0.870   4.946  0.00  0.00    -0.099 C 
ATOM     16  C6  <0> d           0.391   0.400   5.889  0.00  0.00    -0.072 C 
BRANCH  16  17
ATOM     17  C7  <0> d           1.020  -0.173   7.041  0.00  0.00    -0.018 C 
ATOM     18  C8  <0> d           2.116  -0.911   6.900  0.00  0.00    -0.108 C 
ATOM     19  H9  <0> d           2.591  -1.344   7.769  0.00  0.00     0.068 H 
ATOM     20  H10 <0> d           2.532  -1.079   5.918  0.00  0.00     0.068 H 
BRANCH  17  21
ATOM     21  C9  <0> d           0.440   0.060   8.412  0.00  0.00    -0.045 C 
ATOM     22  H11 <0> d          -0.281  -0.726   8.640  0.00  0.00     0.034 H 
ATOM     23  H12 <0> d           1.239   0.046   9.152  0.00  0.00     0.034 H 
ATOM     24  H13 <0> d          -0.060   1.028   8.434  0.00  0.00     0.034 H 
ENDBRANCH  17  21
ENDBRANCH  16  17
ENDBRANCH   1  15
TORSDOF 7
