REMARK  6 active torsions:
REMARK  status: ('A' for Active; 'I' for Inactive)
REMARK    1  A    between atoms: C1_1  and  C2_2 
REMARK    2  A    between atoms: C2_2  and  C3_3 
REMARK    3  A    between atoms: C3_3  and  N1_4 
REMARK    4  A    between atoms: C4_5  and  C8_11 
REMARK    5  A    between atoms: C5_6  and  N3_10 
REMARK    6  A    between atoms: C6_7  and  C7_9 
ROOT
ATOM      1  N1  <0> d          -0.020   1.094   2.454  0.00  0.00    -0.272 N 
ATOM      2  C4  <0> d           0.989   1.735   3.101  0.00  0.00     0.055 A 
ATOM      3  C5  <0> d           1.367   0.953   4.144  0.00  0.00     0.076 A 
ATOM      4  C6  <0> d           0.566  -0.197   4.133  0.00  0.00     0.079 A 
ATOM      5  N2  <0> d          -0.267  -0.110   3.127  0.00  0.00    -0.175 NA
ENDROOT
BRANCH   1   6
ATOM      6  C3  <0> d          -0.729   1.579   1.267  0.00  0.00     0.017 C 
ATOM      7  H6  <0> d          -0.744   2.679   1.273  0.00  0.00     0.067 H 
ATOM      8  H7  <0> d          -1.761   1.198   1.275  0.00  0.00     0.067 H 
BRANCH   6   9
ATOM      9  C2  <0> d          -0.013   1.086   0.008  0.00  0.00    -0.052 C 
ATOM     10  H4  <0> d           0.002  -0.014   0.002  0.00  0.00     0.035 H 
ATOM     11  H5  <0> d           1.019   1.466   0.000  0.00  0.00     0.035 H 
BRANCH   9  12
ATOM     12  C1  <0> d          -0.753   1.593  -1.232  0.00  0.00    -0.075 C 
ATOM     13  H1  <0> d          -0.238   1.238  -2.136  0.00  0.00     0.027 H 
ATOM     14  H2  <0> d          -0.768   2.693  -1.225  0.00  0.00     0.027 H 
ATOM     15  H3  <0> d          -1.785   1.212  -1.224  0.00  0.00     0.027 H 
ENDBRANCH   9  12
ENDBRANCH   6   9
ENDBRANCH   1   6
BRANCH   2  16
ATOM     16  C8  <0> d           1.581   3.069   2.728  0.00  0.00    -0.034 C 
ATOM     17  H13 <0> d           2.381   3.327   3.438  0.00  0.00     0.035 H 
ATOM     18  H14 <0> d           0.797   3.841   2.763  0.00  0.00     0.035 H 
ATOM     19  H15 <0> d           1.996   3.015   1.711  0.00  0.00     0.035 H 
ENDBRANCH   2  16
BRANCH   4  20
ATOM     20  C7  <0> d           0.644  -1.337   5.115  0.00  0.00    -0.032 C 
ATOM     21  H8  <0> d          -0.107  -2.098   4.856  0.00  0.00     0.035 H 
ATOM     22  H9  <0> d           0.449  -0.960   6.130  0.00  0.00     0.035 H 
ATOM     23  H10 <0> d           1.648  -1.785   5.078  0.00  0.00     0.035 H 
ENDBRANCH   4  20
BRANCH   3  24
ATOM     24  N3  <0> d           2.384   1.246   5.073  0.00  0.00    -0.396 N 
ATOM     25  H11 <0> d           2.609   0.537   5.884  0.00  0.00     0.156 HD
ATOM     26  H12 <0> d           2.954   2.183   4.988  0.00  0.00     0.156 HD
ENDBRANCH   3  24
TORSDOF 6
