REMARK  2 active torsions:
REMARK  status: ('A' for Active; 'I' for Inactive)
REMARK    1  A    between atoms: C1_1  and  C2_2 
REMARK    2  A    between atoms: C2_2  and  C3_3 
ROOT
ATOM      1  C3  <0> d           0.707  -0.490  -1.238  0.00  0.00    -0.075 A 
ATOM      2  C4  <0> d           1.983  -0.824  -1.322  0.00  0.00    -0.070 A 
ATOM      3  C5  <0> d           2.329  -1.255  -2.689  0.00  0.00    -0.029 A 
ATOM      4  C6  <0> d           3.530  -1.692  -3.255  0.00  0.00    -0.072 A 
ATOM      5  C7  <0> d           3.575  -2.040  -4.588  0.00  0.00    -0.082 A 
ATOM      6  C8  <0> d           2.437  -1.960  -5.371  0.00  0.00    -0.082 A 
ATOM      7  C9  <0> d           1.243  -1.528  -4.819  0.00  0.00    -0.076 A 
ATOM      8  C10 <0> d           1.188  -1.178  -3.490  0.00  0.00    -0.044 A 
ATOM      9  C11 <0> d           0.076  -0.686  -2.596  0.00  0.00    -0.020 A 
ATOM     10  H6  <0> d           2.681  -0.786  -0.499  0.00  0.00     0.085 H 
ATOM     11  H7  <0> d           4.421  -1.756  -2.648  0.00  0.00     0.084 H 
ATOM     12  H8  <0> d           4.504  -2.377  -5.024  0.00  0.00     0.083 H 
ATOM     13  H9  <0> d           2.481  -2.234  -6.415  0.00  0.00     0.083 H 
ATOM     14  H10 <0> d           0.356  -1.466  -5.431  0.00  0.00     0.084 H 
ATOM     15  H11 <0> d          -0.721  -1.427  -2.539  0.00  0.00     0.046 H 
ATOM     16  H12 <0> d          -0.315   0.261  -2.970  0.00  0.00     0.046 H 
ENDROOT
BRANCH   1  17
ATOM     17  C2  <0> d           0.002  -0.004   0.002  0.00  0.00    -0.048 C 
ATOM     18  H4  <0> d           0.529  -0.365   0.885  0.00  0.00     0.039 H 
ATOM     19  H5  <0> d          -1.020  -0.381   0.010  0.00  0.00     0.039 H 
BRANCH  17  20
ATOM     20  C1  <0> d          -0.019   1.526   0.010  0.00  0.00    -0.073 C 
ATOM     21  H1  <0> d           1.004   1.903   0.003  0.00  0.00     0.028 H 
ATOM     22  H2  <0> d          -0.546   1.887  -0.873  0.00  0.00     0.028 H 
ATOM     23  H3  <0> d          -0.529   1.877   0.907  0.00  0.00     0.028 H 
ENDBRANCH  17  20
ENDBRANCH   1  17
TORSDOF 2
