REMARK  1 active torsions:
REMARK  status: ('A' for Active; 'I' for Inactive)
REMARK    1  A    between atoms: C3_6  and  C4_7 
ROOT
ATOM      1  C1  <0> d          -0.017   1.406   0.010  0.00  0.00    -0.034 A 
ATOM      2  C2  <0> d           1.262   1.837  -0.000  0.00  0.00    -0.002 A 
ATOM      3  N1  <0> d           2.069   0.753  -0.014  0.00  0.00    -0.289 N 
ATOM      4  H1  <0> d           3.038   0.766  -0.023  0.00  0.00     0.188 HD
ATOM      5  N2  <0> d           1.262  -0.391  -0.012  0.00  0.00    -0.173 NA
ATOM      6  C3  <0> d           0.002  -0.004   0.002  0.00  0.00     0.114 A 
ATOM      7  H2  <0> d          -0.898   2.030   0.026  0.00  0.00     0.089 H 
ATOM      8  H3  <0> d           1.585   2.868   0.002  0.00  0.00     0.113 H 
ENDROOT
BRANCH   6   9
ATOM      9  C4  <0> d          -1.181  -0.891   0.008  0.00  0.00     0.127 A 
ATOM     10  S1  <0> d          -1.261  -2.677  -0.001  0.00  0.00    -0.079 SA
ATOM     11  C6  <0> d          -3.044  -2.816   0.017  0.00  0.00    -0.026 A 
ATOM     12  C5  <0> d          -3.398  -1.504   0.020  0.00  0.00     0.010 A 
ATOM     13  H5  <0> d          -3.667  -3.698   0.021  0.00  0.00     0.097 H 
ATOM     14  N3  <0> d          -2.469  -0.576   0.016  0.00  0.00    -0.251 NA
ATOM     15  H4  <0> d          -4.441  -1.224   0.027  0.00  0.00     0.115 H 
ENDBRANCH   6   9
TORSDOF 1
