REMARK  2 active torsions:
REMARK  status: ('A' for Active; 'I' for Inactive)
REMARK    1  A    between atoms: C3_3  and  N3_12 
REMARK    2  A    between atoms: C5_5  and  N1_7 
ROOT
ATOM      1  C1  <0> d          -1.219   1.750   0.017  0.00  0.00    -0.079 A 
ATOM      2  C2  <0> d          -0.013   1.076   0.008  0.00  0.00    -0.058 A 
ATOM      3  C3  <0> d           1.181   1.786   0.000  0.00  0.00     0.027 A 
ATOM      4  C4  <0> d           1.161   3.174   0.008  0.00  0.00    -0.032 A 
ATOM      5  C5  <0> d          -0.051   3.847   0.023  0.00  0.00     0.042 A 
ATOM      6  C6  <0> d          -1.241   3.131   0.031  0.00  0.00    -0.057 A 
ATOM      7  H1  <0> d          -2.146   1.196   0.018  0.00  0.00     0.083 H 
ATOM      8  H2  <0> d           0.002  -0.004   0.002  0.00  0.00     0.086 H 
ATOM      9  H3  <0> d           2.088   3.729   0.002  0.00  0.00     0.090 H 
ATOM     10  H4  <0> d          -2.186   3.655   0.043  0.00  0.00     0.086 H 
ENDROOT
BRANCH   5  11
ATOM     11  N1  <0> d          -0.076   5.249   0.031  0.00  0.00    -0.315 N 
ATOM     12  C9  <0> d           1.002   6.076   0.026  0.00  0.00     0.070 A 
ATOM     13  N2  <0> d           0.579   7.310   0.036  0.00  0.00    -0.254 NA
ATOM     14  H7  <0> d           2.036   5.763   0.013  0.00  0.00     0.144 H 
ATOM     15  C8  <0> d          -0.762   7.321   0.049  0.00  0.00     0.019 A 
ATOM     16  C7  <0> d          -1.192   6.045   0.041  0.00  0.00     0.003 A 
ATOM     17  H6  <0> d          -1.388   8.200   0.060  0.00  0.00     0.117 H 
ATOM     18  H5  <0> d          -2.220   5.712   0.044  0.00  0.00     0.114 H 
ENDBRANCH   5  11
BRANCH   3  19
ATOM     19  N3  <0> d           2.401   1.105  -0.015  0.00  0.00    -0.399 N 
ATOM     20  H8  <0> d           2.414   0.135  -0.019  0.00  0.00     0.156 HD
ATOM     21  H9  <0> d           3.234   1.601  -0.020  0.00  0.00     0.156 HD
ENDBRANCH   3  19
TORSDOF 2
