REMARK  4 active torsions:
REMARK  status: ('A' for Active; 'I' for Inactive)
REMARK    1  A    between atoms: C1_1  and  C2_2 
REMARK    2  A    between atoms: C2_2  and  C3_3 
REMARK    3  A    between atoms: C2_2  and  C4_4 
REMARK    4  A    between atoms: C2_2  and  C5_5 
ROOT
ATOM      1  C5  <0> d          -2.164   1.050   1.278  0.00  0.00     0.010 C 
ATOM      2  H1  <0> d          -2.635   1.379   2.097  0.00  0.00     0.052 H 
ATOM      3  C6  <0> d          -2.148  -0.482   1.269  0.00  0.00    -0.055 C 
ATOM      4  C7  <0> d          -3.579  -1.006   1.138  0.00  0.00    -0.064 C 
ATOM      5  C8  <0> d          -4.168  -0.573  -0.206  0.00  0.00    -0.059 C 
ATOM      6  C9  <0> d          -4.260   0.955  -0.253  0.00  0.00    -0.009 C 
ATOM      7  C10 <0> d          -2.892   1.530   0.042  0.00  0.00     0.131 C 
ATOM      8  O1  <0> d          -2.394   2.350  -0.691  0.00  0.00    -0.298 OA
ATOM      9  H11 <0> d          -1.553  -0.835   0.426  0.00  0.00     0.034 H 
ATOM     10  H12 <0> d          -1.711  -0.846   2.200  0.00  0.00     0.034 H 
ATOM     11  H13 <0> d          -3.574  -2.094   1.198  0.00  0.00     0.033 H 
ATOM     12  H14 <0> d          -4.188  -0.601   1.946  0.00  0.00     0.033 H 
ATOM     13  H15 <0> d          -3.525  -0.924  -1.014  0.00  0.00     0.033 H 
ATOM     14  H16 <0> d          -5.163  -1.002  -0.322  0.00  0.00     0.033 H 
ATOM     15  H17 <0> d          -4.563   1.243  -1.162  0.00  0.00     0.044 H 
ATOM     16  H18 <0> d          -4.975   1.302   0.494  0.00  0.00     0.044 H 
ENDROOT
BRANCH   1  17
ATOM     17  C2  <0> d          -0.729   1.579   1.267  0.00  0.00    -0.041 C 
BRANCH  17  18
ATOM     18  C1  <0> d          -0.013   1.086   0.008  0.00  0.00    -0.069 C 
ATOM     19  H2  <0> d           0.002  -0.004   0.002  0.00  0.00     0.028 H 
ATOM     20  H3  <0> d           1.010   1.463   0.000  0.00  0.00     0.028 H 
ATOM     21  H4  <0> d          -0.540   1.447  -0.875  0.00  0.00     0.028 H 
ENDBRANCH  17  18
BRANCH  17  22
ATOM     22  C3  <0> d           0.011   1.072   2.506  0.00  0.00    -0.069 C 
ATOM     23  H5  <0> d           1.034   1.450   2.499  0.00  0.00     0.028 H 
ATOM     24  H6  <0> d          -0.499   1.424   3.403  0.00  0.00     0.028 H 
ATOM     25  H7  <0> d           0.026  -0.018   2.500  0.00  0.00     0.028 H 
ENDBRANCH  17  22
BRANCH  17  26
ATOM     26  C4  <0> d          -0.750   3.109   1.275  0.00  0.00    -0.069 C 
ATOM     27  H8  <0> d          -1.277   3.470   0.392  0.00  0.00     0.028 H 
ATOM     28  H9  <0> d          -1.260   3.461   2.172  0.00  0.00     0.028 H 
ATOM     29  H10 <0> d           0.273   3.486   1.268  0.00  0.00     0.028 H 
ENDBRANCH  17  26
ENDBRANCH   1  17
TORSDOF 4
