REMARK  0 active torsions:
REMARK  status: ('A' for Active; 'I' for Inactive)
ROOT
ATOM      1  C1  <0> d           3.426   2.436  -0.018  0.00  0.00    -0.064 A 
ATOM      2  C2  <0> d           2.488   1.418  -0.014  0.00  0.00    -0.054 A 
ATOM      3  C3  <0> d           1.135   1.759   0.001  0.00  0.00     0.060 A 
ATOM      4  C4  <0> d           0.793   3.106   0.011  0.00  0.00     0.069 A 
ATOM      5  N1  <0> d           1.715   4.044   0.007  0.00  0.00    -0.263 NA
ATOM      6  C5  <0> d           3.001   3.751  -0.006  0.00  0.00     0.003 A 
ATOM      7  C6  <0> d          -0.719   3.155   0.026  0.00  0.00     0.052 A 
ATOM      8  C7  <0> d          -1.136   1.700   0.016  0.00  0.00     0.228 A 
ATOM      9  O1  <0> d          -2.273   1.277   0.019  0.00  0.00    -0.273 OA
ATOM     10  N2  <0> d          -0.011   0.966   0.007  0.00  0.00    -0.325 N 
ATOM     11  H1  <0> d           4.481   2.204  -0.029  0.00  0.00     0.085 H 
ATOM     12  H2  <0> d           2.796   0.383  -0.022  0.00  0.00     0.087 H 
ATOM     13  H3  <0> d           3.730   4.548  -0.009  0.00  0.00     0.114 H 
ATOM     14  H4  <0> d          -1.076   3.652   0.928  0.00  0.00     0.056 H 
ATOM     15  H5  <0> d          -1.093   3.662  -0.864  0.00  0.00     0.056 H 
ATOM     16  H6  <0> d           0.002  -0.004   0.002  0.00  0.00     0.169 HD
ENDROOT
TORSDOF 0
