REMARK  2 active torsions:
REMARK  status: ('A' for Active; 'I' for Inactive)
REMARK    1  A    between atoms: C1_1  and  C2_2 
REMARK    2  A    between atoms: C2_2  and  C3_3 
ROOT
ATOM      1  C3  <0> d          -0.753   1.593  -1.232  0.00  0.00     0.025 C 
ATOM      2  H1  <0> d          -0.837   2.679  -1.207  0.00  0.00     0.054 H 
ATOM      3  C4  <0> d          -0.030   1.133  -2.519  0.00  0.00    -0.039 C 
ATOM      4  C5  <0> d          -1.219   0.853  -3.465  0.00  0.00    -0.004 C 
ATOM      5  N1  <0> d          -2.355   0.548  -2.586  0.00  0.00    -0.361 N 
ATOM      6  C6  <0> d          -2.122   0.957  -1.327  0.00  0.00     0.221 C 
ATOM      7  O1  <0> d          -2.897   0.834  -0.403  0.00  0.00    -0.273 OA
ATOM      8  H7  <0> d           0.605   1.925  -2.914  0.00  0.00     0.036 H 
ATOM      9  H8  <0> d           0.547   0.226  -2.339  0.00  0.00     0.036 H 
ATOM     10  H9  <0> d          -0.999   0.000  -4.106  0.00  0.00     0.064 H 
ATOM     11  H10 <0> d          -1.437   1.733  -4.070  0.00  0.00     0.064 H 
ATOM     12  H11 <0> d          -3.168   0.107  -2.877  0.00  0.00     0.162 HD
ENDROOT
BRANCH   1  13
ATOM     13  C2  <0> d          -0.013   1.086   0.008  0.00  0.00    -0.057 C 
ATOM     14  H5  <0> d           0.002  -0.004   0.002  0.00  0.00     0.033 H 
ATOM     15  H6  <0> d           1.010   1.463   0.000  0.00  0.00     0.033 H 
BRANCH  13  16
ATOM     16  C1  <0> d          -0.729   1.579   1.267  0.00  0.00    -0.076 C 
ATOM     17  H2  <0> d          -0.744   2.669   1.273  0.00  0.00     0.027 H 
ATOM     18  H3  <0> d          -1.751   1.202   1.275  0.00  0.00     0.027 H 
ATOM     19  H4  <0> d          -0.202   1.218   2.150  0.00  0.00     0.027 H 
ENDBRANCH  13  16
ENDBRANCH   1  13
TORSDOF 2
