REMARK  1 active torsions:
REMARK  status: ('A' for Active; 'I' for Inactive)
REMARK    1  A    between atoms: C6_6  and  N1_7 
ROOT
ATOM      1  C1  <0> d          -0.017   1.377   0.010  0.00  0.00    -0.055 A 
ATOM      2  C2  <0> d           0.002  -0.004   0.002  0.00  0.00    -0.046 A 
ATOM      3  C3  <0> d           1.211  -0.681  -0.013  0.00  0.00     0.107 A 
ATOM      4  C4  <0> d           2.408   0.036  -0.021  0.00  0.00     0.073 A 
ATOM      5  C5  <0> d           2.389   1.421  -0.013  0.00  0.00    -0.029 A 
ATOM      6  C6  <0> d           1.175   2.093   0.002  0.00  0.00     0.028 A 
ATOM      7  N2  <0> d           3.437  -0.906  -0.036  0.00  0.00    -0.300 N 
ATOM      8  H1  <0> d           4.388  -0.716  -0.044  0.00  0.00     0.171 HD
ATOM      9  C7  <0> d           2.868  -2.127  -0.037  0.00  0.00     0.370 A 
ATOM     10  O1  <0> d           3.471  -3.183  -0.048  0.00  0.00    -0.238 OA
ATOM     11  O2  <0> d           1.532  -1.999  -0.023  0.00  0.00    -0.259 OA
ATOM     12  H2  <0> d          -0.960   1.902   0.017  0.00  0.00     0.087 H 
ATOM     13  H3  <0> d          -0.926  -0.557   0.008  0.00  0.00     0.087 H 
ATOM     14  H4  <0> d           3.315   1.976  -0.018  0.00  0.00     0.090 H 
ENDROOT
BRANCH   6  15
ATOM     15  N1  <0> d           1.149   3.491   0.010  0.00  0.00    -0.399 N 
ATOM     16  H5  <0> d           0.301   3.961   0.021  0.00  0.00     0.156 HD
ATOM     17  H6  <0> d           1.981   3.991   0.005  0.00  0.00     0.156 HD
ENDBRANCH   6  15
TORSDOF 1
