REMARK  5 active torsions:
REMARK  status: ('A' for Active; 'I' for Inactive)
REMARK    1  A    between atoms: C1_1  and  C2_2 
REMARK    2  A    between atoms: C2_2  and  N1_3 
REMARK    3  A    between atoms: C4_5  and  C7_9 
REMARK    4  A    between atoms: C5_6  and  C6_8 
REMARK    5  A    between atoms: C7_9  and  C8_11 
ROOT
ATOM      1  N1  <0> d          -1.793  -1.278   3.205  0.00  0.00    -0.280 N 
ATOM      2  C3  <0> d          -1.186  -0.774   2.121  0.00  0.00     0.014 A 
ATOM      3  C4  <0> d          -1.253   0.606   2.213  0.00  0.00     0.052 A 
ATOM      4  C5  <0> d          -1.931   0.909   3.419  0.00  0.00     0.066 A 
ATOM      5  N2  <0> d          -2.251  -0.217   3.994  0.00  0.00    -0.177 NA
ATOM      6  H6  <0> d          -0.729  -1.340   1.323  0.00  0.00     0.115 H 
ENDROOT
BRANCH   1   7
ATOM      7  C2  <0> d          -1.951  -2.702   3.512  0.00  0.00     0.013 C 
ATOM      8  H4  <0> d          -3.010  -2.962   3.497  0.00  0.00     0.066 H 
ATOM      9  H5  <0> d          -1.421  -3.295   2.768  0.00  0.00     0.066 H 
BRANCH   7  10
ATOM     10  C1  <0> d          -1.375  -2.991   4.900  0.00  0.00    -0.059 C 
ATOM     11  H1  <0> d          -1.905  -2.397   5.645  0.00  0.00     0.029 H 
ATOM     12  H2  <0> d          -1.492  -4.050   5.128  0.00  0.00     0.029 H 
ATOM     13  H3  <0> d          -0.317  -2.731   4.915  0.00  0.00     0.029 H 
ENDBRANCH   7  10
ENDBRANCH   1   7
BRANCH   4  14
ATOM     14  C6  <0> d          -2.233   2.289   3.943  0.00  0.00    -0.033 C 
ATOM     15  H7  <0> d          -3.202   2.616   3.567  0.00  0.00     0.035 H 
ATOM     16  H8  <0> d          -2.254   2.267   5.033  0.00  0.00     0.035 H 
ATOM     17  H9  <0> d          -1.460   2.981   3.609  0.00  0.00     0.035 H 
ENDBRANCH   4  14
BRANCH   3  18
ATOM     18  C7  <0> d          -0.718   1.572   1.248  0.00  0.00     0.159 C 
ATOM     19  O1  <0> d          -0.843   2.762   1.448  0.00  0.00    -0.293 OA
BRANCH  18  20
ATOM     20  C8  <0> d          -0.013   1.086   0.008  0.00  0.00    -0.016 C 
ATOM     21  H10 <0> d           0.001   0.086   0.003  0.00  0.00     0.038 H 
ATOM     22  H11 <0> d           1.010   1.463   0.000  0.00  0.00     0.038 H 
ATOM     23  H12 <0> d          -0.540   1.447  -0.875  0.00  0.00     0.038 H 
ENDBRANCH  18  20
ENDBRANCH   3  18
TORSDOF 5
