REMARK  7 active torsions:
REMARK  status: ('A' for Active; 'I' for Inactive)
REMARK    1  A    between atoms: C1_1  and  C2_2 
REMARK    2  A    between atoms: C2_2  and  C3_3 
REMARK    3  A    between atoms: C2_2  and  C4_4 
REMARK       I    between atoms: C4_4  and  N1_6 
REMARK    4  A    between atoms: N1_6  and  C5_7 
REMARK    5  A    between atoms: C5_7  and  C6_8 
REMARK    6  A    between atoms: C5_7  and  C7_9 
REMARK    7  A    between atoms: C5_7  and  C8_10 
ROOT
ATOM      1  C4  <0> d          -0.014   1.209   0.009  0.00  0.00     0.221 C 
ATOM      2  O1  <0> d           0.002  -0.004   0.002  0.00  0.00    -0.273 OA
ATOM      3  N1  <0> d          -1.191   1.867   0.018  0.00  0.00    -0.353 N 
ATOM      4  H8  <0> d          -1.204   2.837   0.023  0.00  0.00     0.163 HD
ENDROOT
BRANCH   3   5
ATOM      5  C5  <0> d          -2.449   1.117   0.020  0.00  0.00     0.022 C 
BRANCH   5   6
ATOM      6  C6  <0> d          -2.512   0.230   1.264  0.00  0.00    -0.054 C 
ATOM      7  H9  <0> d          -2.459   0.852   2.158  0.00  0.00     0.030 H 
ATOM      8  H10 <0> d          -3.449  -0.328   1.266  0.00  0.00     0.030 H 
ATOM      9  H11 <0> d          -1.674  -0.468   1.257  0.00  0.00     0.030 H 
ENDBRANCH   5   6
BRANCH   5  10
ATOM     10  C7  <0> d          -3.626   2.095   0.031  0.00  0.00    -0.054 C 
ATOM     11  H12 <0> d          -3.580   2.727  -0.856  0.00  0.00     0.030 H 
ATOM     12  H13 <0> d          -4.562   1.537   0.032  0.00  0.00     0.030 H 
ATOM     13  H14 <0> d          -3.572   2.718   0.924  0.00  0.00     0.030 H 
ENDBRANCH   5  10
BRANCH   5  14
ATOM     14  C8  <0> d          -2.524   0.243  -1.234  0.00  0.00    -0.054 C 
ATOM     15  H15 <0> d          -1.686  -0.454  -1.242  0.00  0.00     0.030 H 
ATOM     16  H16 <0> d          -3.461  -0.315  -1.232  0.00  0.00     0.030 H 
ATOM     17  H17 <0> d          -2.479   0.875  -2.121  0.00  0.00     0.030 H 
ENDBRANCH   5  14
ENDBRANCH   3   5
BRANCH   1  18
ATOM     18  C2  <0> d           1.280   1.980   0.001  0.00  0.00     0.017 C 
ATOM     19  H4  <0> d           1.338   2.602   0.893  0.00  0.00     0.053 H 
BRANCH  18  20
ATOM     20  C1  <0> d           2.457   1.002  -0.016  0.00  0.00    -0.065 C 
ATOM     21  H1  <0> d           2.399   0.379  -0.909  0.00  0.00     0.028 H 
ATOM     22  H2  <0> d           3.393   1.559  -0.022  0.00  0.00     0.028 H 
ATOM     23  H3  <0> d           2.416   0.369   0.871  0.00  0.00     0.028 H 
ENDBRANCH  18  20
BRANCH  18  24
ATOM     24  C3  <0> d           1.337   2.867  -1.245  0.00  0.00    -0.065 C 
ATOM     25  H5  <0> d           1.280   2.244  -2.138  0.00  0.00     0.028 H 
ATOM     26  H6  <0> d           0.499   3.564  -1.233  0.00  0.00     0.028 H 
ATOM     27  H7  <0> d           2.274   3.425  -1.251  0.00  0.00     0.028 H 
ENDBRANCH  18  24
ENDBRANCH   1  18
TORSDOF 7
