REMARK  4 active torsions:
REMARK  status: ('A' for Active; 'I' for Inactive)
REMARK    1  A    between atoms: C1_1  and  C2_2 
REMARK    2  A    between atoms: C2_2  and  C3_3 
REMARK    3  A    between atoms: C6_6  and  S1_9 
REMARK    4  A    between atoms: S1_9  and  C8_10 
ROOT
ATOM      1  C3  <0> d           2.370   1.339  -0.013  0.00  0.00     0.034 A 
ATOM      2  C4  <0> d           1.193   2.064   0.002  0.00  0.00    -0.058 A 
ATOM      3  C5  <0> d          -0.017   1.390   0.010  0.00  0.00    -0.063 A 
ATOM      4  C6  <0> d           0.002  -0.004   0.002  0.00  0.00     0.017 A 
ATOM      5  C7  <0> d           1.226  -0.661  -0.013  0.00  0.00     0.019 A 
ATOM      6  N1  <0> d           2.354   0.020  -0.020  0.00  0.00    -0.264 NA
ATOM      7  H6  <0> d           1.216   3.143   0.007  0.00  0.00     0.086 H 
ATOM      8  H7  <0> d          -0.952   1.930   0.017  0.00  0.00     0.085 H 
ATOM      9  H8  <0> d           1.254  -1.741  -0.019  0.00  0.00     0.116 H 
ENDROOT
BRANCH   1  10
ATOM     10  C2  <0> d           3.690   2.066  -0.022  0.00  0.00    -0.028 C 
ATOM     11  H4  <0> d           3.514   3.147   0.076  0.00  0.00     0.041 H 
ATOM     12  H5  <0> d           4.214   1.864  -0.968  0.00  0.00     0.041 H 
BRANCH  10  13
ATOM     13  C1  <0> d           4.547   1.581   1.149  0.00  0.00    -0.071 C 
ATOM     14  H1  <0> d           5.511   2.112   1.143  0.00  0.00     0.028 H 
ATOM     15  H2  <0> d           4.724   0.499   1.051  0.00  0.00     0.028 H 
ATOM     16  H3  <0> d           4.024   1.783   2.095  0.00  0.00     0.028 H 
ENDBRANCH  10  13
ENDBRANCH   1  10
BRANCH   4  17
ATOM     17  S1  <0> d          -1.504  -0.919   0.011  0.00  0.00    -0.133 SA
BRANCH  17  18
ATOM     18  C8  <0> d          -0.965  -2.651  -0.003  0.00  0.00    -0.030 C 
ATOM     19  H9  <0> d          -1.847  -3.309   0.001  0.00  0.00     0.042 H 
ATOM     20  H10 <0> d          -0.353  -2.852   0.888  0.00  0.00     0.042 H 
ATOM     21  H11 <0> d          -0.369  -2.842  -0.908  0.00  0.00     0.042 H 
ENDBRANCH  17  18
ENDBRANCH   4  17
TORSDOF 4
