REMARK  1 active torsions:
REMARK  status: ('A' for Active; 'I' for Inactive)
REMARK    1  A    between atoms: C1_1  and  C2_2 
ROOT
ATOM      1  C2  <0> d           1.186   2.066   0.002  0.00  0.00    -0.059 A 
ATOM      2  C3  <0> d          -0.016   1.347   0.009  0.00  0.00    -0.062 A 
ATOM      3  C4  <0> d           0.002  -0.004   0.002  0.00  0.00    -0.013 A 
ATOM      4  N1  <0> d           1.235  -0.690  -0.013  0.00  0.00    -0.315 N 
ATOM      5  C5  <0> d           1.259  -2.055  -0.021  0.00  0.00     0.201 C 
ATOM      6  C6  <0> d           2.512  -2.748  -0.036  0.00  0.00     0.130 C 
ATOM      7  N2  <0> d           3.506  -3.299  -0.049  0.00  0.00    -0.189 NA
ATOM      8  C7  <0> d           0.032  -2.793  -0.012  0.00  0.00     0.130 C 
ATOM      9  N3  <0> d          -0.941  -3.378  -0.006  0.00  0.00    -0.189 NA
ATOM     10  C8  <0> d           2.442   0.040  -0.021  0.00  0.00    -0.013 A 
ATOM     11  C9  <0> d           2.412   1.390  -0.013  0.00  0.00    -0.062 A 
ATOM     12  H4  <0> d          -0.959   1.873   0.017  0.00  0.00     0.086 H 
ATOM     13  H5  <0> d          -0.925  -0.558   0.008  0.00  0.00     0.112 H 
ATOM     14  H6  <0> d           3.389  -0.480  -0.033  0.00  0.00     0.112 H 
ATOM     15  H7  <0> d           3.336   1.950  -0.019  0.00  0.00     0.086 H 
ENDROOT
BRANCH   1  16
ATOM     16  C1  <0> d           1.159   3.573   0.010  0.00  0.00    -0.051 C 
ATOM     17  H1  <0> d           1.162   3.931   1.039  0.00  0.00     0.033 H 
ATOM     18  H2  <0> d           2.037   3.955  -0.510  0.00  0.00     0.033 H 
ATOM     19  H3  <0> d           0.258   3.923  -0.494  0.00  0.00     0.033 H 
ENDBRANCH   1  16
TORSDOF 1
