REMARK  2 active torsions:
REMARK  status: ('A' for Active; 'I' for Inactive)
REMARK    1  A    between atoms: C1_1  and  C2_2 
REMARK    2  A    between atoms: C6_7  and  C7_8 
REMARK       I    between atoms: C7_8  and  N2_10 
ROOT
ATOM      1  C2  <0> d          -0.123   1.506  -0.028  0.00  0.00    -0.029 A 
ATOM      2  C3  <0> d           1.083   2.140  -0.256  0.00  0.00     0.008 A 
ATOM      3  N1  <0> d           1.175   3.454  -0.214  0.00  0.00    -0.273 NA
ATOM      4  C4  <0> d           0.135   4.221   0.045  0.00  0.00     0.003 A 
ATOM      5  C5  <0> d          -1.109   3.671   0.285  0.00  0.00    -0.050 A 
ATOM      6  C6  <0> d          -1.255   2.280   0.245  0.00  0.00     0.040 A 
ATOM      7  H4  <0> d           1.962   1.551  -0.472  0.00  0.00     0.115 H 
ATOM      8  H5  <0> d           0.256   5.294   0.070  0.00  0.00     0.114 H 
ATOM      9  H6  <0> d          -1.958   4.305   0.496  0.00  0.00     0.087 H 
ENDROOT
BRANCH   6  10
ATOM     10  C7  <0> d          -2.571   1.645   0.489  0.00  0.00     0.249 C 
ATOM     11  O1  <0> d          -2.658   0.435   0.561  0.00  0.00    -0.268 OA
ATOM     12  N2  <0> d          -3.672   2.410   0.632  0.00  0.00    -0.366 N 
ATOM     13  H7  <0> d          -3.603   3.375   0.575  0.00  0.00     0.159 HD
ATOM     14  H8  <0> d          -4.534   1.994   0.792  0.00  0.00     0.159 HD
ENDBRANCH   6  10
BRANCH   1  15
ATOM     15  C1  <0> d          -0.219   0.003  -0.079  0.00  0.00    -0.049 C 
ATOM     16  H1  <0> d          -0.139  -0.400   0.931  0.00  0.00     0.033 H 
ATOM     17  H2  <0> d          -1.178  -0.286  -0.510  0.00  0.00     0.033 H 
ATOM     18  H3  <0> d           0.590  -0.392  -0.693  0.00  0.00     0.033 H 
ENDBRANCH   1  15
TORSDOF 2
