REMARK  2 active torsions:
REMARK  status: ('A' for Active; 'I' for Inactive)
REMARK    1  A    between atoms: C1_1  and  C2_2 
REMARK    2  A    between atoms: C5_6  and  N3_8 
ROOT
ATOM      1  C2  <0> d           2.306  -0.064  -0.020  0.00  0.00     0.052 A 
ATOM      2  C3  <0> d           2.335   1.322  -0.013  0.00  0.00    -0.020 A 
ATOM      3  C4  <0> d           1.121   2.013   0.002  0.00  0.00     0.157 A 
ATOM      4  N1  <0> d          -0.016   1.319   0.009  0.00  0.00    -0.052 NA
ATOM      5  C5  <0> d           0.002  -0.004   0.002  0.00  0.00     0.721 A 
ATOM      6  N2  <0> d           1.139  -0.686  -0.012  0.00  0.00    -0.068 NA
ATOM      7  C6  <0> d           1.099   3.444   0.010  0.00  0.00     0.120 C 
ATOM      8  N4  <0> d           1.081   4.580   0.015  0.00  0.00    -0.190 NA
ATOM      9  H4  <0> d           3.274   1.855  -0.019  0.00  0.00     0.091 H 
ENDROOT
BRANCH   1  10
ATOM     10  C1  <0> d           3.590  -0.853  -0.035  0.00  0.00    -0.035 C 
ATOM     11  H1  <0> d           3.890  -1.038  -1.067  0.00  0.00     0.035 H 
ATOM     12  H2  <0> d           4.370  -0.288   0.474  0.00  0.00     0.035 H 
ATOM     13  H3  <0> d           3.438  -1.804   0.475  0.00  0.00     0.035 H 
ENDBRANCH   1  10
BRANCH   5  14
ATOM     14  N3  <0> d          -1.198  -0.694   0.010  0.00  0.00    -0.231 N 
ATOM     15  H5  <0> d          -2.037  -0.208   0.020  0.00  0.00     0.174 HD
ATOM     16  H6  <0> d          -1.199  -1.664   0.005  0.00  0.00     0.174 HD
ENDBRANCH   5  14
TORSDOF 2
