REMARK  2 active torsions:
REMARK  status: ('A' for Active; 'I' for Inactive)
REMARK    1  A    between atoms: C1_1  and  C2_2 
REMARK    2  A    between atoms: C8_12  and  C9_14 
ROOT
ATOM      1  C2  <0> d          -0.556   3.544  -1.206  0.00  0.00    -0.053 C 
ATOM      2  H1  <0> d          -0.953   4.045  -2.089  0.00  0.00     0.040 H 
ATOM      3  C3  <0> d          -1.319   3.998   0.060  0.00  0.00    -0.058 C 
ATOM      4  C4  <0> d          -1.964   2.693   0.620  0.00  0.00    -0.049 C 
ATOM      5  H2  <0> d          -2.804   2.831   1.299  0.00  0.00     0.040 H 
ATOM      6  C5  <0> d          -2.268   1.924  -0.714  0.00  0.00    -0.056 C 
ATOM      7  C6  <0> d          -0.811   2.008  -1.291  0.00  0.00    -0.035 C 
ATOM      8  H3  <0> d          -0.640   1.550  -2.265  0.00  0.00     0.042 H 
ATOM      9  C7  <0> d           0.004   1.411  -0.104  0.00  0.00     0.037 C 
ATOM     10  H4  <0> d           1.019   1.809  -0.101  0.00  0.00     0.064 H 
ATOM     11  C8  <0> d          -0.756   1.864   1.163  0.00  0.00    -0.038 C 
ATOM     12  H5  <0> d          -0.116   2.487   1.788  0.00  0.00     0.042 H 
ATOM     13  C10 <0> d           0.031  -0.059  -0.188  0.00  0.00     0.064 C 
ATOM     14  N1  <0> d           0.052  -1.192  -0.253  0.00  0.00    -0.197 NA
ATOM     15  H9  <0> d          -0.629   4.423   0.788  0.00  0.00     0.034 H 
ATOM     16  H10 <0> d          -2.090   4.723  -0.201  0.00  0.00     0.034 H 
ATOM     17  H11 <0> d          -2.986   2.456  -1.338  0.00  0.00     0.034 H 
ATOM     18  H12 <0> d          -2.576   0.894  -0.531  0.00  0.00     0.034 H 
ENDROOT
BRANCH  11  19
ATOM     19  C9  <0> d          -1.253   0.650   1.950  0.00  0.00    -0.071 C 
ATOM     20  H13 <0> d          -0.400   0.050   2.269  0.00  0.00     0.028 H 
ATOM     21  H14 <0> d          -1.808   0.986   2.826  0.00  0.00     0.028 H 
ATOM     22  H15 <0> d          -1.904   0.047   1.317  0.00  0.00     0.028 H 
ENDBRANCH  11  19
BRANCH   1  23
ATOM     23  C1  <0> d           0.940   3.829  -1.057  0.00  0.00    -0.072 C 
ATOM     24  H6  <0> d           1.489   3.308  -1.842  0.00  0.00     0.028 H 
ATOM     25  H7  <0> d           1.116   4.901  -1.142  0.00  0.00     0.028 H 
ATOM     26  H8  <0> d           1.281   3.481  -0.082  0.00  0.00     0.028 H 
ENDBRANCH   1  23
TORSDOF 2
