REMARK  1 active torsions:
REMARK  status: ('A' for Active; 'I' for Inactive)
REMARK    1  A    between atoms: C4_4  and  C7_7 
ROOT
ATOM      1  C1  <0> d          -0.017   1.378   0.010  0.00  0.00    -0.083 A 
ATOM      2  C2  <0> d           1.171   2.086   0.002  0.00  0.00    -0.082 A 
ATOM      3  C3  <0> d           2.377   1.411  -0.013  0.00  0.00    -0.076 A 
ATOM      4  C4  <0> d           2.396   0.029  -0.020  0.00  0.00    -0.050 A 
ATOM      5  C5  <0> d           1.208  -0.679  -0.012  0.00  0.00    -0.076 A 
ATOM      6  C6  <0> d           0.002  -0.004   0.002  0.00  0.00    -0.082 A 
ATOM      7  H1  <0> d          -0.959   1.905   0.026  0.00  0.00     0.083 H 
ATOM      8  H2  <0> d           1.156   3.165   0.008  0.00  0.00     0.083 H 
ATOM      9  H3  <0> d           3.305   1.963  -0.020  0.00  0.00     0.084 H 
ATOM     10  H4  <0> d           1.223  -1.759  -0.018  0.00  0.00     0.084 H 
ATOM     11  H5  <0> d          -0.926  -0.557   0.008  0.00  0.00     0.083 H 
ENDROOT
BRANCH   4  12
ATOM     12  C7  <0> d           3.711  -0.707  -0.038  0.00  0.00     0.013 C 
ATOM     13  C9  <0> d           3.923  -1.632   1.176  0.00  0.00     0.029 C 
ATOM     14  O1  <0> d           4.422  -2.587   0.218  0.00  0.00    -0.390 OA
ATOM     15  H9  <0> d           4.677  -1.274   1.877  0.00  0.00     0.075 H 
ATOM     16  H10 <0> d           2.997  -1.939   1.663  0.00  0.00     0.075 H 
ATOM     17  C8  <0> d           3.690  -1.999  -0.876  0.00  0.00     0.029 C 
ATOM     18  H7  <0> d           2.693  -2.418  -1.015  0.00  0.00     0.075 H 
ATOM     19  H8  <0> d           4.260  -1.933  -1.803  0.00  0.00     0.075 H 
ATOM     20  H6  <0> d           4.560  -0.057  -0.249  0.00  0.00     0.053 H 
ENDBRANCH   4  12
TORSDOF 1
