REMARK  2 active torsions:
REMARK  status: ('A' for Active; 'I' for Inactive)
REMARK    1  A    between atoms: C3_3  and  C7_9 
REMARK    2  A    between atoms: C6_6  and  N1_7 
ROOT
ATOM      1  C1  <0> d           1.193  -0.672  -0.013  0.00  0.00    -0.057 A 
ATOM      2  C2  <0> d           0.002  -0.004   0.002  0.00  0.00    -0.061 A 
ATOM      3  C3  <0> d          -0.017   1.395   0.010  0.00  0.00     0.079 A 
ATOM      4  C4  <0> d           1.190   2.108   0.002  0.00  0.00     0.135 A 
ATOM      5  C5  <0> d           2.388   1.425  -0.014  0.00  0.00    -0.019 A 
ATOM      6  C6  <0> d           2.394   0.033  -0.021  0.00  0.00     0.028 A 
ATOM      7  F1  <0> d           1.179   3.459   0.009  0.00  0.00    -0.205 F 
ATOM      8  H1  <0> d           1.203  -1.752  -0.019  0.00  0.00     0.086 H 
ATOM      9  H2  <0> d          -0.926  -0.556   0.008  0.00  0.00     0.085 H 
ATOM     10  H3  <0> d           3.321   1.969  -0.020  0.00  0.00     0.091 H 
ENDROOT
BRANCH   3  11
ATOM     11  C7  <0> d          -1.300   2.115   0.020  0.00  0.00     0.212 C 
ATOM     12  O1  <0> d          -1.315   3.331   0.026  0.00  0.00    -0.644 OA
ATOM     13  O2  <0> d          -2.460   1.428   0.021  0.00  0.00    -0.644 OA
ENDBRANCH   3  11
BRANCH   6  14
ATOM     14  N1  <0> d           3.602  -0.655  -0.037  0.00  0.00    -0.399 N 
ATOM     15  H4  <0> d           3.607  -1.625  -0.042  0.00  0.00     0.156 HD
ATOM     16  H5  <0> d           4.439  -0.165  -0.043  0.00  0.00     0.156 HD
ENDBRANCH   6  14
TORSDOF 2
