REMARK  1 active torsions:
REMARK  status: ('A' for Active; 'I' for Inactive)
REMARK    1  A    between atoms: C5_6  and  C6_7 
ROOT
ATOM      1  C1  <0> d          -1.173   5.577   0.049  0.00  0.00    -0.052 A 
ATOM      2  C2  <0> d          -2.066   6.629   0.058  0.00  0.00     0.003 A 
ATOM      3  N1  <0> d          -3.367   6.413   0.069  0.00  0.00    -0.273 NA
ATOM      4  C3  <0> d          -3.875   5.195   0.067  0.00  0.00     0.003 A 
ATOM      5  C4  <0> d          -3.055   4.086   0.053  0.00  0.00    -0.052 A 
ATOM      6  C5  <0> d          -1.668   4.268   0.041  0.00  0.00     0.013 A 
ATOM      7  H2  <0> d          -0.109   5.761   0.045  0.00  0.00     0.087 H 
ATOM      8  H3  <0> d          -1.694   7.643   0.060  0.00  0.00     0.114 H 
ATOM      9  H4  <0> d          -4.947   5.066   0.076  0.00  0.00     0.114 H 
ATOM     10  H5  <0> d          -3.478   3.092   0.052  0.00  0.00     0.087 H 
ENDROOT
BRANCH   6  11
ATOM     11  C6  <0> d          -0.750   3.108   0.026  0.00  0.00     0.137 A 
ATOM     12  N3  <0> d          -1.107   1.843   0.017  0.00  0.00    -0.241 NA
ATOM     13  C8  <0> d          -0.013   1.076   0.008  0.00  0.00     0.019 A 
ATOM     14  C7  <0> d           1.071   1.880   0.002  0.00  0.00    -0.004 A 
ATOM     15  H7  <0> d           0.002  -0.004   0.002  0.00  0.00     0.117 H 
ATOM     16  N2  <0> d           0.613   3.169   0.013  0.00  0.00    -0.349 N 
ATOM     17  H6  <0> d           2.104   1.566  -0.009  0.00  0.00     0.113 H 
ATOM     18  H1  <0> d           1.172   3.998   0.012  0.00  0.00     0.167 HD
ENDBRANCH   6  11
TORSDOF 1
