REMARK  1 active torsions:
REMARK  status: ('A' for Active; 'I' for Inactive)
REMARK    1  A    between atoms: C8_8  and  O1_10 
ROOT
ATOM      1  C1  <0> d           2.918   3.035   3.548  0.00  0.00    -0.082 A 
ATOM      2  C2  <0> d           2.947   1.653   3.541  0.00  0.00    -0.082 A 
ATOM      3  C3  <0> d           2.453   0.959   2.454  0.00  0.00    -0.074 A 
ATOM      4  C4  <0> d           1.928   1.640   1.369  0.00  0.00    -0.023 A 
ATOM      5  C5  <0> d           1.899   3.030   1.377  0.00  0.00    -0.047 A 
ATOM      6  C6  <0> d           2.395   3.720   2.469  0.00  0.00    -0.076 A 
ATOM      7  C7  <0> d           1.254   3.097   0.007  0.00  0.00    -0.013 A 
ATOM      8  C8  <0> d           1.286   1.562  -0.002  0.00  0.00     0.065 A 
ATOM      9  H1  <0> d           1.940   1.143  -0.767  0.00  0.00     0.091 H 
ATOM     10  H2  <0> d           3.304   3.579   4.398  0.00  0.00     0.083 H 
ATOM     11  H3  <0> d           3.355   1.116   4.384  0.00  0.00     0.083 H 
ATOM     12  H4  <0> d           2.476  -0.121   2.450  0.00  0.00     0.084 H 
ATOM     13  H5  <0> d           2.374   4.800   2.477  0.00  0.00     0.084 H 
ATOM     14  H6  <0> d           1.891   3.550  -0.753  0.00  0.00     0.044 H 
ATOM     15  H7  <0> d           0.247   3.512   0.019  0.00  0.00     0.044 H 
ENDROOT
BRANCH   8  16
ATOM     16  O1  <0> d          -0.011   0.963   0.007  0.00  0.00    -0.391 OA
ATOM     17  H8  <0> d           0.002  -0.004   0.002  0.00  0.00     0.210 HD
ENDBRANCH   8  16
TORSDOF 1
