REMARK  3 active torsions:
REMARK  status: ('A' for Active; 'I' for Inactive)
REMARK    1  A    between atoms: C4_6  and  C5_7 
REMARK    2  A    between atoms: C5_7  and  C6_8 
REMARK    3  A    between atoms: C6_8  and  O1_9 
ROOT
ATOM      1  C1  <0> d          -0.017   1.382   0.010  0.00  0.00    -0.042 A 
ATOM      2  C2  <0> d           1.194   2.057   0.002  0.00  0.00     0.005 A 
ATOM      3  N1  <0> d           2.319   1.362  -0.013  0.00  0.00    -0.254 NA
ATOM      4  C3  <0> d           2.298   0.044  -0.020  0.00  0.00     0.086 A 
ATOM      5  N2  <0> d           1.167  -0.632  -0.013  0.00  0.00    -0.246 NA
ATOM      6  C4  <0> d           0.002  -0.004   0.002  0.00  0.00     0.039 A 
ATOM      7  H1  <0> d          -0.952   1.922   0.026  0.00  0.00     0.088 H 
ATOM      8  H2  <0> d           1.218   3.137   0.007  0.00  0.00     0.114 H 
ATOM      9  H3  <0> d           3.233  -0.496  -0.032  0.00  0.00     0.146 H 
ENDROOT
BRANCH   6  10
ATOM     10  C5  <0> d          -1.287  -0.785   0.011  0.00  0.00    -0.005 C 
ATOM     11  H4  <0> d          -1.363  -1.350   0.940  0.00  0.00     0.045 H 
ATOM     12  H5  <0> d          -2.129  -0.098  -0.067  0.00  0.00     0.045 H 
BRANCH  10  13
ATOM     13  C6  <0> d          -1.306  -1.751  -1.176  0.00  0.00     0.022 C 
ATOM     14  H6  <0> d          -1.229  -1.186  -2.105  0.00  0.00     0.074 H 
ATOM     15  H7  <0> d          -0.463  -2.438  -1.099  0.00  0.00     0.074 H 
BRANCH  13  16
ATOM     16  O1  <0> d          -2.527  -2.492  -1.168  0.00  0.00    -0.400 OA
ATOM     17  H8  <0> d          -2.608  -3.125  -1.894  0.00  0.00     0.209 HD
ENDBRANCH  13  16
ENDBRANCH  10  13
ENDBRANCH   6  10
TORSDOF 3
