REMARK  4 active torsions:
REMARK  status: ('A' for Active; 'I' for Inactive)
REMARK    1  A    between atoms: C1_1  and  C2_2 
REMARK    2  A    between atoms: C2_2  and  O1_3 
REMARK    3  A    between atoms: O1_3  and  C3_4 
REMARK    4  A    between atoms: C4_6  and  C5_10 
ROOT
ATOM      1  C3  <0> d           0.002  -0.004   0.002  0.00  0.00     0.264 A 
ATOM      2  N1  <0> d          -1.073  -0.796   0.013  0.00  0.00    -0.191 NA
ATOM      3  C4  <0> d          -0.700  -2.050  -0.003  0.00  0.00     0.146 A 
ATOM      4  N2  <0> d           0.643  -2.087  -0.025  0.00  0.00    -0.156 NA
ATOM      5  H1  <0> d           2.154  -0.524  -0.028  0.00  0.00     0.193 HD
ATOM      6  N3  <0> d           1.078  -0.752  -0.018  0.00  0.00    -0.239 N 
ENDROOT
BRANCH   1   7
ATOM      7  O1  <0> d          -0.016   1.355   0.009  0.00  0.00    -0.320 OA
BRANCH   7   8
ATOM      8  C2  <0> d           1.248   2.021   0.001  0.00  0.00     0.026 C 
ATOM      9  H5  <0> d           1.805   1.737  -0.904  0.00  0.00     0.074 H 
ATOM     10  H6  <0> d           1.823   1.728   0.892  0.00  0.00     0.074 H 
BRANCH   8  11
ATOM     11  C1  <0> d           1.027   3.534   0.011  0.00  0.00    -0.056 C 
ATOM     12  H2  <0> d           2.000   4.047   0.005  0.00  0.00     0.030 H 
ATOM     13  H3  <0> d           0.469   3.817   0.916  0.00  0.00     0.030 H 
ATOM     14  H4  <0> d           0.452   3.827  -0.880  0.00  0.00     0.030 H 
ENDBRANCH   8  11
ENDBRANCH   7   8
ENDBRANCH   1   7
BRANCH   3  15
ATOM     15  C5  <0> d          -1.617  -3.246   0.003  0.00  0.00    -0.018 C 
ATOM     16  H7  <0> d          -1.018  -4.168  -0.014  0.00  0.00     0.038 H 
ATOM     17  H8  <0> d          -2.266  -3.214  -0.885  0.00  0.00     0.038 H 
ATOM     18  H9  <0> d          -2.237  -3.228   0.911  0.00  0.00     0.038 H 
ENDBRANCH   3  15
TORSDOF 4
