REMARK  1 active torsions:
REMARK  status: ('A' for Active; 'I' for Inactive)
REMARK    1  A    between atoms: C3_3  and  C6_8 
ROOT
ATOM      1  C1  <0> d          -0.017   1.383   0.010  0.00  0.00    -0.058 A 
ATOM      2  C2  <0> d           1.192   2.060   0.002  0.00  0.00    -0.047 A 
ATOM      3  C3  <0> d           2.378   1.329  -0.013  0.00  0.00     0.132 A 
ATOM      4  N1  <0> d           2.353   0.001  -0.020  0.00  0.00    -0.252 NA
ATOM      5  C4  <0> d           1.221  -0.667  -0.013  0.00  0.00     0.024 A 
ATOM      6  C5  <0> d           0.002  -0.004   0.002  0.00  0.00     0.051 A 
ATOM      7 Cl1  <0> d          -1.484  -0.901   0.012  0.00  0.00    -0.083 Cl
ATOM      8  H1  <0> d          -0.952   1.923   0.017  0.00  0.00     0.086 H 
ATOM      9  H2  <0> d           1.215   3.140   0.007  0.00  0.00     0.087 H 
ATOM     10  H3  <0> d           1.240  -1.747  -0.019  0.00  0.00     0.117 H 
ENDROOT
BRANCH   3  11
ATOM     11  C6  <0> d           3.677   2.038  -0.021  0.00  0.00     0.228 C 
ATOM     12  O1  <0> d           3.706   3.252  -0.015  0.00  0.00    -0.643 OA
ATOM     13  O2  <0> d           4.827   1.337  -0.035  0.00  0.00    -0.643 OA
ENDBRANCH   3  11
TORSDOF 1
