REMARK  5 active torsions:
REMARK  status: ('A' for Active; 'I' for Inactive)
REMARK    1  A    between atoms: C1_1  and  C2_2 
REMARK    2  A    between atoms: C4_4  and  C7_10 
REMARK    3  A    between atoms: N1_5  and  C5_7 
REMARK    4  A    between atoms: C5_7  and  C6_8 
REMARK    5  A    between atoms: C6_8  and  O1_9 
ROOT
ATOM      1  C2  <0> d          -2.082   1.622   2.917  0.00  0.00     0.053 A 
ATOM      2  C3  <0> d          -1.294   2.778   2.923  0.00  0.00    -0.035 A 
ATOM      3  C4  <0> d          -0.449   2.711   1.869  0.00  0.00     0.028 A 
ATOM      4  N1  <0> d          -0.698   1.558   1.213  0.00  0.00    -0.272 N 
ATOM      5  N2  <0> d          -1.725   0.890   1.893  0.00  0.00    -0.177 NA
ATOM      6  H4  <0> d          -1.349   3.580   3.644  0.00  0.00     0.089 H 
ENDROOT
BRANCH   4   7
ATOM      7  C5  <0> d          -0.013   1.086   0.008  0.00  0.00     0.036 C 
ATOM      8  H5  <0> d           0.002  -0.004   0.002  0.00  0.00     0.070 H 
ATOM      9  H6  <0> d           1.010   1.463   0.000  0.00  0.00     0.070 H 
BRANCH   7  10
ATOM     10  C6  <0> d          -0.753   1.593  -1.232  0.00  0.00     0.033 C 
ATOM     11  H7  <0> d          -1.775   1.215  -1.224  0.00  0.00     0.076 H 
ATOM     12  H8  <0> d          -0.767   2.683  -1.226  0.00  0.00     0.076 H 
BRANCH  10  13
ATOM     13  O1  <0> d          -0.084   1.132  -2.407  0.00  0.00    -0.399 OA
ATOM     14  H9  <0> d          -0.499   1.416  -3.233  0.00  0.00     0.209 HD
ENDBRANCH  10  13
ENDBRANCH   7  10
ENDBRANCH   4   7
BRANCH   3  15
ATOM     15  C7  <0> d           0.585   3.741   1.491  0.00  0.00    -0.036 C 
ATOM     16  H10 <0> d           0.139   4.472   0.816  0.00  0.00     0.035 H 
ATOM     17  H11 <0> d           0.940   4.246   2.390  0.00  0.00     0.035 H 
ATOM     18  H12 <0> d           1.422   3.251   0.995  0.00  0.00     0.035 H 
ENDBRANCH   3  15
BRANCH   1  19
ATOM     19  C1  <0> d          -3.154   1.279   3.918  0.00  0.00    -0.034 C 
ATOM     20  H1  <0> d          -2.715   0.718   4.743  0.00  0.00     0.035 H 
ATOM     21  H2  <0> d          -3.602   2.196   4.300  0.00  0.00     0.035 H 
ATOM     22  H3  <0> d          -3.922   0.674   3.435  0.00  0.00     0.035 H 
ENDBRANCH   1  19
TORSDOF 5
