REMARK  2 active torsions:
REMARK  status: ('A' for Active; 'I' for Inactive)
REMARK    1  A    between atoms: C1_1  and  O3_10 
REMARK    2  A    between atoms: C2_2  and  N3_9 
ROOT
ATOM      1  C1  <0> d          -0.017   1.401   0.010  0.00  0.00     0.178 A 
ATOM      2  C2  <0> d           1.170   2.081   0.002  0.00  0.00     0.142 A 
ATOM      3  N1  <0> d           2.351   1.376  -0.013  0.00  0.00    -0.292 N 
ATOM      4  C3  <0> d           2.341   0.031  -0.020  0.00  0.00     0.328 A 
ATOM      5  N2  <0> d           1.183  -0.654  -0.013  0.00  0.00    -0.273 N 
ATOM      6  C4  <0> d           0.002  -0.004   0.002  0.00  0.00     0.286 A 
ATOM      7  O1  <0> d          -1.044  -0.632   0.009  0.00  0.00    -0.265 OA
ATOM      8  O2  <0> d           3.395  -0.576  -0.033  0.00  0.00    -0.247 OA
ATOM      9  H4  <0> d           3.197   1.852  -0.019  0.00  0.00     0.172 HD
ATOM     10  H5  <0> d           1.197  -1.623  -0.019  0.00  0.00     0.173 HD
ENDROOT
BRANCH   2  11
ATOM     11  N3  <0> d           1.182   3.457   0.009  0.00  0.00    -0.383 N 
ATOM     12  H1  <0> d           0.346   3.949   0.019  0.00  0.00     0.157 HD
ATOM     13  H2  <0> d           2.026   3.934   0.003  0.00  0.00     0.157 HD
ENDBRANCH   2  11
BRANCH   1  14
ATOM     14  O3  <0> d          -1.202   2.077   0.030  0.00  0.00    -0.353 OA
ATOM     15  H3  <0> d          -1.981   1.505   0.038  0.00  0.00     0.218 HD
ENDBRANCH   1  14
TORSDOF 2
