REMARK  3 active torsions:
REMARK  status: ('A' for Active; 'I' for Inactive)
REMARK    1  A    between atoms: C3_3  and  C5_5 
REMARK    2  A    between atoms: C3_3  and  C6_7 
REMARK    3  A    between atoms: C5_5  and  O1_6 
REMARK       I    between atoms: C6_7  and  N1_9 
ROOT
ATOM      1  C1  <0> d           0.002  -0.004   0.002  0.00  0.00    -0.063 C 
ATOM      2  C2  <0> d          -0.019   1.534   0.011  0.00  0.00    -0.048 C 
ATOM      3  C3  <0> d           1.518   1.476  -0.004  0.00  0.00     0.062 C 
ATOM      4  C4  <0> d           1.394   0.090   0.649  0.00  0.00    -0.048 C 
ATOM      5  H1  <0> d           0.079  -0.534  -0.959  0.00  0.00     0.033 H 
ATOM      6  H2  <0> d          -0.677  -0.554   0.671  0.00  0.00     0.033 H 
ATOM      7  H3  <0> d          -0.551   1.898  -0.881  0.00  0.00     0.035 H 
ATOM      8  H4  <0> d          -0.534   1.888   0.915  0.00  0.00     0.035 H 
ATOM      9  H5  <0> d           1.296   0.018   1.742  0.00  0.00     0.035 H 
ATOM     10  H6  <0> d           2.025  -0.734   0.283  0.00  0.00     0.035 H 
ENDROOT
BRANCH   3  11
ATOM     11  C5  <0> d           2.179   2.521   0.896  0.00  0.00     0.032 C 
ATOM     12  H7  <0> d           1.885   3.529   0.566  0.00  0.00     0.075 H 
ATOM     13  H8  <0> d           1.855   2.367   1.936  0.00  0.00     0.075 H 
BRANCH  11  14
ATOM     14  O1  <0> d           3.600   2.389   0.816  0.00  0.00    -0.400 OA
ATOM     15  H9  <0> d           4.248   3.060   1.399  0.00  0.00     0.209 HD
ENDBRANCH  11  14
ENDBRANCH   3  11
BRANCH   3  16
ATOM     16  C6  <0> d           2.107   1.440  -1.391  0.00  0.00     0.226 C 
ATOM     17  O2  <0> d           1.378   1.457  -2.360  0.00  0.00    -0.273 OA
ATOM     18  N1  <0> d           3.444   1.388  -1.554  0.00  0.00    -0.369 N 
ATOM     19  H10 <0> d           3.874   1.362  -2.566  0.00  0.00     0.159 HD
ATOM     20  H11 <0> d           4.105   1.373  -0.675  0.00  0.00     0.159 HD
ENDBRANCH   3  16
TORSDOF 3
