REMARK  4 active torsions:
REMARK  status: ('A' for Active; 'I' for Inactive)
REMARK    1  A    between atoms: C3_3  and  N1_4 
REMARK       I    between atoms: N1_4  and  C4_5 
REMARK    2  A    between atoms: C4_5  and  C5_7 
REMARK    3  A    between atoms: C5_7  and  C6_8 
REMARK    4  A    between atoms: C6_8  and  C7_9 
ROOT
ATOM      1  N1  <0> d          -0.011   0.966   0.007  0.00  0.00    -0.356 N 
ATOM      2  C4  <0> d           1.147   1.655  -0.000  0.00  0.00     0.218 C 
ATOM      3  O1  <0> d           1.130   2.868   0.007  0.00  0.00    -0.274 OA
ATOM      4  H6  <0> d           0.002  -0.004   0.002  0.00  0.00     0.162 HD
ENDROOT
BRANCH   2   5
ATOM      5  C5  <0> d           2.462   0.920  -0.017  0.00  0.00     0.018 C 
ATOM      6  H7  <0> d           2.537   0.289   0.869  0.00  0.00     0.047 H 
ATOM      7  H8  <0> d           2.520   0.299  -0.910  0.00  0.00     0.047 H 
BRANCH   5   8
ATOM      8  C6  <0> d           3.611   1.930  -0.022  0.00  0.00     0.024 C 
ATOM      9  H9  <0> d           3.537   2.560  -0.908  0.00  0.00     0.049 H 
ATOM     10  H10 <0> d           3.554   2.551   0.872  0.00  0.00     0.049 H 
BRANCH   8  11
ATOM     11  C7  <0> d           4.926   1.194  -0.039  0.00  0.00     0.172 C 
ATOM     12  O2  <0> d           4.943  -0.014  -0.045  0.00  0.00    -0.648 OA
ATOM     13  O3  <0> d           6.080   1.881  -0.046  0.00  0.00    -0.648 OA
ENDBRANCH   8  11
ENDBRANCH   5   8
ENDBRANCH   2   5
BRANCH   1  14
ATOM     14  C3  <0> d          -1.290   1.681   0.017  0.00  0.00     0.012 A 
ATOM     15  C1  <0> d          -2.380   1.165   0.958  0.00  0.00    -0.044 A 
ATOM     16  C2  <0> d          -2.510   0.955  -0.553  0.00  0.00    -0.044 A 
ATOM     17  H1  <0> d          -2.147   0.294   1.570  0.00  0.00     0.036 H 
ATOM     18  H2  <0> d          -3.035   1.903   1.421  0.00  0.00     0.036 H 
ATOM     19  H3  <0> d          -3.250   1.554  -1.083  0.00  0.00     0.036 H 
ATOM     20  H4  <0> d          -2.361  -0.055  -0.935  0.00  0.00     0.036 H 
ATOM     21  H5  <0> d          -1.227   2.758  -0.138  0.00  0.00     0.072 H 
ENDBRANCH   1  14
TORSDOF 4
