REMARK  3 active torsions:
REMARK  status: ('A' for Active; 'I' for Inactive)
REMARK    1  A    between atoms: C2_2  and  C6_9 
REMARK    2  A    between atoms: C4_4  and  O2_8 
REMARK    3  A    between atoms: C5_6  and  O1_7 
ROOT
ATOM      1  C1  <0> d          -2.518   1.236   0.021  0.00  0.00    -0.015 A 
ATOM      2  C2  <0> d          -1.307   1.933   0.019  0.00  0.00     0.049 A 
ATOM      3  C3  <0> d          -1.347   3.330   0.032  0.00  0.00    -0.015 A 
ATOM      4  C4  <0> d          -2.578   3.969   0.037  0.00  0.00     0.165 A 
ATOM      5  N1  <0> d          -3.703   3.273   0.038  0.00  0.00    -0.201 NA
ATOM      6  C5  <0> d          -3.707   1.951   0.031  0.00  0.00     0.165 A 
ATOM      7  H1  <0> d          -2.529   0.156   0.014  0.00  0.00     0.091 H 
ATOM      8  H2  <0> d          -0.432   3.904   0.036  0.00  0.00     0.091 H 
ENDROOT
BRANCH   2   9
ATOM      9  C6  <0> d          -0.014   1.210   0.009  0.00  0.00     0.209 C 
ATOM     10  O3  <0> d           0.002  -0.004   0.002  0.00  0.00    -0.644 OA
ATOM     11  O4  <0> d           1.143   1.899   0.001  0.00  0.00    -0.644 OA
ENDBRANCH   2   9
BRANCH   6  12
ATOM     12  O1  <0> d          -4.889   1.285   0.033  0.00  0.00    -0.345 OA
ATOM     13  H3  <0> d          -5.227   1.087   0.917  0.00  0.00     0.219 HD
ENDBRANCH   6  12
BRANCH   4  14
ATOM     14  O2  <0> d          -2.629   5.325   0.044  0.00  0.00    -0.345 OA
ATOM     15  H4  <0> d          -2.640   5.713   0.930  0.00  0.00     0.219 HD
ENDBRANCH   4  14
TORSDOF 3
