REMARK  3 active torsions:
REMARK  status: ('A' for Active; 'I' for Inactive)
REMARK    1  A    between atoms: C3_3  and  C7_8 
REMARK    2  A    between atoms: C8_9  and  C9_10 
REMARK    3  A    between atoms: C9_10  and  O1_11 
ROOT
ATOM      1  C1  <0> d           1.173   1.783   0.000  0.00  0.00    -0.079 A 
ATOM      2  C2  <0> d          -0.013   1.076   0.008  0.00  0.00    -0.065 A 
ATOM      3  C3  <0> d          -1.230   1.758   0.017  0.00  0.00     0.020 A 
ATOM      4  C4  <0> d          -1.241   3.153   0.030  0.00  0.00    -0.028 A 
ATOM      5  C5  <0> d          -0.048   3.850   0.022  0.00  0.00     0.117 A 
ATOM      6  C6  <0> d           1.157   3.166   0.007  0.00  0.00    -0.046 A 
ATOM      7  F1  <0> d          -0.056   5.201   0.029  0.00  0.00    -0.206 F 
ATOM      8  H1  <0> d           2.115   1.255  -0.011  0.00  0.00     0.083 H 
ATOM      9  H2  <0> d           0.002  -0.004   0.002  0.00  0.00     0.085 H 
ATOM     10  H3  <0> d          -2.180   3.687   0.042  0.00  0.00     0.090 H 
ATOM     11  H4  <0> d           2.087   3.714   0.000  0.00  0.00     0.088 H 
ENDROOT
BRANCH   3  12
ATOM     12  C7  <0> d          -2.462   1.029   0.020  0.00  0.00    -0.065 C 
ATOM     13  C8  <0> d          -3.473   0.431   0.022  0.00  0.00    -0.075 C 
BRANCH  13  14
ATOM     14  C9  <0> d          -4.740  -0.318   0.024  0.00  0.00     0.071 C 
ATOM     15  H5  <0> d          -4.795  -0.941  -0.869  0.00  0.00     0.093 H 
ATOM     16  H6  <0> d          -4.786  -0.950   0.911  0.00  0.00     0.093 H 
BRANCH  14  17
ATOM     17  O1  <0> d          -5.835   0.599   0.034  0.00  0.00    -0.389 OA
ATOM     18  H7  <0> d          -6.704   0.174   0.036  0.00  0.00     0.210 HD
ENDBRANCH  14  17
ENDBRANCH  13  14
ENDBRANCH   3  12
TORSDOF 3
