REMARK  3 active torsions:
REMARK  status: ('A' for Active; 'I' for Inactive)
REMARK    1  A    between atoms: C1_1  and  O1_2 
REMARK    2  A    between atoms: O1_2  and  C2_3 
REMARK    3  A    between atoms: C7_8  and  N1_9 
ROOT
ATOM      1  C2  <0> d           0.606  -0.608  -1.057  0.00  0.00     0.096 A 
ATOM      2  C3  <0> d           1.173   0.159  -2.062  0.00  0.00    -0.048 A 
ATOM      3  C4  <0> d           1.787  -0.456  -3.138  0.00  0.00    -0.079 A 
ATOM      4  C5  <0> d           1.838  -1.835  -3.215  0.00  0.00    -0.059 A 
ATOM      5  C6  <0> d           1.274  -2.608  -2.215  0.00  0.00     0.063 A 
ATOM      6  C7  <0> d           0.662  -1.997  -1.129  0.00  0.00     0.081 A 
ATOM      7 Cl1  <0> d           1.339  -4.340  -2.315  0.00  0.00    -0.082 Cl
ATOM      8  H4  <0> d           1.135   1.237  -2.006  0.00  0.00     0.087 H 
ATOM      9  H5  <0> d           2.227   0.144  -3.921  0.00  0.00     0.083 H 
ATOM     10  H6  <0> d           2.318  -2.311  -4.057  0.00  0.00     0.086 H 
ENDROOT
BRANCH   1  11
ATOM     11  O1  <0> d           0.002  -0.004   0.002  0.00  0.00    -0.354 OA
BRANCH  11  12
ATOM     12  C1  <0> d          -0.017   1.425   0.010  0.00  0.00     0.010 C 
ATOM     13  H1  <0> d           1.005   1.802   0.002  0.00  0.00     0.066 H 
ATOM     14  H2  <0> d          -0.544   1.786  -0.873  0.00  0.00     0.066 H 
ATOM     15  H3  <0> d          -0.527   1.776   0.907  0.00  0.00     0.066 H 
ENDBRANCH  11  12
ENDBRANCH   1  11
BRANCH   6  16
ATOM     16  N1  <0> d           0.096  -2.777  -0.112  0.00  0.00    -0.396 N 
ATOM     17  H7  <0> d          -0.335  -2.349   0.644  0.00  0.00     0.156 HD
ATOM     18  H8  <0> d           0.136  -3.744  -0.164  0.00  0.00     0.156 HD
ENDBRANCH   6  16
TORSDOF 3
