REMARK  0 active torsions:
REMARK  status: ('A' for Active; 'I' for Inactive)
ROOT
ATOM      1  C1  <0> d           1.163   1.793   0.001  0.00  0.00    -0.058 A 
ATOM      2  C2  <0> d          -0.013   1.076   0.008  0.00  0.00     0.011 A 
ATOM      3  N1  <0> d          -1.150   1.727   0.017  0.00  0.00    -0.224 NA
ATOM      4  S1  <0> d          -0.670   3.367   0.027  0.00  0.00    -0.001 SA
ATOM      5  C3  <0> d           1.049   3.148   0.009  0.00  0.00    -0.026 A 
ATOM      6  H1  <0> d           2.126   1.304  -0.012  0.00  0.00     0.086 H 
ATOM      7  H2  <0> d           0.002  -0.004   0.002  0.00  0.00     0.115 H 
ATOM      8  H3  <0> d           1.829   3.896   0.005  0.00  0.00     0.097 H 
ENDROOT
TORSDOF 0
