REMARK  2 active torsions:
REMARK  status: ('A' for Active; 'I' for Inactive)
REMARK    1  A    between atoms: C1_1  and  C2_2 
REMARK    2  A    between atoms: C4_5  and  C6_8 
ROOT
ATOM      1  C2  <0> d           0.002  -0.004   0.002  0.00  0.00     0.048 A 
ATOM      2  C3  <0> d           0.006  -0.690  -1.206  0.00  0.00     0.026 A 
ATOM      3  N1  <0> d           0.024  -2.006  -1.218  0.00  0.00    -0.251 NA
ATOM      4  C4  <0> d           0.039  -2.681  -0.071  0.00  0.00     0.150 A 
ATOM      5  C5  <0> d           0.035  -1.990   1.140  0.00  0.00     0.037 A 
ATOM      6  N2  <0> d           0.022  -0.669   1.143  0.00  0.00    -0.262 NA
ATOM      7  H4  <0> d          -0.007  -0.142  -2.136  0.00  0.00     0.117 H 
ATOM      8  H5  <0> d           0.047  -2.533   2.074  0.00  0.00     0.118 H 
ENDROOT
BRANCH   1   9
ATOM      9  C1  <0> d          -0.018   1.503   0.010  0.00  0.00    -0.034 C 
ATOM     10  H1  <0> d           1.004   1.880   0.003  0.00  0.00     0.035 H 
ATOM     11  H2  <0> d          -0.545   1.864  -0.873  0.00  0.00     0.035 H 
ATOM     12  H3  <0> d          -0.529   1.854   0.907  0.00  0.00     0.035 H 
ENDBRANCH   1   9
BRANCH   4  13
ATOM     13  C6  <0> d           0.059  -4.160  -0.081  0.00  0.00     0.230 C 
ATOM     14  O1  <0> d           0.062  -4.765  -1.143  0.00  0.00    -0.643 OA
ATOM     15  O2  <0> d           0.073  -4.778   0.974  0.00  0.00    -0.643 OA
ENDBRANCH   4  13
TORSDOF 2
