REMARK  5 active torsions:
REMARK  status: ('A' for Active; 'I' for Inactive)
REMARK    1  A    between atoms: C1_1  and  C2_2 
REMARK    2  A    between atoms: C2_2  and  O1_3 
REMARK    3  A    between atoms: O1_3  and  C3_4 
REMARK    4  A    between atoms: C3_4  and  C4_6 
REMARK    5  A    between atoms: C6_8  and  C8_12 
ROOT
ATOM      1  C4  <0> d           0.660   3.187   0.012  0.00  0.00     0.108 A 
ATOM      2  C5  <0> d          -0.720   3.185   0.025  0.00  0.00    -0.044 A 
ATOM      3  C6  <0> d          -1.126   1.848   0.017  0.00  0.00    -0.044 A 
ATOM      4  C7  <0> d          -0.013   1.076   0.008  0.00  0.00    -0.017 A 
ATOM      5  N1  <0> d           1.075   1.875   0.002  0.00  0.00    -0.361 N 
ATOM      6  H1  <0> d           1.997   1.574  -0.008  0.00  0.00     0.165 HD
ATOM      7  H7  <0> d          -1.364   4.052   0.036  0.00  0.00     0.088 H 
ATOM      8  H8  <0> d           0.002  -0.004   0.002  0.00  0.00     0.112 H 
ENDROOT
BRANCH   1   9
ATOM      9  C3  <0> d           1.525   4.370   0.011  0.00  0.00     0.310 C 
ATOM     10  O2  <0> d           1.034   5.482   0.022  0.00  0.00    -0.258 OA
BRANCH   9  11
ATOM     11  O1  <0> d           2.866   4.225  -0.002  0.00  0.00    -0.317 OA
BRANCH  11  12
ATOM     12  C2  <0> d           3.660   5.440  -0.003  0.00  0.00     0.026 C 
ATOM     13  H5  <0> d           3.421   6.030  -0.887  0.00  0.00     0.074 H 
ATOM     14  H6  <0> d           3.437   6.020   0.893  0.00  0.00     0.074 H 
BRANCH  12  15
ATOM     15  C1  <0> d           5.147   5.077  -0.018  0.00  0.00    -0.056 C 
ATOM     16  H2  <0> d           5.386   4.487   0.867  0.00  0.00     0.030 H 
ATOM     17  H3  <0> d           5.370   4.497  -0.913  0.00  0.00     0.030 H 
ATOM     18  H4  <0> d           5.743   5.990  -0.018  0.00  0.00     0.030 H 
ENDBRANCH  12  15
ENDBRANCH  11  12
ENDBRANCH   9  11
ENDBRANCH   1   9
BRANCH   3  19
ATOM     19  C8  <0> d          -2.549   1.352   0.020  0.00  0.00    -0.050 C 
ATOM     20  H9  <0> d          -2.888   1.227   1.048  0.00  0.00     0.033 H 
ATOM     21  H10 <0> d          -3.187   2.076  -0.488  0.00  0.00     0.033 H 
ATOM     22  H11 <0> d          -2.602   0.395  -0.499  0.00  0.00     0.033 H 
ENDBRANCH   3  19
TORSDOF 5
