REMARK  7 active torsions:
REMARK  status: ('A' for Active; 'I' for Inactive)
REMARK    1  A    between atoms: C1_1  and  C2_2 
REMARK    2  A    between atoms: C2_2  and  C3_4 
REMARK    3  A    between atoms: C2_2  and  O2_11 
REMARK    4  A    between atoms: C3_4  and  C4_5 
REMARK    5  A    between atoms: C4_5  and  C5_7 
REMARK    6  A    between atoms: C4_5  and  O1_10 
REMARK    7  A    between atoms: C5_7  and  C6_8 
ROOT
ATOM      1  C4  <0> d           1.370  -1.717   1.161  0.00  0.00     0.041 C 
ATOM      2  H2  <0> d           0.502  -2.376   1.125  0.00  0.00     0.083 H 
ENDROOT
BRANCH   1   3
ATOM      3  C3  <0> d           2.649  -2.552   1.074  0.00  0.00    -0.017 C 
ATOM      4  H6  <0> d           2.699  -3.040   0.101  0.00  0.00     0.040 H 
ATOM      5  H7  <0> d           3.515  -1.903   1.200  0.00  0.00     0.040 H 
BRANCH   3   6
ATOM      6  C2  <0> d           2.642  -3.613   2.177  0.00  0.00     0.034 C 
ATOM      7  H1  <0> d           2.503  -3.130   3.144  0.00  0.00     0.082 H 
BRANCH   6   8
ATOM      8  C1  <0> d           3.974  -4.365   2.169  0.00  0.00    -0.052 C 
ATOM      9  H3  <0> d           4.789  -3.663   2.345  0.00  0.00     0.030 H 
ATOM     10  H4  <0> d           3.969  -5.121   2.954  0.00  0.00     0.030 H 
ATOM     11  H5  <0> d           4.113  -4.848   1.201  0.00  0.00     0.030 H 
ENDBRANCH   6   8
BRANCH   6  12
ATOM     12  O2  <0> d           1.573  -4.533   1.946  0.00  0.00    -0.396 OA
ATOM     13  H14 <0> d           1.509  -5.235   2.608  0.00  0.00     0.210 HD
ENDBRANCH   6  12
ENDBRANCH   3   6
ENDBRANCH   1   3
BRANCH   1  14
ATOM     14  C5  <0> d           1.317  -0.740  -0.015  0.00  0.00    -0.026 C 
ATOM     15  H8  <0> d           1.413  -1.291  -0.950  0.00  0.00     0.042 H 
ATOM     16  H9  <0> d           2.135  -0.024   0.071  0.00  0.00     0.042 H 
BRANCH  14  17
ATOM     17  C6  <0> d           0.002  -0.004   0.002  0.00  0.00    -0.110 C 
ATOM     18  C7  <0> d          -0.016   1.306   0.009  0.00  0.00    -0.125 C 
ATOM     19  H11 <0> d           0.912   1.859   0.003  0.00  0.00     0.066 H 
ATOM     20  H12 <0> d          -0.958   1.833   0.017  0.00  0.00     0.066 H 
ATOM     21  H10 <0> d          -0.926  -0.557   0.008  0.00  0.00     0.075 H 
ENDBRANCH  14  17
ENDBRANCH   1  14
BRANCH   1  22
ATOM     22  O1  <0> d           1.361  -0.986   2.389  0.00  0.00    -0.395 OA
ATOM     23  H13 <0> d           2.106  -0.378   2.490  0.00  0.00     0.210 HD
ENDBRANCH   1  22
TORSDOF 7
