REMARK  0 active torsions:
REMARK  status: ('A' for Active; 'I' for Inactive)
ROOT
ATOM      1  C1  <0> d          -1.242   3.491   0.032  0.00  0.00    -0.004 A 
ATOM      2  C2  <0> d          -0.022   4.155   0.024  0.00  0.00     0.136 A 
ATOM      3  C3  <0> d           1.154   3.417   0.009  0.00  0.00     0.041 A 
ATOM      4  N1  <0> d           1.127   2.102   0.003  0.00  0.00    -0.244 NA
ATOM      5  C4  <0> d          -0.017   1.428   0.010  0.00  0.00     0.175 A 
ATOM      6  C5  <0> d          -1.240   2.104   0.019  0.00  0.00     0.158 A 
ATOM      7  F1  <0> d          -2.404   1.418   0.021  0.00  0.00    -0.203 F 
ATOM      8  C6  <0> d           0.002  -0.004   0.002  0.00  0.00     0.123 C 
ATOM      9  N2  <0> d           0.018  -1.140  -0.004  0.00  0.00    -0.190 NA
ATOM     10  F2  <0> d           0.020   5.505   0.030  0.00  0.00    -0.204 F 
ATOM     11  H1  <0> d          -2.171   4.043   0.044  0.00  0.00     0.093 H 
ATOM     12  H2  <0> d           2.104   3.930   0.003  0.00  0.00     0.119 H 
ENDROOT
TORSDOF 0
