REMARK  2 active torsions:
REMARK  status: ('A' for Active; 'I' for Inactive)
REMARK    1  A    between atoms: C1_1  and  C2_2 
REMARK    2  A    between atoms: C2_2  and  N1_3 
ROOT
ATOM      1  N1  <0> d          -0.018   1.461   0.010  0.00  0.00    -0.310 N 
ATOM      2  C3  <0> d          -1.216   2.122   0.019  0.00  0.00    -0.011 A 
ATOM      3  C4  <0> d          -1.234   3.472   0.032  0.00  0.00    -0.002 A 
ATOM      4  C5  <0> d          -0.006   4.178   0.024  0.00  0.00     0.250 A 
ATOM      5  O1  <0> d           0.003   5.396   0.030  0.00  0.00    -0.268 OA
ATOM      6  N2  <0> d           1.153   3.489   0.009  0.00  0.00    -0.275 N 
ATOM      7  H1  <0> d           2.024   3.980   0.003  0.00  0.00     0.173 HD
ATOM      8  C6  <0> d           1.142   2.143   0.003  0.00  0.00     0.329 A 
ATOM      9  O2  <0> d           2.195   1.535  -0.010  0.00  0.00    -0.246 OA
ATOM     10  H7  <0> d          -2.142   1.567   0.021  0.00  0.00     0.112 H 
ATOM     11  H8  <0> d          -2.172   4.007   0.044  0.00  0.00     0.094 H 
ENDROOT
BRANCH   1  12
ATOM     12  C2  <0> d           0.002  -0.004   0.002  0.00  0.00     0.000 C 
ATOM     13  H5  <0> d          -0.888  -0.377  -0.505  0.00  0.00     0.064 H 
ATOM     14  H6  <0> d           0.892  -0.352  -0.522  0.00  0.00     0.064 H 
BRANCH  12  15
ATOM     15  C1  <0> d           0.023  -0.522   1.442  0.00  0.00    -0.061 C 
ATOM     16  H2  <0> d          -0.867  -0.173   1.966  0.00  0.00     0.029 H 
ATOM     17  H3  <0> d           0.037  -1.612   1.436  0.00  0.00     0.029 H 
ATOM     18  H4  <0> d           0.913  -0.149   1.949  0.00  0.00     0.029 H 
ENDBRANCH  12  15
ENDBRANCH   1  12
TORSDOF 2
