REMARK  1 active torsions:
REMARK  status: ('A' for Active; 'I' for Inactive)
REMARK    1  A    between atoms: C2_2  and  C5_8 
ROOT
ATOM      1  C1  <0> d          -0.017   1.383   0.010  0.00  0.00    -0.020 A 
ATOM      2  C2  <0> d           1.193   2.059   0.002  0.00  0.00     0.043 A 
ATOM      3  N1  <0> d           2.319   1.363  -0.013  0.00  0.00    -0.246 NA
ATOM      4  C3  <0> d           2.299   0.045  -0.020  0.00  0.00     0.088 A 
ATOM      5  N2  <0> d           1.168  -0.632  -0.013  0.00  0.00    -0.230 NA
ATOM      6  C4  <0> d           0.002  -0.004   0.002  0.00  0.00     0.129 A 
ATOM      7 Cl1  <0> d          -1.482  -0.904   0.012  0.00  0.00    -0.062 Cl
ATOM      8  H1  <0> d          -0.952   1.924   0.026  0.00  0.00     0.091 H 
ATOM      9  H2  <0> d           3.234  -0.494  -0.032  0.00  0.00     0.146 H 
ENDROOT
BRANCH   2  10
ATOM     10  C5  <0> d           1.226   3.565   0.009  0.00  0.00    -0.012 A 
ATOM     11  C7  <0> d           1.136   4.267   1.365  0.00  0.00    -0.056 A 
ATOM     12  C6  <0> d          -0.056   4.298   0.407  0.00  0.00    -0.056 A 
ATOM     13  H6  <0> d           1.053   3.639   2.253  0.00  0.00     0.034 H 
ATOM     14  H7  <0> d           1.703   5.189   1.493  0.00  0.00     0.034 H 
ATOM     15  H4  <0> d          -0.274   5.241  -0.095  0.00  0.00     0.034 H 
ATOM     16  H5  <0> d          -0.924   3.691   0.664  0.00  0.00     0.034 H 
ATOM     17  H3  <0> d           1.853   4.025  -0.755  0.00  0.00     0.049 H 
ENDBRANCH   2  10
TORSDOF 1
