REMARK  6 active torsions:
REMARK  status: ('A' for Active; 'I' for Inactive)
REMARK    1  A    between atoms: C1_1  and  C2_2 
REMARK    2  A    between atoms: C2_2  and  C3_3 
REMARK    3  A    between atoms: C3_3  and  C4_5 
REMARK    4  A    between atoms: C3_3  and  C5_6 
REMARK    5  A    between atoms: C5_6  and  C6_8 
REMARK    6  A    between atoms: C5_6  and  O2_10 
ROOT
ATOM      1  C3  <0> d          -0.729   1.579   1.267  0.00  0.00    -0.023 C 
ATOM      2  H1  <0> d          -1.776   1.277   1.232  0.00  0.00     0.044 H 
ENDROOT
BRANCH   1   3
ATOM      3  C2  <0> d          -0.013   1.086   0.008  0.00  0.00    -0.063 C 
ATOM      4  H6  <0> d           0.002  -0.004   0.002  0.00  0.00     0.033 H 
ATOM      5  H7  <0> d           1.010   1.463   0.000  0.00  0.00     0.033 H 
BRANCH   3   6
ATOM      6  C1  <0> d          -0.753   1.593  -1.232  0.00  0.00    -0.076 C 
ATOM      7  H3  <0> d          -0.767   2.683  -1.226  0.00  0.00     0.027 H 
ATOM      8  H4  <0> d          -0.242   1.241  -2.128  0.00  0.00     0.027 H 
ATOM      9  H5  <0> d          -1.775   1.215  -1.224  0.00  0.00     0.027 H 
ENDBRANCH   3   6
ENDBRANCH   1   3
BRANCH   1  10
ATOM     10  C4  <0> d          -0.641   3.105   1.339  0.00  0.00    -0.070 C 
ATOM     11  H8  <0> d          -1.115   3.538   0.458  0.00  0.00     0.028 H 
ATOM     12  H9  <0> d          -1.151   3.457   2.235  0.00  0.00     0.028 H 
ATOM     13  H10 <0> d           0.406   3.407   1.374  0.00  0.00     0.028 H 
ENDBRANCH   1  10
BRANCH   1  14
ATOM     14  C5  <0> d          -0.064   0.971   2.503  0.00  0.00     0.122 C 
ATOM     15  H2  <0> d           0.983   1.274   2.539  0.00  0.00     0.100 H 
BRANCH  14  16
ATOM     16  C6  <0> d          -0.769   1.457   3.743  0.00  0.00     0.203 C 
ATOM     17  O1  <0> d          -1.366   0.675   4.445  0.00  0.00    -0.646 OA
ATOM     18  O3  <0> d          -0.735   2.759   4.068  0.00  0.00    -0.646 OA
ENDBRANCH  14  16
BRANCH  14  19
ATOM     19  O2  <0> d          -0.146  -0.454   2.436  0.00  0.00    -0.384 OA
ATOM     20  H11 <0> d          -1.050  -0.794   2.402  0.00  0.00     0.210 HD
ENDBRANCH  14  19
ENDBRANCH   1  14
TORSDOF 6
