REMARK  4 active torsions:
REMARK  status: ('A' for Active; 'I' for Inactive)
REMARK    1  A    between atoms: C1_1  and  C2_2 
REMARK    2  A    between atoms: C4_4  and  N1_10 
REMARK    3  A    between atoms: C7_7  and  O1_8 
REMARK    4  A    between atoms: O1_8  and  C8_9 
ROOT
ATOM      1  C2  <0> d          -3.631   1.614   0.028  0.00  0.00    -0.026 A 
ATOM      2  C3  <0> d          -2.425   0.939   0.019  0.00  0.00    -0.049 A 
ATOM      3  C4  <0> d          -1.232   1.649   0.017  0.00  0.00     0.026 A 
ATOM      4  C5  <0> d          -1.252   3.038   0.030  0.00  0.00    -0.055 A 
ATOM      5  C6  <0> d          -2.457   3.711   0.033  0.00  0.00    -0.048 A 
ATOM      6  C7  <0> d          -3.649   3.001   0.036  0.00  0.00     0.074 A 
ATOM      7  H4  <0> d          -2.411  -0.141   0.013  0.00  0.00     0.087 H 
ATOM      8  H5  <0> d          -0.324   3.591   0.034  0.00  0.00     0.087 H 
ATOM      9  H6  <0> d          -2.472   4.791   0.039  0.00  0.00     0.087 H 
ENDROOT
BRANCH   6  10
ATOM     10  O1  <0> d          -4.836   3.665   0.045  0.00  0.00    -0.355 OA
BRANCH  10  11
ATOM     11  C8  <0> d          -4.780   5.093   0.052  0.00  0.00     0.010 C 
ATOM     12  H7  <0> d          -4.257   5.441  -0.838  0.00  0.00     0.066 H 
ATOM     13  H8  <0> d          -5.793   5.495   0.059  0.00  0.00     0.066 H 
ATOM     14  H9  <0> d          -4.249   5.431   0.942  0.00  0.00     0.066 H 
ENDBRANCH  10  11
ENDBRANCH   6  10
BRANCH   1  15
ATOM     15  C1  <0> d          -4.926   0.844   0.029  0.00  0.00    -0.049 C 
ATOM     16  H1  <0> d          -5.233   0.652   1.057  0.00  0.00     0.033 H 
ATOM     17  H2  <0> d          -5.695   1.426  -0.478  0.00  0.00     0.033 H 
ATOM     18  H3  <0> d          -4.785  -0.104  -0.490  0.00  0.00     0.033 H 
ENDBRANCH   1  15
BRANCH   3  19
ATOM     19  N1  <0> d          -0.011   0.966   0.007  0.00  0.00    -0.399 N 
ATOM     20  H10 <0> d           0.002  -0.004   0.002  0.00  0.00     0.156 HD
ATOM     21  H11 <0> d           0.822   1.462   0.002  0.00  0.00     0.156 HD
ENDBRANCH   3  19
TORSDOF 4
