REMARK  1 active torsions:
REMARK  status: ('A' for Active; 'I' for Inactive)
REMARK    1  A    between atoms: C2_2  and  N3_7 
ROOT
ATOM      1  C1  <0> d          -0.018   1.512   0.010  0.00  0.00     0.067 A 
ATOM      2  C2  <0> d           1.448   1.889  -0.002  0.00  0.00     0.127 A 
ATOM      3  N1  <0> d           2.121   0.788  -0.014  0.00  0.00    -0.159 NA
ATOM      4  N2  <0> d           1.309  -0.342  -0.012  0.00  0.00    -0.245 N 
ATOM      5  C3  <0> d           0.002  -0.004   0.002  0.00  0.00     0.244 A 
ATOM      6  O1  <0> d          -0.952  -0.754   0.007  0.00  0.00    -0.271 OA
ATOM      7  H1  <0> d          -0.503   1.884   0.913  0.00  0.00     0.059 H 
ATOM      8  H2  <0> d          -0.520   1.893  -0.879  0.00  0.00     0.059 H 
ATOM      9  H3  <0> d           1.639  -1.254  -0.020  0.00  0.00     0.192 HD
ENDROOT
BRANCH   2  10
ATOM     10  N3  <0> d           1.967   3.170  -0.000  0.00  0.00    -0.386 N 
ATOM     11  H4  <0> d           1.371   3.935   0.009  0.00  0.00     0.157 HD
ATOM     12  H5  <0> d           2.928   3.304  -0.009  0.00  0.00     0.157 HD
ENDBRANCH   2  10
TORSDOF 1
