REMARK  1 active torsions:
REMARK  status: ('A' for Active; 'I' for Inactive)
REMARK    1  A    between atoms: C1_1  and  C2_2 
ROOT
ATOM      1  C2  <0> d           3.826  -0.485  -0.037  0.00  0.00    -0.025 A 
ATOM      2  H1  <0> d           4.023  -1.085   0.851  0.00  0.00     0.047 H 
ATOM      3  C3  <0> d           4.718   0.763  -0.039  0.00  0.00     0.002 A 
ATOM      4  C4  <0> d           3.767   1.935  -0.024  0.00  0.00     0.160 A 
ATOM      5  O1  <0> d           4.080   3.106  -0.021  0.00  0.00    -0.292 OA
ATOM      6  C5  <0> d           2.392   1.408  -0.013  0.00  0.00     0.016 A 
ATOM      7  C6  <0> d           2.400   0.013  -0.021  0.00  0.00    -0.040 A 
ATOM      8  C7  <0> d           1.207  -0.683  -0.013  0.00  0.00    -0.076 A 
ATOM      9  C8  <0> d           0.002  -0.004   0.002  0.00  0.00    -0.082 A 
ATOM     10  C9  <0> d          -0.017   1.379   0.010  0.00  0.00    -0.082 A 
ATOM     11  C10 <0> d           1.165   2.088   0.002  0.00  0.00    -0.069 A 
ATOM     12  H5  <0> d           5.309   0.752   0.767  0.00  0.00     0.045 H 
ATOM     13  H6  <0> d           5.332   0.787  -0.940  0.00  0.00     0.045 H 
ATOM     14  H7  <0> d           1.215  -1.763  -0.019  0.00  0.00     0.084 H 
ATOM     15  H8  <0> d          -0.927  -0.555   0.008  0.00  0.00     0.083 H 
ATOM     16  H9  <0> d          -0.960   1.905   0.017  0.00  0.00     0.083 H 
ATOM     17  H10 <0> d           1.146   3.168   0.008  0.00  0.00     0.085 H 
ENDROOT
BRANCH   1  18
ATOM     18  C1  <0> d           4.078  -1.315  -1.298  0.00  0.00    -0.069 C 
ATOM     19  H2  <0> d           3.904  -0.698  -2.179  0.00  0.00     0.028 H 
ATOM     20  H3  <0> d           5.109  -1.669  -1.299  0.00  0.00     0.028 H 
ATOM     21  H4  <0> d           3.401  -2.169  -1.312  0.00  0.00     0.028 H 
ENDBRANCH   1  18
TORSDOF 1
