REMARK  4 active torsions:
REMARK  status: ('A' for Active; 'I' for Inactive)
REMARK    1  A    between atoms: C1_1  and  O1_2 
REMARK    2  A    between atoms: O1_2  and  C2_3 
REMARK    3  A    between atoms: C5_6  and  C7_9 
REMARK    4  A    between atoms: C7_9  and  O2_10 
ROOT
ATOM      1  C2  <0> d           0.606  -0.607  -1.056  0.00  0.00     0.085 A 
ATOM      2  C3  <0> d           0.661  -1.995  -1.140  0.00  0.00    -0.047 A 
ATOM      3  C4  <0> d           1.287  -2.564  -2.237  0.00  0.00    -0.054 A 
ATOM      4  C5  <0> d           1.832  -1.741  -3.205  0.00  0.00     0.057 A 
ATOM      5  N1  <0> d           1.762  -0.429  -3.095  0.00  0.00    -0.261 NA
ATOM      6  C6  <0> d           1.171   0.152  -2.070  0.00  0.00     0.035 A 
ATOM      7  H4  <0> d           0.227  -2.614  -0.368  0.00  0.00     0.087 H 
ATOM      8  H5  <0> d           1.349  -3.638  -2.335  0.00  0.00     0.086 H 
ATOM      9  H6  <0> d           1.129   1.230  -2.017  0.00  0.00     0.119 H 
ENDROOT
BRANCH   1  10
ATOM     10  O1  <0> d           0.002  -0.004   0.002  0.00  0.00    -0.355 OA
BRANCH  10  11
ATOM     11  C1  <0> d          -0.017   1.425   0.010  0.00  0.00     0.010 C 
ATOM     12  H1  <0> d           1.005   1.802   0.002  0.00  0.00     0.066 H 
ATOM     13  H2  <0> d          -0.544   1.786  -0.873  0.00  0.00     0.066 H 
ATOM     14  H3  <0> d          -0.527   1.776   0.907  0.00  0.00     0.066 H 
ENDBRANCH  10  11
ENDBRANCH   1  10
BRANCH   4  15
ATOM     15  C7  <0> d           2.515  -2.352  -4.401  0.00  0.00     0.056 C 
ATOM     16  H7  <0> d           2.007  -2.034  -5.311  0.00  0.00     0.083 H 
ATOM     17  H8  <0> d           3.554  -2.025  -4.432  0.00  0.00     0.083 H 
BRANCH  15  18
ATOM     18  O2  <0> d           2.467  -3.776  -4.301  0.00  0.00    -0.395 OA
ATOM     19  H9  <0> d           2.889  -4.237  -5.040  0.00  0.00     0.209 HD
ENDBRANCH  15  18
ENDBRANCH   4  15
TORSDOF 4
