REMARK  2 active torsions:
REMARK  status: ('A' for Active; 'I' for Inactive)
REMARK    1  A    between atoms: C1_1  and  O1_2 
REMARK    2  A    between atoms: O1_2  and  C2_3 
ROOT
ATOM      1  C2  <0> d          -0.013   1.086   0.008  0.00  0.00     0.137 C 
ATOM      2  H1  <0> d          -0.108  -0.008   0.073  0.00  0.00     0.129 H 
ATOM      3  C3  <0> d           1.427   1.645  -0.003  0.00  0.00     0.030 C 
ATOM      4  H2  <0> d           1.519   2.526   0.650  0.00  0.00     0.052 H 
ATOM      5  C4  <0> d           2.404   0.522   0.402  0.00  0.00     0.026 C 
ATOM      6  C5  <0> d           3.423   0.512  -0.723  0.00  0.00     0.259 C 
ATOM      7  O2  <0> d           4.592   0.220  -0.630  0.00  0.00    -0.265 OA
ATOM      8  O3  <0> d           2.782   0.890  -1.842  0.00  0.00    -0.313 OA
ATOM      9  C6  <0> d           1.733   1.845  -1.516  0.00  0.00     0.077 C 
ATOM     10  H3  <0> d           2.087   2.841  -1.821  0.00  0.00     0.088 H 
ATOM     11  C7  <0> d           0.425   1.408  -2.213  0.00  0.00     0.048 C 
ATOM     12  O4  <0> d          -0.603   1.590  -1.213  0.00  0.00    -0.358 OA
ATOM     13  H7  <0> d           2.858   0.763   1.374  0.00  0.00     0.049 H 
ATOM     14  H8  <0> d           1.858  -0.430   0.478  0.00  0.00     0.049 H 
ATOM     15  H9  <0> d           0.252   2.039  -3.097  0.00  0.00     0.078 H 
ATOM     16  H10 <0> d           0.509   0.356  -2.525  0.00  0.00     0.078 H 
ENDROOT
BRANCH   1  17
ATOM     17  O1  <0> d          -0.728   1.568   1.147  0.00  0.00    -0.366 OA
BRANCH  17  18
ATOM     18  C1  <0> d          -2.004   0.955   1.335  0.00  0.00     0.007 C 
ATOM     19  H4  <0> d          -2.487   1.379   2.228  0.00  0.00     0.066 H 
ATOM     20  H5  <0> d          -1.874  -0.130   1.469  0.00  0.00     0.066 H 
ATOM     21  H6  <0> d          -2.635   1.142   0.453  0.00  0.00     0.066 H 
ENDBRANCH  17  18
ENDBRANCH   1  17
TORSDOF 2
