REMARK  1 active torsions:
REMARK  status: ('A' for Active; 'I' for Inactive)
REMARK    1  A    between atoms: C1_1  and  C2_2 
ROOT
ATOM      1  C2  <0> d          -1.248   3.133   0.031  0.00  0.00    -0.060 A 
ATOM      2  C3  <0> d          -1.220   1.749   0.017  0.00  0.00    -0.076 A 
ATOM      3  C4  <0> d          -0.013   1.076   0.008  0.00  0.00    -0.060 A 
ATOM      4  C5  <0> d           1.175   1.781   0.000  0.00  0.00     0.054 A 
ATOM      5  C6  <0> d           1.153   3.179   0.008  0.00  0.00     0.066 A 
ATOM      6  C7  <0> d          -0.071   3.851   0.023  0.00  0.00    -0.056 A 
ATOM      7  C8  <0> d           2.380   3.917   0.001  0.00  0.00     0.101 C 
ATOM      8  N1  <0> d           3.353   4.503  -0.005  0.00  0.00    -0.191 NA
ATOM      9 Cl1  <0> d           2.690   0.934  -0.019  0.00  0.00    -0.083 Cl
ATOM     10  H4  <0> d          -2.146   1.193   0.018  0.00  0.00     0.084 H 
ATOM     11  H5  <0> d           0.002  -0.004   0.002  0.00  0.00     0.086 H 
ATOM     12  H6  <0> d          -0.095   4.931   0.029  0.00  0.00     0.086 H 
ENDROOT
BRANCH   1  13
ATOM     13  C1  <0> d          -2.570   3.858   0.047  0.00  0.00    -0.051 C 
ATOM     14  H1  <0> d          -2.898   4.038  -0.976  0.00  0.00     0.033 H 
ATOM     15  H2  <0> d          -3.311   3.249   0.565  0.00  0.00     0.033 H 
ATOM     16  H3  <0> d          -2.456   4.810   0.565  0.00  0.00     0.033 H 
ENDBRANCH   1  13
TORSDOF 1
