REMARK  3 active torsions:
REMARK  status: ('A' for Active; 'I' for Inactive)
REMARK    1  A    between atoms: C1_1  and  C2_2 
REMARK    2  A    between atoms: C2_2  and  N1_3 
REMARK    3  A    between atoms: C3_4  and  C6_9 
ROOT
ATOM      1  N1  <0> d          -0.698   1.558   1.213  0.00  0.00    -0.325 N 
ATOM      2  C3  <0> d          -1.704   0.911   1.884  0.00  0.00     0.028 A 
ATOM      3  C4  <0> d          -2.041   1.692   2.927  0.00  0.00     0.027 A 
ATOM      4  N2  <0> d          -1.265   2.786   2.897  0.00  0.00    -0.230 NA
ATOM      5  C5  <0> d          -0.454   2.710   1.875  0.00  0.00     0.203 A 
ATOM      6 Cl1  <0> d           0.737   3.896   1.439  0.00  0.00    -0.043 Cl
ATOM      7  H6  <0> d          -2.804   1.475   3.661  0.00  0.00     0.117 H 
ENDROOT
BRANCH   1   8
ATOM      8  C2  <0> d          -0.013   1.086   0.008  0.00  0.00    -0.001 C 
ATOM      9  H4  <0> d           0.002  -0.014   0.002  0.00  0.00     0.064 H 
ATOM     10  H5  <0> d           1.019   1.466   0.000  0.00  0.00     0.064 H 
BRANCH   8  11
ATOM     11  C1  <0> d          -0.753   1.593  -1.232  0.00  0.00    -0.061 C 
ATOM     12  H1  <0> d          -0.238   1.238  -2.136  0.00  0.00     0.029 H 
ATOM     13  H2  <0> d          -0.767   2.693  -1.225  0.00  0.00     0.029 H 
ATOM     14  H3  <0> d          -1.785   1.212  -1.224  0.00  0.00     0.029 H 
ENDBRANCH   8  11
ENDBRANCH   1   8
BRANCH   2  15
ATOM     15  C6  <0> d          -2.313  -0.419   1.522  0.00  0.00    -0.036 C 
ATOM     16  H7  <0> d          -3.097  -0.672   2.251  0.00  0.00     0.035 H 
ATOM     17  H8  <0> d          -1.534  -1.195   1.537  0.00  0.00     0.035 H 
ATOM     18  H9  <0> d          -2.753  -0.359   0.516  0.00  0.00     0.035 H 
ENDBRANCH   2  15
TORSDOF 3
