REMARK  2 active torsions:
REMARK  status: ('A' for Active; 'I' for Inactive)
REMARK    1  A    between atoms: C1_1  and  C2_2 
REMARK    2  A    between atoms: C7_8  and  N2_11 
ROOT
ATOM      1  C2  <0> d           2.212   1.314  -1.126  0.00  0.00    -0.053 C 
ATOM      2  H1  <0> d           1.639   1.373  -2.051  0.00  0.00     0.040 H 
ATOM      3  C3  <0> d           1.434   1.999  -0.001  0.00  0.00    -0.057 C 
ATOM      4  C4  <0> d          -0.018   1.502   0.010  0.00  0.00    -0.022 C 
ATOM      5  C5  <0> d           0.002  -0.004   0.002  0.00  0.00     0.072 A 
ATOM      6  C6  <0> d           1.141  -0.759  -0.354  0.00  0.00     0.022 A 
ATOM      7  C7  <0> d           0.748  -2.046  -0.229  0.00  0.00     0.174 A 
ATOM      8  O1  <0> d          -0.538  -1.999   0.172  0.00  0.00    -0.195 OA
ATOM      9  N1  <0> d          -0.928  -0.855   0.292  0.00  0.00    -0.130 NA
ATOM     10  C8  <0> d           2.453  -0.160  -0.769  0.00  0.00    -0.032 C 
ATOM     11  H5  <0> d           1.446   3.077  -0.157  0.00  0.00     0.034 H 
ATOM     12  H6  <0> d           1.902   1.768   0.956  0.00  0.00     0.034 H 
ATOM     13  H7  <0> d          -0.539   1.868  -0.874  0.00  0.00     0.042 H 
ATOM     14  H8  <0> d          -0.522   1.859   0.909  0.00  0.00     0.042 H 
ATOM     15  H11 <0> d           3.165  -0.228   0.053  0.00  0.00     0.041 H 
ATOM     16  H12 <0> d           2.842  -0.691  -1.638  0.00  0.00     0.041 H 
ENDROOT
BRANCH   1  17
ATOM     17  C1  <0> d           3.557   2.018  -1.315  0.00  0.00    -0.073 C 
ATOM     18  H2  <0> d           4.111   1.534  -2.121  0.00  0.00     0.028 H 
ATOM     19  H3  <0> d           3.387   3.064  -1.569  0.00  0.00     0.028 H 
ATOM     20  H4  <0> d           4.133   1.956  -0.392  0.00  0.00     0.028 H 
ENDBRANCH   1  17
BRANCH   7  21
ATOM     21  N2  <0> d           1.508  -3.176  -0.463  0.00  0.00    -0.378 N 
ATOM     22  H9  <0> d           2.430  -3.090  -0.751  0.00  0.00     0.158 HD
ATOM     23  H10 <0> d           1.119  -4.056  -0.340  0.00  0.00     0.158 HD
ENDBRANCH   7  21
TORSDOF 2
