REMARK  1 active torsions:
REMARK  status: ('A' for Active; 'I' for Inactive)
REMARK    1  A    between atoms: C5_5  and  O1_7 
ROOT
ATOM      1  C1  <0> d           0.042  -2.081   1.191  0.00  0.00    -0.080 A 
ATOM      2  C2  <0> d           0.036  -2.764  -0.009  0.00  0.00    -0.075 A 
ATOM      3  C3  <0> d           0.013  -2.076  -1.213  0.00  0.00    -0.034 A 
ATOM      4  C4  <0> d          -0.006  -0.694  -1.216  0.00  0.00     0.048 A 
ATOM      5  C5  <0> d           0.002  -0.004   0.002  0.00  0.00     0.087 A 
ATOM      6  C6  <0> d           0.023  -0.698   1.197  0.00  0.00    -0.049 A 
ATOM      7  N1  <0> d          -0.018   0.063  -2.390  0.00  0.00    -0.290 NA
ATOM      8  C7  <0> d          -0.487  -0.691  -3.555  0.00  0.00    -0.018 C 
ATOM      9  C8  <0> d           0.340  -1.977  -3.672  0.00  0.00    -0.050 C 
ATOM     10  C9  <0> d          -0.007  -2.879  -2.489  0.00  0.00    -0.038 C 
ATOM     11  H1  <0> d           0.061  -2.626   2.123  0.00  0.00     0.083 H 
ATOM     12  H2  <0> d           0.051  -3.844  -0.009  0.00  0.00     0.084 H 
ATOM     13  H3  <0> d           0.025  -0.161   2.135  0.00  0.00     0.087 H 
ATOM     14  H5  <0> d           0.888   0.472  -2.565  0.00  0.00     0.127 HD
ATOM     15  H6  <0> d          -1.539  -0.943  -3.427  0.00  0.00     0.056 H 
ATOM     16  H7  <0> d          -0.358  -0.090  -4.455  0.00  0.00     0.056 H 
ATOM     17  H8  <0> d           0.102  -2.484  -4.607  0.00  0.00     0.035 H 
ATOM     18  H9  <0> d           1.403  -1.736  -3.644  0.00  0.00     0.035 H 
ATOM     19  H10 <0> d           0.715  -3.692  -2.417  0.00  0.00     0.040 H 
ATOM     20  H11 <0> d          -1.004  -3.292  -2.643  0.00  0.00     0.040 H 
ENDROOT
BRANCH   5  21
ATOM     21  O1  <0> d          -0.016   1.356   0.009  0.00  0.00    -0.359 OA
ATOM     22  H4  <0> d           0.862   1.761   0.003  0.00  0.00     0.217 HD
ENDBRANCH   5  21
TORSDOF 1
