REMARK  3 active torsions:
REMARK  status: ('A' for Active; 'I' for Inactive)
REMARK    1  A    between atoms: C1_1  and  O1_2 
REMARK    2  A    between atoms: O1_2  and  C2_3 
REMARK    3  A    between atoms: C6_8  and  O2_10 
ROOT
ATOM      1  C2  <0> d           0.002  -0.004   0.002  0.00  0.00     0.062 C 
ATOM      2  H1  <0> d           0.911  -0.367   0.482  0.00  0.00     0.087 H 
ATOM      3  C3  <0> d          -0.076  -0.526  -1.448  0.00  0.00    -0.038 C 
ATOM      4  C4  <0> d          -0.960  -1.794  -1.348  0.00  0.00    -0.060 C 
ATOM      5  C5  <0> d          -2.023  -1.387  -0.297  0.00  0.00    -0.039 C 
ATOM      6  C6  <0> d          -1.236  -0.552   0.734  0.00  0.00     0.060 C 
ATOM      7  H2  <0> d          -1.851   0.272   1.095  0.00  0.00     0.086 H 
ATOM      8  H6  <0> d          -0.544   0.216  -2.095  0.00  0.00     0.036 H 
ATOM      9  H7  <0> d           0.918  -0.781  -1.815  0.00  0.00     0.036 H 
ATOM     10  H8  <0> d          -0.377  -2.645  -0.998  0.00  0.00     0.033 H 
ATOM     11  H9  <0> d          -1.430  -2.014  -2.307  0.00  0.00     0.033 H 
ATOM     12  H10 <0> d          -2.450  -2.272   0.175  0.00  0.00     0.036 H 
ATOM     13  H11 <0> d          -2.807  -0.786  -0.757  0.00  0.00     0.036 H 
ENDROOT
BRANCH   1  14
ATOM     14  O1  <0> d          -0.017   1.425   0.010  0.00  0.00    -0.388 OA
BRANCH  14  15
ATOM     15  C1  <0> d           1.280   2.024   0.001  0.00  0.00     0.005 C 
ATOM     16  H3  <0> d           1.179   3.109   0.007  0.00  0.00     0.066 H 
ATOM     17  H4  <0> d           1.834   1.705   0.884  0.00  0.00     0.066 H 
ATOM     18  H5  <0> d           1.817   1.714  -0.896  0.00  0.00     0.066 H 
ENDBRANCH  14  15
ENDBRANCH   1  14
BRANCH   6  19
ATOM     19  O2  <0> d          -0.832  -1.377   1.828  0.00  0.00    -0.393 OA
ATOM     20  H12 <0> d          -1.568  -1.753   2.330  0.00  0.00     0.210 HD
ENDBRANCH   6  19
TORSDOF 3
