REMARK  0 active torsions:
REMARK  status: ('A' for Active; 'I' for Inactive)
ROOT
ATOM      1  C1  <0> d          -2.977   3.826   0.049  0.00  0.00    -0.045 A 
ATOM      2  C2  <0> d          -1.645   4.121   0.038  0.00  0.00    -0.067 A 
ATOM      3  C3  <0> d          -0.704   3.086   0.024  0.00  0.00     0.011 A 
ATOM      4  C4  <0> d           0.755   3.044   0.010  0.00  0.00     0.034 A 
ATOM      5  N1  <0> d           1.117   1.793   0.001  0.00  0.00    -0.186 NA
ATOM      6  N2  <0> d          -0.011   0.966   0.007  0.00  0.00    -0.278 N 
ATOM      7  H1  <0> d           0.003  -0.034   0.006  0.00  0.00     0.189 HD
ATOM      8  C5  <0> d          -1.138   1.746   0.016  0.00  0.00     0.064 A 
ATOM      9  C6  <0> d          -2.502   1.468   0.033  0.00  0.00    -0.018 A 
ATOM     10  C7  <0> d          -3.411   2.504   0.046  0.00  0.00     0.118 A 
ATOM     11  F1  <0> d          -4.734   2.234   0.058  0.00  0.00    -0.206 F 
ATOM     12  H2  <0> d          -3.702   4.627   0.059  0.00  0.00     0.088 H 
ATOM     13  H3  <0> d          -1.318   5.150   0.039  0.00  0.00     0.085 H 
ATOM     14  H4  <0> d           1.416   3.897   0.008  0.00  0.00     0.118 H 
ATOM     15  H5  <0> d          -2.847   0.444   0.031  0.00  0.00     0.091 H 
ENDROOT
TORSDOF 0
