REMARK  5 active torsions:
REMARK  status: ('A' for Active; 'I' for Inactive)
REMARK    1  A    between atoms: C1_1  and  C2_2 
REMARK    2  A    between atoms: C2_2  and  O1_3 
REMARK    3  A    between atoms: O1_3  and  C3_4 
REMARK    4  A    between atoms: C3_4  and  C4_5 
REMARK    5  A    between atoms: C6_7  and  C7_10 
ROOT
ATOM      1  C3  <0> d          -2.540   1.480   0.020  0.00  0.00     0.066 C 
ATOM      2  H6  <0> d          -3.136   2.238  -0.487  0.00  0.00     0.084 H 
ATOM      3  H7  <0> d          -2.646   0.527  -0.498  0.00  0.00     0.084 H 
ENDROOT
BRANCH   1   4
ATOM      4  O1  <0> d          -2.992   1.341   1.369  0.00  0.00    -0.385 OA
BRANCH   4   5
ATOM      5  C2  <0> d          -4.361   0.948   1.485  0.00  0.00     0.017 C 
ATOM      6  H4  <0> d          -4.995   1.696   1.008  0.00  0.00     0.073 H 
ATOM      7  H5  <0> d          -4.505  -0.015   0.997  0.00  0.00     0.073 H 
BRANCH   5   8
ATOM      8  C1  <0> d          -4.734   0.832   2.964  0.00  0.00    -0.056 C 
ATOM      9  H1  <0> d          -4.591   1.796   3.452  0.00  0.00     0.030 H 
ATOM     10  H2  <0> d          -5.779   0.532   3.053  0.00  0.00     0.030 H 
ATOM     11  H3  <0> d          -4.100   0.085   3.441  0.00  0.00     0.030 H 
ENDBRANCH   5   8
ENDBRANCH   4   5
ENDBRANCH   1   4
BRANCH   1  12
ATOM     12  C4  <0> d          -1.091   1.895   0.017  0.00  0.00     0.104 A 
ATOM     13  O2  <0> d          -0.615   3.148   0.024  0.00  0.00    -0.215 OA
ATOM     14  N1  <0> d           0.594   3.165   0.013  0.00  0.00    -0.133 NA
ATOM     15  C6  <0> d           1.089   1.961   0.002  0.00  0.00     0.060 A 
ATOM     16  C5  <0> d          -0.013   1.076   0.008  0.00  0.00    -0.025 A 
ATOM     17  H8  <0> d           0.002  -0.004   0.002  0.00  0.00     0.090 H 
BRANCH  15  18
ATOM     18  C7  <0> d           2.549   1.586  -0.013  0.00  0.00    -0.033 C 
ATOM     19  H9  <0> d           2.892   1.501  -1.044  0.00  0.00     0.035 H 
ATOM     20  H10 <0> d           3.127   2.356   0.500  0.00  0.00     0.035 H 
ATOM     21  H11 <0> d           2.684   0.632   0.496  0.00  0.00     0.035 H 
ENDBRANCH  15  18
ENDBRANCH   1  12
TORSDOF 5
