REMARK  4 active torsions:
REMARK  status: ('A' for Active; 'I' for Inactive)
REMARK    1  A    between atoms: C2_2  and  C8_10 
REMARK    2  A    between atoms: C6_6  and  C7_7 
REMARK    3  A    between atoms: C7_7  and  O1_8 
REMARK    4  A    between atoms: C8_10  and  O2_11 
ROOT
ATOM      1  C1  <0> d           1.095   3.744   1.209  0.00  0.00    -0.067 A 
ATOM      2  C2  <0> d           0.967   5.120   1.219  0.00  0.00    -0.031 A 
ATOM      3  C3  <0> d           0.892   5.817   0.028  0.00  0.00    -0.037 A 
ATOM      4  C4  <0> d           0.944   5.135  -1.176  0.00  0.00     0.117 A 
ATOM      5  C5  <0> d           1.077   3.757  -1.185  0.00  0.00    -0.037 A 
ATOM      6  C6  <0> d           1.147   3.062   0.008  0.00  0.00    -0.031 A 
ATOM      7  F1  <0> d           0.871   5.815  -2.341  0.00  0.00    -0.206 F 
ATOM      8  H1  <0> d           1.153   3.200   2.141  0.00  0.00     0.085 H 
ATOM      9  H2  <0> d           0.793   6.892   0.036  0.00  0.00     0.089 H 
ATOM     10  H3  <0> d           1.123   3.225  -2.124  0.00  0.00     0.089 H 
ENDROOT
BRANCH   2  11
ATOM     11  C8  <0> d           0.911   5.862   2.530  0.00  0.00     0.041 C 
ATOM     12  H7  <0> d           0.310   6.764   2.412  0.00  0.00     0.081 H 
ATOM     13  H8  <0> d           0.461   5.223   3.290  0.00  0.00     0.081 H 
BRANCH  11  14
ATOM     14  O2  <0> d           2.234   6.221   2.932  0.00  0.00    -0.396 OA
ATOM     15  H9  <0> d           2.274   6.702   3.770  0.00  0.00     0.209 HD
ENDBRANCH  11  14
ENDBRANCH   2  11
BRANCH   6  16
ATOM     16  C7  <0> d           1.286   1.562  -0.002  0.00  0.00     0.041 C 
ATOM     17  H4  <0> d           1.840   1.243   0.881  0.00  0.00     0.081 H 
ATOM     18  H5  <0> d           1.823   1.252  -0.899  0.00  0.00     0.081 H 
BRANCH  16  19
ATOM     19  O1  <0> d          -0.011   0.963   0.007  0.00  0.00    -0.396 OA
ATOM     20  H6  <0> d           0.002  -0.004   0.002  0.00  0.00     0.209 HD
ENDBRANCH  16  19
ENDBRANCH   6  16
TORSDOF 4
