REMARK  4 active torsions:
REMARK  status: ('A' for Active; 'I' for Inactive)
REMARK    1  A    between atoms: C1_1  and  C2_2 
REMARK    2  A    between atoms: C2_2  and  C3_3 
REMARK    3  A    between atoms: C3_3  and  N1_4 
REMARK    4  A    between atoms: C5_6  and  C7_9 
ROOT
ATOM      1  N1  <0> d          -1.413  -1.998   0.005  0.00  0.00    -0.280 N 
ATOM      2  C4  <0> d          -2.023  -2.795   0.895  0.00  0.00     0.016 A 
ATOM      3  C5  <0> d          -1.758  -4.102   0.531  0.00  0.00     0.077 A 
ATOM      4  C6  <0> d          -0.952  -4.054  -0.631  0.00  0.00     0.040 A 
ATOM      5  N2  <0> d          -0.760  -2.801  -0.937  0.00  0.00    -0.184 NA
ATOM      6  H8  <0> d          -2.613  -2.474   1.742  0.00  0.00     0.115 H 
ATOM      7  H9  <0> d          -0.568  -4.906  -1.173  0.00  0.00     0.119 H 
ENDROOT
BRANCH   1   8
ATOM      8  C3  <0> d          -1.433  -0.534   0.013  0.00  0.00     0.016 C 
ATOM      9  H6  <0> d          -1.944  -0.182   0.910  0.00  0.00     0.067 H 
ATOM     10  H7  <0> d          -1.960  -0.173  -0.870  0.00  0.00     0.067 H 
BRANCH   8  11
ATOM     11  C2  <0> d           0.002  -0.004   0.002  0.00  0.00    -0.052 C 
ATOM     12  H4  <0> d           0.512  -0.356  -0.895  0.00  0.00     0.035 H 
ATOM     13  H5  <0> d           0.529  -0.365   0.885  0.00  0.00     0.035 H 
BRANCH  11  14
ATOM     14  C1  <0> d          -0.019   1.526   0.010  0.00  0.00    -0.075 C 
ATOM     15  H1  <0> d           1.004   1.903   0.003  0.00  0.00     0.027 H 
ATOM     16  H2  <0> d          -0.546   1.887  -0.873  0.00  0.00     0.027 H 
ATOM     17  H3  <0> d          -0.529   1.877   0.907  0.00  0.00     0.027 H 
ENDBRANCH  11  14
ENDBRANCH   8  11
ENDBRANCH   1   8
BRANCH   3  18
ATOM     18  C7  <0> d          -2.224  -5.313   1.221  0.00  0.00     0.212 C 
ATOM     19  O1  <0> d          -2.920  -5.217   2.223  0.00  0.00    -0.644 OA
ATOM     20  O2  <0> d          -1.917  -6.418   0.794  0.00  0.00    -0.644 OA
ENDBRANCH   3  18
TORSDOF 4
