REMARK  1 active torsions:
REMARK  status: ('A' for Active; 'I' for Inactive)
REMARK    1  A    between atoms: C6_6  and  O1_7 
ROOT
ATOM      1  C1  <0> d           3.453   2.392  -0.019  0.00  0.00    -0.049 A 
ATOM      2  C2  <0> d           2.472   1.423  -0.014  0.00  0.00    -0.054 A 
ATOM      3  C3  <0> d           1.124   1.783   0.001  0.00  0.00     0.034 A 
ATOM      4  C4  <0> d           0.785   3.127   0.011  0.00  0.00    -0.028 A 
ATOM      5  C5  <0> d           1.767   4.098   0.006  0.00  0.00    -0.043 A 
ATOM      6  C6  <0> d           3.106   3.735  -0.009  0.00  0.00     0.066 A 
ATOM      7  C7  <0> d          -0.723   3.243   0.025  0.00  0.00    -0.024 A 
ATOM      8  C8  <0> d          -1.223   1.789   0.017  0.00  0.00    -0.004 A 
ATOM      9  N1  <0> d          -0.011   0.966   0.007  0.00  0.00    -0.389 N 
ATOM     10  H1  <0> d           4.494   2.105  -0.031  0.00  0.00     0.087 H 
ATOM     11  H2  <0> d           2.749   0.379  -0.022  0.00  0.00     0.087 H 
ATOM     12  H3  <0> d           1.493   5.143   0.014  0.00  0.00     0.088 H 
ATOM     13  H5  <0> d          -1.056   3.758   0.927  0.00  0.00     0.042 H 
ATOM     14  H6  <0> d          -1.072   3.767  -0.864  0.00  0.00     0.042 H 
ATOM     15  H7  <0> d          -1.818   1.597  -0.876  0.00  0.00     0.064 H 
ATOM     16  H8  <0> d          -1.810   1.588   0.913  0.00  0.00     0.064 H 
ATOM     17  H9  <0> d           0.002  -0.004   0.002  0.00  0.00     0.159 HD
ENDROOT
BRANCH   6  18
ATOM     18  O1  <0> d           4.073   4.690  -0.013  0.00  0.00    -0.361 OA
ATOM     19  H4  <0> d           4.362   4.962   0.869  0.00  0.00     0.217 HD
ENDBRANCH   6  18
TORSDOF 1
