REMARK  6 active torsions:
REMARK  status: ('A' for Active; 'I' for Inactive)
REMARK    1  A    between atoms: C1_1  and  C2_2 
REMARK    2  A    between atoms: C2_2  and  C3_4 
REMARK    3  A    between atoms: C2_2  and  O2_9 
REMARK    4  A    between atoms: C3_4  and  C4_5 
REMARK    5  A    between atoms: C4_5  and  C5_6 
REMARK    6  A    between atoms: C5_6  and  C6_7 
ROOT
ATOM      1  C3  <0> d          -0.755   3.526   1.278  0.00  0.00    -0.041 C 
ATOM      2  H5  <0> d           0.267   3.903   1.270  0.00  0.00     0.036 H 
ATOM      3  H6  <0> d          -1.282   3.887   0.395  0.00  0.00     0.036 H 
ENDROOT
BRANCH   1   4
ATOM      4  C2  <0> d          -1.471   4.019   2.536  0.00  0.00     0.032 C 
ATOM      5  H1  <0> d          -2.463   3.571   2.589  0.00  0.00     0.082 H 
BRANCH   4   6
ATOM      6  C1  <0> d          -1.602   5.543   2.485  0.00  0.00    -0.052 C 
ATOM      7  H2  <0> d          -0.610   5.991   2.432  0.00  0.00     0.030 H 
ATOM      8  H3  <0> d          -2.178   5.828   1.604  0.00  0.00     0.030 H 
ATOM      9  H4  <0> d          -2.113   5.894   3.381  0.00  0.00     0.030 H 
ENDBRANCH   4   6
BRANCH   4  10
ATOM     10  O2  <0> d          -0.717   3.645   3.691  0.00  0.00    -0.396 OA
ATOM     11  H11 <0> d          -1.113   3.926   4.527  0.00  0.00     0.210 HD
ENDBRANCH   4  10
ENDBRANCH   1   4
BRANCH   1  12
ATOM     12  C4  <0> d          -0.735   1.996   1.269  0.00  0.00    -0.054 C 
ATOM     13  H7  <0> d          -1.757   1.619   1.277  0.00  0.00     0.033 H 
ATOM     14  H8  <0> d          -0.207   1.635   2.152  0.00  0.00     0.033 H 
BRANCH  12  15
ATOM     15  C5  <0> d          -0.018   1.503   0.010  0.00  0.00     0.016 C 
ATOM     16  H9  <0> d           1.004   1.880   0.003  0.00  0.00     0.049 H 
ATOM     17  H10 <0> d          -0.545   1.864  -0.873  0.00  0.00     0.049 H 
BRANCH  15  18
ATOM     18  C6  <0> d           0.002  -0.004   0.002  0.00  0.00     0.172 C 
ATOM     19  O1  <0> d          -0.504  -0.620   0.910  0.00  0.00    -0.648 OA
ATOM     20  O3  <0> d           0.583  -0.662  -1.014  0.00  0.00    -0.648 OA
ENDBRANCH  15  18
ENDBRANCH  12  15
ENDBRANCH   1  12
TORSDOF 6
