REMARK  5 active torsions:
REMARK  status: ('A' for Active; 'I' for Inactive)
REMARK    1  A    between atoms: C1_1  and  C2_2 
REMARK    2  A    between atoms: C2_2  and  C3_3 
REMARK    3  A    between atoms: C3_3  and  C8_12 
REMARK    4  A    between atoms: C4_5  and  C7_11 
REMARK    5  A    between atoms: C5_7  and  C6_10 
ROOT
ATOM      1  C3  <0> d          -0.019   1.526   0.010  0.00  0.00     0.161 C 
ATOM      2  O1  <0> d          -0.700   2.006  -1.161  0.00  0.00    -0.348 OA
ATOM      3  C4  <0> d           0.010   3.211  -1.534  0.00  0.00     0.063 C 
ATOM      4  H1  <0> d          -0.328   4.063  -0.943  0.00  0.00     0.086 H 
ATOM      5  C5  <0> d           1.471   2.837  -1.183  0.00  0.00     0.063 C 
ATOM      6  H2  <0> d           1.929   2.264  -1.989  0.00  0.00     0.086 H 
ATOM      7  O2  <0> d           1.325   2.026   0.000  0.00  0.00    -0.348 OA
ENDROOT
BRANCH   1   8
ATOM      8  C2  <0> d          -0.743   2.023   1.263  0.00  0.00    -0.017 C 
ATOM      9  H6  <0> d          -0.168   1.750   2.148  0.00  0.00     0.040 H 
ATOM     10  H7  <0> d          -0.845   3.107   1.217  0.00  0.00     0.040 H 
BRANCH   8  11
ATOM     11  C1  <0> d          -2.130   1.382   1.339  0.00  0.00    -0.072 C 
ATOM     12  H3  <0> d          -2.705   1.656   0.454  0.00  0.00     0.027 H 
ATOM     13  H4  <0> d          -2.027   0.298   1.385  0.00  0.00     0.027 H 
ATOM     14  H5  <0> d          -2.646   1.736   2.231  0.00  0.00     0.027 H 
ENDBRANCH   8  11
ENDBRANCH   1   8
BRANCH   1  15
ATOM     15  C8  <0> d           0.002  -0.004   0.002  0.00  0.00    -0.025 C 
ATOM     16  H14 <0> d           0.518  -0.365   0.891  0.00  0.00     0.035 H 
ATOM     17  H15 <0> d          -1.021  -0.381  -0.003  0.00  0.00     0.035 H 
ATOM     18  H16 <0> d           0.523  -0.355  -0.888  0.00  0.00     0.035 H 
ENDBRANCH   1  15
BRANCH   5  19
ATOM     19  C6  <0> d           2.292   4.092  -0.879  0.00  0.00    -0.050 C 
ATOM     20  H8  <0> d           3.291   3.803  -0.551  0.00  0.00     0.031 H 
ATOM     21  H9  <0> d           2.369   4.703  -1.779  0.00  0.00     0.031 H 
ATOM     22  H10 <0> d           1.803   4.665  -0.091  0.00  0.00     0.031 H 
ENDBRANCH   5  19
BRANCH   3  23
ATOM     23  C7  <0> d          -0.139   3.493  -3.030  0.00  0.00    -0.050 C 
ATOM     24  H11 <0> d           0.141   2.605  -3.597  0.00  0.00     0.031 H 
ATOM     25  H12 <0> d          -1.175   3.753  -3.250  0.00  0.00     0.031 H 
ATOM     26  H13 <0> d           0.511   4.322  -3.310  0.00  0.00     0.031 H 
ENDBRANCH   3  23
TORSDOF 5
