REMARK  5 active torsions:
REMARK  status: ('A' for Active; 'I' for Inactive)
REMARK    1  A    between atoms: C1_1  and  C2_2 
REMARK    2  A    between atoms: C7_7  and  O1_8 
REMARK    3  A    between atoms: O1_8  and  C8_9 
REMARK    4  A    between atoms: C8_9  and  C9_10 
REMARK    5  A    between atoms: C8_9  and  C10_11 
ROOT
ATOM      1  C2  <0> d           1.154   2.066  -0.217  0.00  0.00    -0.029 A 
ATOM      2  C3  <0> d           1.122   3.431  -0.426  0.00  0.00    -0.075 A 
ATOM      3  C4  <0> d          -0.086   4.073  -0.624  0.00  0.00    -0.082 A 
ATOM      4  C5  <0> d          -1.266   3.350  -0.611  0.00  0.00    -0.080 A 
ATOM      5  C6  <0> d          -1.238   1.985  -0.407  0.00  0.00    -0.050 A 
ATOM      6  C7  <0> d          -0.027   1.339  -0.204  0.00  0.00     0.075 A 
ATOM      7  H4  <0> d           2.042   3.997  -0.437  0.00  0.00     0.084 H 
ATOM      8  H5  <0> d          -0.110   5.140  -0.788  0.00  0.00     0.083 H 
ATOM      9  H6  <0> d          -2.209   3.854  -0.766  0.00  0.00     0.083 H 
ATOM     10  H7  <0> d          -2.159   1.420  -0.401  0.00  0.00     0.087 H 
ENDROOT
BRANCH   6  11
ATOM     11  O1  <0> d           0.002  -0.004   0.002  0.00  0.00    -0.346 OA
BRANCH  11  12
ATOM     12  C8  <0> d          -1.257  -0.671   0.115  0.00  0.00     0.038 C 
ATOM     13  H8  <0> d          -1.969  -0.018   0.620  0.00  0.00     0.082 H 
BRANCH  12  14
ATOM     14  C9  <0> d          -1.780  -1.014  -1.281  0.00  0.00    -0.052 C 
ATOM     15  H9  <0> d          -1.067  -1.666  -1.786  0.00  0.00     0.030 H 
ATOM     16  H10 <0> d          -2.740  -1.522  -1.195  0.00  0.00     0.030 H 
ATOM     17  H11 <0> d          -1.905  -0.097  -1.858  0.00  0.00     0.030 H 
ENDBRANCH  12  14
BRANCH  12  18
ATOM     18  C10 <0> d          -1.082  -1.957   0.925  0.00  0.00    -0.052 C 
ATOM     19  H12 <0> d          -0.709  -1.713   1.919  0.00  0.00     0.030 H 
ATOM     20  H13 <0> d          -2.042  -2.466   1.011  0.00  0.00     0.030 H 
ATOM     21  H14 <0> d          -0.369  -2.610   0.420  0.00  0.00     0.030 H 
ENDBRANCH  12  18
ENDBRANCH  11  12
ENDBRANCH   6  11
BRANCH   1  22
ATOM     22  C1  <0> d           2.472   1.367  -0.003  0.00  0.00    -0.049 C 
ATOM     23  H1  <0> d           2.873   1.045  -0.964  0.00  0.00     0.033 H 
ATOM     24  H2  <0> d           3.174   2.052   0.473  0.00  0.00     0.033 H 
ATOM     25  H3  <0> d           2.322   0.497   0.638  0.00  0.00     0.033 H 
ENDBRANCH   1  22
TORSDOF 5
