REMARK  6 active torsions:
REMARK  status: ('A' for Active; 'I' for Inactive)
REMARK    1  A    between atoms: C1_1  and  C2_2 
REMARK    2  A    between atoms: C2_2  and  C3_3 
REMARK    3  A    between atoms: C3_3  and  N1_4 
REMARK       I    between atoms: N1_4  and  C4_5 
REMARK    4  A    between atoms: C4_5  and  O2_7 
REMARK    5  A    between atoms: O2_7  and  C5_8 
REMARK    6  A    between atoms: C5_8  and  C6_9 
ROOT
ATOM      1  N1  <0> d           0.002  -0.004   0.002  0.00  0.00    -0.337 N 
ATOM      2  C4  <0> d          -0.016   1.344   0.009  0.00  0.00     0.360 C 
ATOM      3  O1  <0> d           1.028   1.965   0.003  0.00  0.00    -0.239 OA
ATOM      4  H8  <0> d          -0.831  -0.500   0.007  0.00  0.00     0.164 HD
ENDROOT
BRANCH   1   5
ATOM      5  C3  <0> d           1.281  -0.719  -0.014  0.00  0.00    -0.003 C 
ATOM      6  H6  <0> d           1.840  -0.443  -0.908  0.00  0.00     0.064 H 
ATOM      7  H7  <0> d           1.857  -0.453   0.872  0.00  0.00     0.064 H 
BRANCH   5   8
ATOM      8  C2  <0> d           1.021  -2.227  -0.020  0.00  0.00    -0.053 C 
ATOM      9  H4  <0> d           0.462  -2.503   0.874  0.00  0.00     0.034 H 
ATOM     10  H5  <0> d           0.445  -2.493  -0.906  0.00  0.00     0.034 H 
BRANCH   8  11
ATOM     11  C1  <0> d           2.357  -2.974  -0.036  0.00  0.00    -0.075 C 
ATOM     12  H1  <0> d           2.916  -2.698  -0.930  0.00  0.00     0.027 H 
ATOM     13  H2  <0> d           2.933  -2.708   0.850  0.00  0.00     0.027 H 
ATOM     14  H3  <0> d           2.172  -4.048  -0.040  0.00  0.00     0.027 H 
ENDBRANCH   8  11
ENDBRANCH   5   8
ENDBRANCH   1   5
BRANCH   2  15
ATOM     15  O2  <0> d          -1.191   2.001   0.019  0.00  0.00    -0.304 OA
BRANCH  15  16
ATOM     16  C5  <0> d          -1.135   3.452   0.026  0.00  0.00     0.027 C 
ATOM     17  H9  <0> d          -0.603   3.790   0.915  0.00  0.00     0.074 H 
ATOM     18  H10 <0> d          -0.612   3.800  -0.864  0.00  0.00     0.074 H 
BRANCH  16  19
ATOM     19  C6  <0> d          -2.557   4.017   0.036  0.00  0.00    -0.056 C 
ATOM     20  H11 <0> d          -3.088   3.679  -0.853  0.00  0.00     0.030 H 
ATOM     21  H12 <0> d          -3.080   3.669   0.927  0.00  0.00     0.030 H 
ATOM     22  H13 <0> d          -2.514   5.106   0.042  0.00  0.00     0.030 H 
ENDBRANCH  16  19
ENDBRANCH  15  16
ENDBRANCH   2  15
TORSDOF 6
