REMARK  3 active torsions:
REMARK  status: ('A' for Active; 'I' for Inactive)
REMARK    1  A    between atoms: C1_1  and  C2_2 
REMARK    2  A    between atoms: C3_3  and  C4_4 
REMARK    3  A    between atoms: C3_3  and  C5_5 
ROOT
ATOM      1  C5  <0> d           0.615  -2.142   0.979  0.00  0.00    -0.031 A 
ATOM      2  C6  <0> d          -0.577  -2.860   1.086  0.00  0.00    -0.073 A 
ATOM      3  C7  <0> d          -0.552  -4.239   1.078  0.00  0.00    -0.082 A 
ATOM      4  C8  <0> d           0.652  -4.911   0.964  0.00  0.00    -0.083 A 
ATOM      5  C9  <0> d           1.837  -4.206   0.858  0.00  0.00    -0.082 A 
ATOM      6  C10 <0> d           1.825  -2.826   0.859  0.00  0.00    -0.073 A 
ATOM      7  H8  <0> d          -1.518  -2.336   1.175  0.00  0.00     0.084 H 
ATOM      8  H9  <0> d          -1.474  -4.796   1.161  0.00  0.00     0.083 H 
ATOM      9  H10 <0> d           0.667  -5.991   0.959  0.00  0.00     0.083 H 
ATOM     10  H11 <0> d           2.774  -4.736   0.771  0.00  0.00     0.083 H 
ATOM     11  H12 <0> d           2.751  -2.276   0.771  0.00  0.00     0.084 H 
ENDROOT
BRANCH   1  12
ATOM     12  C3  <0> d           0.595  -0.664   0.987  0.00  0.00    -0.056 C 
ATOM     13  C2  <0> d           0.002  -0.004   0.002  0.00  0.00    -0.100 C 
ATOM     14  H4  <0> d          -0.466  -0.546  -0.806  0.00  0.00     0.077 H 
BRANCH  13  15
ATOM     15  C1  <0> d          -0.018   1.503   0.010  0.00  0.00    -0.059 C 
ATOM     16  H1  <0> d           1.004   1.880   0.003  0.00  0.00     0.032 H 
ATOM     17  H2  <0> d          -0.545   1.864  -0.873  0.00  0.00     0.032 H 
ATOM     18  H3  <0> d          -0.529   1.854   0.907  0.00  0.00     0.032 H 
ENDBRANCH  13  15
BRANCH  12  19
ATOM     19  C4  <0> d           1.248   0.092   2.115  0.00  0.00    -0.051 C 
ATOM     20  H5  <0> d           0.520   0.259   2.909  0.00  0.00     0.033 H 
ATOM     21  H6  <0> d           2.084  -0.488   2.505  0.00  0.00     0.033 H 
ATOM     22  H7  <0> d           1.611   1.051   1.747  0.00  0.00     0.033 H 
ENDBRANCH  12  19
ENDBRANCH   1  12
TORSDOF 3
