REMARK  4 active torsions:
REMARK  status: ('A' for Active; 'I' for Inactive)
REMARK    1  A    between atoms: C3_3  and  C4_4 
REMARK    2  A    between atoms: C3_3  and  C5_6 
REMARK    3  A    between atoms: C4_4  and  O1_5 
REMARK    4  A    between atoms: C5_6  and  O2_7 
ROOT
ATOM      1  C1  <0> d           1.317   0.779  -0.006  0.00  0.00    -0.053 A 
ATOM      2  C2  <0> d           0.002  -0.004   0.002  0.00  0.00    -0.053 A 
ATOM      3  C3  <0> d          -0.019   1.526   0.010  0.00  0.00     0.002 A 
ATOM      4  H1  <0> d           1.889   0.792  -0.934  0.00  0.00     0.034 H 
ATOM      5  H2  <0> d           1.906   0.782   0.910  0.00  0.00     0.034 H 
ATOM      6  H3  <0> d          -0.273  -0.516   0.924  0.00  0.00     0.034 H 
ATOM      7  H4  <0> d          -0.291  -0.506  -0.920  0.00  0.00     0.034 H 
ENDROOT
BRANCH   3   8
ATOM      8  C4  <0> d          -0.448   2.233  -1.276  0.00  0.00     0.026 C 
ATOM      9  H5  <0> d           0.228   1.959  -2.085  0.00  0.00     0.075 H 
ATOM     10  H6  <0> d          -1.464   1.933  -1.534  0.00  0.00     0.075 H 
BRANCH   8  11
ATOM     11  O1  <0> d          -0.406   3.648  -1.079  0.00  0.00    -0.400 OA
ATOM     12  H7  <0> d          -0.667   4.162  -1.855  0.00  0.00     0.209 HD
ENDBRANCH   8  11
ENDBRANCH   3   8
BRANCH   3  13
ATOM     13  C5  <0> d          -0.424   2.220   1.312  0.00  0.00     0.026 C 
ATOM     14  H8  <0> d          -1.434   1.916   1.587  0.00  0.00     0.075 H 
ATOM     15  H9  <0> d           0.268   1.937   2.106  0.00  0.00     0.075 H 
BRANCH  13  16
ATOM     16  O2  <0> d          -0.385   3.636   1.129  0.00  0.00    -0.400 OA
ATOM     17  H10 <0> d          -0.631   4.141   1.916  0.00  0.00     0.209 HD
ENDBRANCH  13  16
ENDBRANCH   3  13
TORSDOF 4
