REMARK  2 active torsions:
REMARK  status: ('A' for Active; 'I' for Inactive)
REMARK    1  A    between atoms: C1_1  and  O1_2 
REMARK    2  A    between atoms: O1_2  and  C2_3 
ROOT
ATOM      1  C2  <0> d           2.400   0.029  -0.022  0.00  0.00     0.071 A 
ATOM      2  C3  <0> d           1.207  -0.680  -0.014  0.00  0.00    -0.048 A 
ATOM      3  C4  <0> d           0.002  -0.004   0.002  0.00  0.00    -0.040 A 
ATOM      4  C5  <0> d          -0.017   1.380   0.010  0.00  0.00     0.154 A 
ATOM      5  C6  <0> d           1.174   2.090   0.002  0.00  0.00     0.157 A 
ATOM      6  C7  <0> d           2.382   1.415  -0.013  0.00  0.00    -0.011 A 
ATOM      7  F1  <0> d           1.155   3.441   0.009  0.00  0.00    -0.203 F 
ATOM      8  F2  <0> d          -1.196   2.039   0.019  0.00  0.00    -0.203 F 
ATOM      9  H4  <0> d           1.221  -1.760  -0.020  0.00  0.00     0.087 H 
ATOM     10  H5  <0> d          -0.926  -0.556   0.008  0.00  0.00     0.088 H 
ATOM     11  H6  <0> d           3.310   1.968  -0.020  0.00  0.00     0.092 H 
ENDROOT
BRANCH   1  12
ATOM     12  O1  <0> d           3.586  -0.636  -0.038  0.00  0.00    -0.356 OA
BRANCH  12  13
ATOM     13  C1  <0> d           4.774   0.158  -0.045  0.00  0.00     0.010 C 
ATOM     14  H1  <0> d           4.800   0.781   0.848  0.00  0.00     0.066 H 
ATOM     15  H2  <0> d           5.647  -0.495  -0.058  0.00  0.00     0.066 H 
ATOM     16  H3  <0> d           4.782   0.792  -0.932  0.00  0.00     0.066 H 
ENDBRANCH  12  13
ENDBRANCH   1  12
TORSDOF 2
