REMARK  1 active torsions:
REMARK  status: ('A' for Active; 'I' for Inactive)
REMARK    1  A    between atoms: C1_1  and  C2_2 
ROOT
ATOM      1  C2  <0> d          -0.718   1.572   1.248  0.00  0.00     0.101 A 
ATOM      2  N1  <0> d          -2.055   1.819   1.342  0.00  0.00    -0.234 NA
ATOM      3  H1  <0> d           0.836   1.717   2.576  0.00  0.00     0.167 HD
ATOM      4  C3  <0> d          -2.304   2.238   2.621  0.00  0.00     0.092 A 
ATOM      5  C4  <0> d          -3.459   2.625   3.327  0.00  0.00    -0.038 A 
ATOM      6  C5  <0> d          -3.360   2.993   4.621  0.00  0.00    -0.017 A 
ATOM      7  N2  <0> d          -2.159   2.993   5.268  0.00  0.00    -0.332 N 
ATOM      8  H2  <0> d          -2.121   3.271   6.227  0.00  0.00     0.168 HD
ATOM      9  C6  <0> d          -1.024   2.626   4.641  0.00  0.00     0.274 A 
ATOM     10  O1  <0> d           0.038   2.635   5.241  0.00  0.00    -0.266 OA
ATOM     11  C7  <0> d          -1.071   2.231   3.283  0.00  0.00     0.131 A 
ATOM     12  N3  <0> d          -0.142   1.818   2.389  0.00  0.00    -0.338 N 
ATOM     13  H6  <0> d          -4.420   2.633   2.833  0.00  0.00     0.089 H 
ATOM     14  H7  <0> d          -4.249   3.293   5.155  0.00  0.00     0.111 H 
ENDROOT
BRANCH   1  15
ATOM     15  C1  <0> d          -0.013   1.086   0.008  0.00  0.00    -0.021 C 
ATOM     16  H3  <0> d           0.002  -0.004   0.002  0.00  0.00     0.037 H 
ATOM     17  H4  <0> d           1.010   1.463   0.000  0.00  0.00     0.037 H 
ATOM     18  H5  <0> d          -0.540   1.447  -0.875  0.00  0.00     0.037 H 
ENDBRANCH   1  15
TORSDOF 1
