REMARK  1 active torsions:
REMARK  status: ('A' for Active; 'I' for Inactive)
REMARK    1  A    between atoms: C1_1  and  C2_2 
ROOT
ATOM      1  C2  <0> d          -0.718   1.572   1.248  0.00  0.00     0.106 A 
ATOM      2  N1  <0> d          -1.173   0.673   2.070  0.00  0.00    -0.201 NA
ATOM      3  C3  <0> d          -1.816   0.989   3.203  0.00  0.00     0.253 A 
ATOM      4  O1  <0> d          -2.229   0.127   3.952  0.00  0.00    -0.271 OA
ATOM      5  C4  <0> d          -2.008   2.461   3.517  0.00  0.00     0.085 A 
ATOM      6  C5  <0> d          -1.444   3.437   2.500  0.00  0.00     0.231 A 
ATOM      7  O2  <0> d          -1.541   4.635   2.651  0.00  0.00    -0.273 OA
ATOM      8  N2  <0> d          -0.824   2.910   1.421  0.00  0.00    -0.315 N 
ATOM      9  H4  <0> d          -3.077   2.651   3.614  0.00  0.00     0.061 H 
ATOM     10  H5  <0> d          -1.539   2.667   4.479  0.00  0.00     0.061 H 
ATOM     11  H6  <0> d          -0.448   3.505   0.753  0.00  0.00     0.170 HD
ENDROOT
BRANCH   1  12
ATOM     12  C1  <0> d          -0.013   1.086   0.008  0.00  0.00    -0.021 C 
ATOM     13  H1  <0> d           0.002  -0.004   0.002  0.00  0.00     0.037 H 
ATOM     14  H2  <0> d           1.010   1.463   0.000  0.00  0.00     0.037 H 
ATOM     15  H3  <0> d          -0.540   1.447  -0.875  0.00  0.00     0.037 H 
ENDBRANCH   1  12
TORSDOF 1
