REMARK  1 active torsions:
REMARK  status: ('A' for Active; 'I' for Inactive)
REMARK    1  A    between atoms: C8_12  and  C9_13 
ROOT
ATOM      1  C1  <0> d          -0.190  -0.372   1.527  0.00  0.00    -0.058 C 
ATOM      2  C2  <0> d           0.744   0.782   2.067  0.00  0.00    -0.049 C 
ATOM      3  H1  <0> d           1.011   0.770   3.123  0.00  0.00     0.040 H 
ATOM      4  C3  <0> d          -0.178   1.922   1.541  0.00  0.00    -0.057 C 
ATOM      5  C4  <0> d          -0.019   1.571   0.011  0.00  0.00    -0.037 C 
ATOM      6  H2  <0> d          -0.673   2.063  -0.709  0.00  0.00     0.042 H 
ATOM      7  C5  <0> d           0.002  -0.004   0.002  0.00  0.00    -0.049 C 
ATOM      8  H3  <0> d          -0.639  -0.503  -0.724  0.00  0.00     0.040 H 
ATOM      9  C6  <0> d           1.546  -0.340  -0.028  0.00  0.00    -0.057 C 
ATOM     10  C7  <0> d           1.937   0.804   1.019  0.00  0.00    -0.037 C 
ATOM     11  H4  <0> d           2.950   0.825   1.421  0.00  0.00     0.042 H 
ATOM     12  C8  <0> d           1.512   1.953  -0.002  0.00  0.00     0.038 C 
ATOM     13  H5  <0> d          -1.224  -0.252   1.853  0.00  0.00     0.034 H 
ATOM     14  H6  <0> d           0.199  -1.362   1.764  0.00  0.00     0.034 H 
ATOM     15  H7  <0> d           0.200   2.917   1.776  0.00  0.00     0.034 H 
ATOM     16  H8  <0> d          -1.201   1.784   1.891  0.00  0.00     0.034 H 
ATOM     17  H9  <0> d           1.760  -1.333   0.367  0.00  0.00     0.034 H 
ATOM     18  H10 <0> d           1.981  -0.193  -1.016  0.00  0.00     0.034 H 
ATOM     19  H11 <0> d           1.692   2.944   0.415  0.00  0.00     0.057 H 
ENDROOT
BRANCH  12  20
ATOM     20  C9  <0> d           2.125   1.800  -1.370  0.00  0.00     0.177 C 
ATOM     21  O1  <0> d           1.448   1.421  -2.296  0.00  0.00    -0.648 OA
ATOM     22  O2  <0> d           3.423   2.084  -1.559  0.00  0.00    -0.648 OA
ENDBRANCH  12  20
TORSDOF 1
