REMARK  2 active torsions:
REMARK  status: ('A' for Active; 'I' for Inactive)
REMARK    1  A    between atoms: C1_1  and  C2_2 
REMARK    2  A    between atoms: C2_2  and  C4_6 
ROOT
ATOM      1  C2  <0> d          -1.329   1.940   0.019  0.00  0.00     0.110 C 
ATOM      2  H1  <0> d          -1.391   2.561   0.913  0.00  0.00     0.079 H 
ATOM      3  C3  <0> d          -2.435   0.968   0.019  0.00  0.00     0.074 C 
ATOM      4  N1  <0> d          -3.289   0.218   0.019  0.00  0.00    -0.196 NA
ENDROOT
BRANCH   1   5
ATOM      5  C1  <0> d          -1.428   2.825  -1.225  0.00  0.00    -0.052 C 
ATOM      6  H2  <0> d          -2.380   3.357  -1.218  0.00  0.00     0.029 H 
ATOM      7  H3  <0> d          -0.610   3.545  -1.225  0.00  0.00     0.029 H 
ATOM      8  H4  <0> d          -1.366   2.204  -2.119  0.00  0.00     0.029 H 
ENDBRANCH   1   5
BRANCH   1   9
ATOM      9  C4  <0> d          -0.014   1.204   0.009  0.00  0.00     0.190 C 
ATOM     10  O1  <0> d           0.002  -0.004   0.002  0.00  0.00    -0.647 OA
ATOM     11  O2  <0> d           1.139   1.891   0.001  0.00  0.00    -0.647 OA
ENDBRANCH   1   9
TORSDOF 2
