REMARK  2 active torsions:
REMARK  status: ('A' for Active; 'I' for Inactive)
REMARK    1  A    between atoms: C1_1  and  C2_2 
REMARK    2  A    between atoms: C5_5  and  C8_9 
ROOT
ATOM      1  C2  <0> d           0.002  -0.004   0.002  0.00  0.00    -0.059 A 
ATOM      2  C3  <0> d           0.006  -0.686  -1.202  0.00  0.00    -0.076 A 
ATOM      3  C4  <0> d           0.024  -2.065  -1.218  0.00  0.00    -0.070 A 
ATOM      4  C5  <0> d           0.040  -2.775  -0.017  0.00  0.00     0.002 A 
ATOM      5  C6  <0> d           0.036  -2.081   1.196  0.00  0.00     0.127 A 
ATOM      6  C7  <0> d           0.023  -0.699   1.198  0.00  0.00    -0.039 A 
ATOM      7  F1  <0> d           0.051  -2.759   2.365  0.00  0.00    -0.205 F 
ATOM      8  H4  <0> d          -0.007  -0.137  -2.132  0.00  0.00     0.084 H 
ATOM      9  H5  <0> d           0.027  -2.595  -2.159  0.00  0.00     0.085 H 
ATOM     10  H6  <0> d           0.024  -0.160   2.134  0.00  0.00     0.089 H 
ENDROOT
BRANCH   4  11
ATOM     11  C8  <0> d           0.059  -4.252  -0.027  0.00  0.00    -0.079 C 
ATOM     12  C9  <0> d           0.062  -4.907  -1.179  0.00  0.00    -0.120 C 
ATOM     13  H8  <0> d           0.050  -4.361  -2.111  0.00  0.00     0.066 H 
ATOM     14  H9  <0> d           0.076  -5.987  -1.187  0.00  0.00     0.066 H 
ATOM     15  H7  <0> d           0.071  -4.798   0.905  0.00  0.00     0.083 H 
ENDBRANCH   4  11
BRANCH   1  16
ATOM     16  C1  <0> d          -0.018   1.503   0.010  0.00  0.00    -0.051 C 
ATOM     17  H1  <0> d           1.004   1.880   0.003  0.00  0.00     0.033 H 
ATOM     18  H2  <0> d          -0.545   1.864  -0.873  0.00  0.00     0.033 H 
ATOM     19  H3  <0> d          -0.529   1.854   0.907  0.00  0.00     0.033 H 
ENDBRANCH   1  16
TORSDOF 2
