REMARK  2 active torsions:
REMARK  status: ('A' for Active; 'I' for Inactive)
REMARK    1  A    between atoms: C1_1  and  C2_2 
REMARK    2  A    between atoms: C2_2  and  C6_9 
ROOT
ATOM      1  C2  <0> d           0.002  -0.004   0.002  0.00  0.00     0.236 C 
ATOM      2  C3  <0> d          -1.415  -0.533   0.040  0.00  0.00     0.297 C 
ATOM      3  O1  <0> d          -1.914  -1.050  -0.932  0.00  0.00    -0.262 OA
ATOM      4  O2  <0> d          -2.104  -0.409   1.195  0.00  0.00    -0.318 OA
ATOM      5  C4  <0> d          -1.408  -0.842   2.371  0.00  0.00     0.053 C 
ATOM      6  C5  <0> d          -0.034  -0.168   2.416  0.00  0.00     0.133 C 
ATOM      7  N1  <0> d           0.713  -0.497   1.193  0.00  0.00     0.104 N 
ATOM      8  H4  <0> d          -1.980  -0.564   3.256  0.00  0.00     0.077 H 
ATOM      9  H5  <0> d          -1.282  -1.925   2.342  0.00  0.00     0.077 H 
ATOM     10  H6  <0> d          -0.162   0.913   2.483  0.00  0.00     0.082 H 
ATOM     11  H7  <0> d           0.517  -0.523   3.286  0.00  0.00     0.082 H 
ATOM     12  H8  <0> d           0.882  -1.490   1.129  0.00  0.00     0.317 HD
ENDROOT
BRANCH   1  13
ATOM     13  C1  <0> d          -0.019   1.526   0.010  0.00  0.00    -0.034 C 
ATOM     14  H1  <0> d           1.004   1.903   0.003  0.00  0.00     0.031 H 
ATOM     15  H2  <0> d          -0.546   1.887  -0.873  0.00  0.00     0.031 H 
ATOM     16  H3  <0> d          -0.529   1.877   0.907  0.00  0.00     0.031 H 
ENDBRANCH   1  13
BRANCH   1  17
ATOM     17  C6  <0> d           0.706  -0.503  -1.262  0.00  0.00    -0.034 C 
ATOM     18  H9  <0> d           1.729  -0.128  -1.280  0.00  0.00     0.031 H 
ATOM     19  H10 <0> d           0.719  -1.593  -1.264  0.00  0.00     0.031 H 
ATOM     20  H11 <0> d           0.171  -0.144  -2.141  0.00  0.00     0.031 H 
ENDBRANCH   1  17
TORSDOF 2
