REMARK  1 active torsions:
REMARK  status: ('A' for Active; 'I' for Inactive)
REMARK    1  A    between atoms: C5_5  and  N1_8 
ROOT
ATOM      1  C1  <0> d          -2.462   3.712   0.035  0.00  0.00    -0.040 A 
ATOM      2  C2  <0> d          -3.650   3.004   0.037  0.00  0.00    -0.040 A 
ATOM      3  C3  <0> d          -3.634   1.620   0.029  0.00  0.00     0.157 A 
ATOM      4  C4  <0> d          -2.428   0.940   0.019  0.00  0.00     0.183 A 
ATOM      5  C5  <0> d          -1.233   1.649   0.017  0.00  0.00     0.107 A 
ATOM      6  C6  <0> d          -1.254   3.039   0.030  0.00  0.00     0.145 A 
ATOM      7  F1  <0> d          -0.094   3.733   0.034  0.00  0.00    -0.204 F 
ATOM      8  F2  <0> d          -2.412  -0.411   0.011  0.00  0.00    -0.200 F 
ATOM      9  F3  <0> d          -4.797   0.932   0.031  0.00  0.00    -0.203 F 
ATOM     10  H1  <0> d          -2.478   4.792   0.042  0.00  0.00     0.088 H 
ATOM     11  H2  <0> d          -4.592   3.533   0.044  0.00  0.00     0.088 H 
ENDROOT
BRANCH   5  12
ATOM     12  N1  <0> d          -0.011   0.966   0.007  0.00  0.00    -0.394 N 
ATOM     13  H3  <0> d           0.002  -0.004   0.002  0.00  0.00     0.156 HD
ATOM     14  H4  <0> d           0.822   1.462   0.002  0.00  0.00     0.156 HD
ENDBRANCH   5  12
TORSDOF 1
