REMARK  4 active torsions:
REMARK  status: ('A' for Active; 'I' for Inactive)
REMARK    1  A    between atoms: C1_1  and  O1_2 
REMARK    2  A    between atoms: O1_2  and  C2_3 
REMARK    3  A    between atoms: C2_3  and  C3_4 
REMARK    4  A    between atoms: C3_4  and  C4_6 
ROOT
ATOM      1  C4  <0> d           1.249   2.258   0.002  0.00  0.00     0.104 A 
ATOM      2  C5  <0> d           1.224   3.653   0.010  0.00  0.00    -0.051 A 
ATOM      3  C6  <0> d           2.423   4.348   0.003  0.00  0.00    -0.079 A 
ATOM      4  C7  <0> d           3.606   3.625  -0.012  0.00  0.00    -0.066 A 
ATOM      5  C8  <0> d           3.557   2.239  -0.019  0.00  0.00     0.003 A 
ATOM      6  N1  <0> d           2.406   1.604  -0.007  0.00  0.00    -0.257 NA
ATOM      7  H6  <0> d           0.284   4.184   0.022  0.00  0.00     0.087 H 
ATOM      8  H7  <0> d           2.436   5.427   0.008  0.00  0.00     0.083 H 
ATOM      9  H8  <0> d           4.557   4.136  -0.018  0.00  0.00     0.085 H 
ATOM     10  H9  <0> d           4.477   1.674  -0.030  0.00  0.00     0.114 H 
ENDROOT
BRANCH   1  11
ATOM     11  C3  <0> d          -0.018   1.503   0.010  0.00  0.00     0.201 C 
ATOM     12  O2  <0> d          -1.076   2.095   0.018  0.00  0.00    -0.288 OA
BRANCH  11  13
ATOM     13  C2  <0> d           0.002  -0.004   0.002  0.00  0.00     0.080 C 
ATOM     14  H4  <0> d           0.470  -0.327  -0.821  0.00  0.00     0.086 H 
ATOM     15  H5  <0> d           0.529  -0.365   0.885  0.00  0.00     0.086 H 
BRANCH  13  16
ATOM     16  O1  <0> d          -1.339  -0.499   0.012  0.00  0.00    -0.388 OA
BRANCH  16  17
ATOM     17  C1  <0> d          -1.432  -1.925   0.005  0.00  0.00     0.004 C 
ATOM     18  H1  <0> d          -2.481  -2.220   0.014  0.00  0.00     0.066 H 
ATOM     19  H2  <0> d          -0.952  -2.316  -0.891  0.00  0.00     0.066 H 
ATOM     20  H3  <0> d          -0.935  -2.325   0.888  0.00  0.00     0.066 H 
ENDBRANCH  16  17
ENDBRANCH  13  16
ENDBRANCH  11  13
ENDBRANCH   1  11
TORSDOF 4
