REMARK  1 active torsions:
REMARK  status: ('A' for Active; 'I' for Inactive)
REMARK    1  A    between atoms: C4_4  and  O2_9 
ROOT
ATOM      1  C1  <0> d           0.035  -3.043  -0.707  0.00  0.00    -0.083 A 
ATOM      2  C2  <0> d           0.013  -1.957  -1.558  0.00  0.00    -0.080 A 
ATOM      3  C3  <0> d          -0.007  -0.601  -1.244  0.00  0.00    -0.047 A 
ATOM      4  C4  <0> d           0.002  -0.004   0.002  0.00  0.00     0.115 A 
ATOM      5  C5  <0> d           0.023  -0.630   1.274  0.00  0.00     0.204 A 
ATOM      6  O1  <0> d           0.022   0.121   2.240  0.00  0.00    -0.285 OA
ATOM      7  C6  <0> d           0.043  -2.006   1.565  0.00  0.00    -0.032 A 
ATOM      8  C7  <0> d           0.049  -3.065   0.686  0.00  0.00    -0.079 A 
ATOM      9  H1  <0> d           0.044  -4.010  -1.187  0.00  0.00     0.083 H 
ATOM     10  H2  <0> d           0.006  -2.192  -2.612  0.00  0.00     0.083 H 
ATOM     11  H3  <0> d          -0.028   0.074  -2.087  0.00  0.00     0.087 H 
ATOM     12  H4  <0> d           0.057  -2.264   2.614  0.00  0.00     0.089 H 
ATOM     13  H5  <0> d           0.066  -4.046   1.137  0.00  0.00     0.083 H 
ENDROOT
BRANCH   4  14
ATOM     14  O2  <0> d          -0.016   1.351   0.009  0.00  0.00    -0.357 OA
ATOM     15  H6  <0> d           0.862   1.756   0.003  0.00  0.00     0.218 HD
ENDBRANCH   4  14
TORSDOF 1
