REMARK  4 active torsions:
REMARK  status: ('A' for Active; 'I' for Inactive)
REMARK    1  A    between atoms: C1_1  and  C2_2 
REMARK    2  A    between atoms: C2_2  and  O1_3 
REMARK    3  A    between atoms: O1_3  and  C3_4 
REMARK    4  A    between atoms: C8_9  and  N1_10 
ROOT
ATOM      1  C3  <0> d          -1.498  -1.849   0.006  0.00  0.00     0.094 A 
ATOM      2  C4  <0> d          -0.390  -2.680  -0.003  0.00  0.00    -0.049 A 
ATOM      3  C5  <0> d          -0.554  -4.053  -0.009  0.00  0.00    -0.080 A 
ATOM      4  C6  <0> d          -1.823  -4.601  -0.006  0.00  0.00    -0.081 A 
ATOM      5  C7  <0> d          -2.935  -3.779   0.004  0.00  0.00    -0.055 A 
ATOM      6  C8  <0> d          -2.778  -2.401   0.016  0.00  0.00     0.059 A 
ATOM      7  H6  <0> d           0.603  -2.255  -0.006  0.00  0.00     0.087 H 
ATOM      8  H7  <0> d           0.312  -4.698  -0.017  0.00  0.00     0.083 H 
ATOM      9  H8  <0> d          -1.946  -5.674  -0.011  0.00  0.00     0.083 H 
ATOM     10  H9  <0> d          -3.925  -4.210   0.006  0.00  0.00     0.087 H 
ENDROOT
BRANCH   1  11
ATOM     11  O1  <0> d          -1.339  -0.499   0.012  0.00  0.00    -0.349 OA
BRANCH  11  12
ATOM     12  C2  <0> d           0.002  -0.004   0.002  0.00  0.00     0.023 C 
ATOM     13  H4  <0> d           0.512  -0.356  -0.895  0.00  0.00     0.074 H 
ATOM     14  H5  <0> d           0.529  -0.365   0.885  0.00  0.00     0.074 H 
BRANCH  12  15
ATOM     15  C1  <0> d          -0.019   1.526   0.010  0.00  0.00    -0.056 C 
ATOM     16  H1  <0> d           1.004   1.903   0.003  0.00  0.00     0.030 H 
ATOM     17  H2  <0> d          -0.546   1.887  -0.873  0.00  0.00     0.030 H 
ATOM     18  H3  <0> d          -0.529   1.877   0.907  0.00  0.00     0.030 H 
ENDBRANCH  12  15
ENDBRANCH  11  12
ENDBRANCH   1  11
BRANCH   6  19
ATOM     19  N1  <0> d          -3.901  -1.567   0.031  0.00  0.00    -0.397 N 
ATOM     20  H10 <0> d          -3.790  -0.603   0.036  0.00  0.00     0.156 HD
ATOM     21  H11 <0> d          -4.792  -1.953   0.038  0.00  0.00     0.156 HD
ENDBRANCH   6  19
TORSDOF 4
