REMARK  2 active torsions:
REMARK  status: ('A' for Active; 'I' for Inactive)
REMARK    1  A    between atoms: C1_1  and  C2_2 
REMARK    2  A    between atoms: N1_8  and  C9_11 
ROOT
ATOM      1  C2  <0> d           0.002  -0.004   0.002  0.00  0.00    -0.060 A 
ATOM      2  C3  <0> d           1.208  -0.691  -0.013  0.00  0.00    -0.075 A 
ATOM      3  C4  <0> d           2.395  -0.015  -0.021  0.00  0.00    -0.052 A 
ATOM      4  C5  <0> d           2.400   1.382  -0.014  0.00  0.00     0.085 A 
ATOM      5  C6  <0> d           1.180   2.078   0.002  0.00  0.00     0.064 A 
ATOM      6  C7  <0> d          -0.017   1.374   0.010  0.00  0.00    -0.049 A 
ATOM      7  N1  <0> d           1.506   3.420   0.005  0.00  0.00    -0.344 N 
ATOM      8  C8  <0> d           2.864   3.506  -0.007  0.00  0.00     0.067 A 
ATOM      9  N2  <0> d           3.387   2.315  -0.018  0.00  0.00    -0.242 NA
ATOM     10  H4  <0> d           1.208  -1.771  -0.018  0.00  0.00     0.084 H 
ATOM     11  H5  <0> d           3.327  -0.560  -0.033  0.00  0.00     0.087 H 
ATOM     12  H6  <0> d          -0.958   1.904   0.017  0.00  0.00     0.087 H 
ATOM     13  H7  <0> d           3.425   4.428  -0.007  0.00  0.00     0.143 H 
ENDROOT
BRANCH   1  14
ATOM     14  C1  <0> d          -1.296  -0.770   0.010  0.00  0.00    -0.051 C 
ATOM     15  H1  <0> d          -1.618  -0.949  -1.015  0.00  0.00     0.033 H 
ATOM     16  H2  <0> d          -1.151  -1.724   0.518  0.00  0.00     0.033 H 
ATOM     17  H3  <0> d          -2.056  -0.191   0.534  0.00  0.00     0.033 H 
ENDBRANCH   1  14
BRANCH   7  18
ATOM     18  C9  <0> d           0.565   4.542   0.021  0.00  0.00    -0.013 C 
ATOM     19  H8  <0> d           0.322   4.827  -1.003  0.00  0.00     0.057 H 
ATOM     20  H9  <0> d          -0.345   4.246   0.541  0.00  0.00     0.057 H 
ATOM     21  H10 <0> d           1.018   5.390   0.535  0.00  0.00     0.057 H 
ENDBRANCH   7  18
TORSDOF 2
