REMARK  4 active torsions:
REMARK  status: ('A' for Active; 'I' for Inactive)
REMARK    1  A    between atoms: C1_1  and  C2_2 
REMARK    2  A    between atoms: C2_2  and  C3_3 
REMARK    3  A    between atoms: C2_2  and  C5_5 
REMARK    4  A    between atoms: C2_2  and  O1_11 
ROOT
ATOM      1  C3  <0> d          -0.017   1.092   2.459  0.00  0.00    -0.074 C 
ATOM      2  C4  <0> d           0.551   0.703   3.410  0.00  0.00    -0.151 C 
ATOM      3  H4  <0> d           1.059   0.355   4.261  0.00  0.00     0.166 H 
ENDROOT
BRANCH   1   4
ATOM      4  C2  <0> d          -0.729   1.579   1.267  0.00  0.00     0.144 C 
BRANCH   4   5
ATOM      5  C1  <0> d          -0.013   1.086   0.008  0.00  0.00    -0.033 C 
ATOM      6  H1  <0> d           0.002  -0.004   0.002  0.00  0.00     0.033 H 
ATOM      7  H2  <0> d           1.010   1.463   0.000  0.00  0.00     0.033 H 
ATOM      8  H3  <0> d          -0.540   1.447  -0.875  0.00  0.00     0.033 H 
ENDBRANCH   4   5
BRANCH   4   9
ATOM      9  C5  <0> d          -2.143   1.058   1.278  0.00  0.00    -0.009 A 
ATOM     10  C9  <0> d          -3.160   1.776   1.887  0.00  0.00    -0.056 A 
ATOM     11  C8  <0> d          -4.444   1.267   1.876  0.00  0.00     0.002 A 
ATOM     12  H8  <0> d          -2.951   2.723   2.364  0.00  0.00     0.086 H 
ATOM     13  N1  <0> d          -4.707   0.112   1.296  0.00  0.00    -0.273 NA
ATOM     14  H7  <0> d          -5.242   1.821   2.348  0.00  0.00     0.114 H 
ATOM     15  C7  <0> d          -3.765  -0.598   0.707  0.00  0.00     0.002 A 
ATOM     16  C6  <0> d          -2.458  -0.150   0.673  0.00  0.00    -0.056 A 
ATOM     17  H6  <0> d          -4.019  -1.539   0.242  0.00  0.00     0.114 H 
ATOM     18  H5  <0> d          -1.692  -0.734   0.186  0.00  0.00     0.086 H 
ENDBRANCH   4   9
BRANCH   4  19
ATOM     19  O1  <0> d          -0.748   3.008   1.275  0.00  0.00    -0.373 OA
ATOM     20  H9  <0> d          -1.188   3.391   2.046  0.00  0.00     0.212 HD
ENDBRANCH   4  19
ENDBRANCH   1   4
TORSDOF 4
