REMARK  8 active torsions:
REMARK  status: ('A' for Active; 'I' for Inactive)
REMARK    1  A    between atoms: C1_1  and  C2_2 
REMARK    2  A    between atoms: C2_2  and  C3_3 
REMARK    3  A    between atoms: C2_2  and  C4_4 
REMARK    4  A    between atoms: C4_4  and  C5_6 
REMARK    5  A    between atoms: C4_4  and  C6_9 
REMARK       I    between atoms: C5_6  and  N1_8 
REMARK    6  A    between atoms: C6_9  and  C7_10 
REMARK    7  A    between atoms: C6_9  and  C8_11 
REMARK    8  A    between atoms: C6_9  and  C9_12 
ROOT
ATOM      1  C4  <0> d          -1.473   1.823  -0.261  0.00  0.00     0.032 C 
ATOM      2  H1  <0> d          -1.252   2.412  -1.150  0.00  0.00     0.056 H 
ENDROOT
BRANCH   1   3
ATOM      3  C2  <0> d          -1.170   2.651   0.989  0.00  0.00    -0.049 C 
ATOM      4  H5  <0> d          -2.036   3.265   1.237  0.00  0.00     0.040 H 
BRANCH   3   5
ATOM      5  C1  <0> d          -0.856   1.715   2.158  0.00  0.00    -0.072 C 
ATOM      6  H2  <0> d           0.045   1.144   1.934  0.00  0.00     0.028 H 
ATOM      7  H3  <0> d          -0.698   2.303   3.062  0.00  0.00     0.028 H 
ATOM      8  H4  <0> d          -1.691   1.032   2.311  0.00  0.00     0.028 H 
ENDBRANCH   3   5
BRANCH   3   9
ATOM      9  C3  <0> d           0.036   3.555   0.722  0.00  0.00    -0.072 C 
ATOM     10  H6  <0> d           0.902   2.942   0.474  0.00  0.00     0.028 H 
ATOM     11  H7  <0> d          -0.188   4.222  -0.111  0.00  0.00     0.028 H 
ATOM     12  H8  <0> d           0.252   4.146   1.612  0.00  0.00     0.028 H 
ENDBRANCH   3   9
ENDBRANCH   1   3
BRANCH   1  13
ATOM     13  C5  <0> d          -0.622   0.579  -0.258  0.00  0.00     0.220 C 
ATOM     14  O1  <0> d          -1.090  -0.475   0.117  0.00  0.00    -0.273 OA
ATOM     15  N1  <0> d           0.658   0.637  -0.676  0.00  0.00    -0.370 N 
ATOM     16  H9  <0> d           1.229  -0.143  -0.600  0.00  0.00     0.159 HD
ATOM     17  H10 <0> d           1.008   1.460  -1.053  0.00  0.00     0.159 HD
ENDBRANCH   1  13
BRANCH   1  18
ATOM     18  C6  <0> d          -2.951   1.429  -0.265  0.00  0.00    -0.039 C 
BRANCH  18  19
ATOM     19  C7  <0> d          -3.304   0.755   1.063  0.00  0.00    -0.069 C 
ATOM     20  H11 <0> d          -3.333   1.504   1.854  0.00  0.00     0.028 H 
ATOM     21  H12 <0> d          -4.279   0.275   0.979  0.00  0.00     0.028 H 
ATOM     22  H13 <0> d          -2.549   0.005   1.301  0.00  0.00     0.028 H 
ENDBRANCH  18  19
BRANCH  18  23
ATOM     23  C8  <0> d          -3.812   2.681  -0.446  0.00  0.00    -0.069 C 
ATOM     24  H14 <0> d          -3.560   3.162  -1.391  0.00  0.00     0.028 H 
ATOM     25  H15 <0> d          -4.865   2.400  -0.450  0.00  0.00     0.028 H 
ATOM     26  H16 <0> d          -3.624   3.372   0.376  0.00  0.00     0.028 H 
ENDBRANCH  18  23
BRANCH  18  27
ATOM     27  C9  <0> d          -3.217   0.457  -1.417  0.00  0.00    -0.069 C 
ATOM     28  H17 <0> d          -2.604  -0.435  -1.288  0.00  0.00     0.028 H 
ATOM     29  H18 <0> d          -4.270   0.176  -1.419  0.00  0.00     0.028 H 
ATOM     30  H19 <0> d          -2.966   0.937  -2.362  0.00  0.00     0.028 H 
ENDBRANCH  18  27
ENDBRANCH   1  18
TORSDOF 8
