REMARK  6 active torsions:
REMARK  status: ('A' for Active; 'I' for Inactive)
REMARK    1  A    between atoms: C1_1  and  C2_2 
REMARK    2  A    between atoms: C2_2  and  C3_3 
REMARK    3  A    between atoms: C4_4  and  C10_12 
REMARK    4  A    between atoms: C5_5  and  C9_11 
REMARK    5  A    between atoms: C6_6  and  C7_9 
REMARK    6  A    between atoms: C7_9  and  C8_10 
ROOT
ATOM      1  C3  <0> d           0.731  -0.503   1.223  0.00  0.00     0.015 A 
ATOM      2  C4  <0> d           0.190  -0.696   2.443  0.00  0.00    -0.032 A 
ATOM      3  C5  <0> d           1.213  -1.168   3.288  0.00  0.00    -0.032 A 
ATOM      4  C6  <0> d           2.341  -1.245   2.553  0.00  0.00     0.015 A 
ATOM      5  N1  <0> d           2.050  -0.843   1.283  0.00  0.00    -0.362 N 
ATOM      6  H1  <0> d           2.678  -0.804   0.545  0.00  0.00     0.165 HD
ENDROOT
BRANCH   1   7
ATOM      7  C2  <0> d           0.002  -0.004   0.002  0.00  0.00    -0.030 C 
ATOM      8  H5  <0> d          -1.020  -0.381   0.010  0.00  0.00     0.041 H 
ATOM      9  H6  <0> d           0.512  -0.356  -0.895  0.00  0.00     0.041 H 
BRANCH   7  10
ATOM     10  C1  <0> d          -0.019   1.526   0.010  0.00  0.00    -0.071 C 
ATOM     11  H2  <0> d           1.004   1.903   0.003  0.00  0.00     0.028 H 
ATOM     12  H3  <0> d          -0.546   1.887  -0.873  0.00  0.00     0.028 H 
ATOM     13  H4  <0> d          -0.529   1.877   0.907  0.00  0.00     0.028 H 
ENDBRANCH   7  10
ENDBRANCH   1   7
BRANCH   2  14
ATOM     14  C10 <0> d          -1.246  -0.452   2.831  0.00  0.00    -0.049 C 
ATOM     15  H15 <0> d          -1.826  -1.361   2.667  0.00  0.00     0.033 H 
ATOM     16  H16 <0> d          -1.296  -0.173   3.883  0.00  0.00     0.033 H 
ATOM     17  H17 <0> d          -1.655   0.354   2.222  0.00  0.00     0.033 H 
ENDBRANCH   2  14
BRANCH   4  18
ATOM     18  C7  <0> d           3.689  -1.702   3.048  0.00  0.00    -0.030 C 
ATOM     19  H7  <0> d           4.471  -1.264   2.427  0.00  0.00     0.041 H 
ATOM     20  H8  <0> d           3.824  -1.381   4.081  0.00  0.00     0.041 H 
BRANCH  18  21
ATOM     21  C8  <0> d           3.771  -3.227   2.972  0.00  0.00    -0.071 C 
ATOM     22  H9  <0> d           4.746  -3.558   3.330  0.00  0.00     0.028 H 
ATOM     23  H10 <0> d           2.989  -3.664   3.593  0.00  0.00     0.028 H 
ATOM     24  H11 <0> d           3.636  -3.547   1.939  0.00  0.00     0.028 H 
ENDBRANCH  18  21
ENDBRANCH   4  18
BRANCH   3  25
ATOM     25  C9  <0> d           1.074  -1.521   4.747  0.00  0.00    -0.049 C 
ATOM     26  H12 <0> d           0.807  -2.574   4.842  0.00  0.00     0.033 H 
ATOM     27  H13 <0> d           2.019  -1.339   5.257  0.00  0.00     0.033 H 
ATOM     28  H14 <0> d           0.294  -0.906   5.196  0.00  0.00     0.033 H 
ENDBRANCH   3  25
TORSDOF 6
