REMARK  3 active torsions:
REMARK  status: ('A' for Active; 'I' for Inactive)
REMARK    1  A    between atoms: C1_1  and  C2_2 
REMARK    2  A    between atoms: C2_2  and  N1_3 
REMARK    3  A    between atoms: N1_3  and  C3_4 
ROOT
ATOM      1  C3  <0> d           0.829  -1.819  -1.429  0.00  0.00     0.705 A 
ATOM      2  N2  <0> d           0.339  -2.676  -0.555  0.00  0.00    -0.035 NA
ATOM      3  C4  <0> d           0.454  -3.992  -0.737  0.00  0.00     0.233 A 
ATOM      4  C5  <0> d           1.098  -4.478  -1.855  0.00  0.00     0.040 A 
ATOM      5  C6  <0> d           1.619  -3.564  -2.784  0.00  0.00     0.264 A 
ATOM      6  O1  <0> d           2.195  -3.957  -3.786  0.00  0.00    -0.268 OA
ATOM      7  N3  <0> d           1.468  -2.244  -2.552  0.00  0.00    -0.154 N 
ATOM      8  F1  <0> d          -0.057  -4.848   0.175  0.00  0.00    -0.183 F 
ATOM      9  H7  <0> d           1.199  -5.541  -2.014  0.00  0.00     0.099 H 
ATOM     10  H8  <0> d           1.818  -1.597  -3.184  0.00  0.00     0.187 HD
ENDROOT
BRANCH   1  11
ATOM     11  N1  <0> d           0.688  -0.476  -1.203  0.00  0.00    -0.224 N 
ATOM     12  H6  <0> d           1.042   0.162  -1.842  0.00  0.00     0.177 HD
BRANCH  11  13
ATOM     13  C2  <0> d           0.002  -0.004   0.002  0.00  0.00     0.006 C 
ATOM     14  H4  <0> d           0.529  -0.365   0.885  0.00  0.00     0.064 H 
ATOM     15  H5  <0> d          -1.020  -0.381   0.010  0.00  0.00     0.064 H 
BRANCH  13  16
ATOM     16  C1  <0> d          -0.019   1.526   0.010  0.00  0.00    -0.061 C 
ATOM     17  H1  <0> d           1.004   1.903   0.003  0.00  0.00     0.029 H 
ATOM     18  H2  <0> d          -0.546   1.887  -0.873  0.00  0.00     0.029 H 
ATOM     19  H3  <0> d          -0.529   1.877   0.907  0.00  0.00     0.029 H 
ENDBRANCH  13  16
ENDBRANCH  11  13
ENDBRANCH   1  11
TORSDOF 3
