REMARK  2 active torsions:
REMARK  status: ('A' for Active; 'I' for Inactive)
REMARK    1  A    between atoms: C3_3  and  N2_11 
REMARK    2  A    between atoms: C4_4  and  C7_8 
REMARK       I    between atoms: C7_8  and  N1_10 
ROOT
ATOM      1  C1  <0> d          -1.238   1.784   0.015  0.00  0.00    -0.043 A 
ATOM      2  C2  <0> d          -0.054   1.076   0.026  0.00  0.00    -0.054 A 
ATOM      3  C3  <0> d           1.160   1.749   0.021  0.00  0.00     0.041 A 
ATOM      4  C4  <0> d           1.177   3.153   0.011  0.00  0.00     0.060 A 
ATOM      5  C5  <0> d          -0.029   3.857   0.005  0.00  0.00    -0.028 A 
ATOM      6  C6  <0> d          -1.226   3.172   0.010  0.00  0.00     0.117 A 
ATOM      7  F1  <0> d          -2.392   3.854   0.005  0.00  0.00    -0.206 F 
ATOM      8  H1  <0> d          -2.180   1.256   0.014  0.00  0.00     0.088 H 
ATOM      9  H2  <0> d          -0.072  -0.004   0.034  0.00  0.00     0.087 H 
ATOM     10  H3  <0> d          -0.025   4.937  -0.003  0.00  0.00     0.089 H 
ENDROOT
BRANCH   4  11
ATOM     11  C7  <0> d           2.460   3.879   0.006  0.00  0.00     0.251 C 
ATOM     12  O1  <0> d           3.505   3.266  -0.099  0.00  0.00    -0.268 OA
ATOM     13  N1  <0> d           2.475   5.222   0.118  0.00  0.00    -0.366 N 
ATOM     14  H4  <0> d           1.641   5.711   0.201  0.00  0.00     0.159 HD
ATOM     15  H5  <0> d           3.319   5.700   0.115  0.00  0.00     0.159 HD
ENDBRANCH   4  11
BRANCH   3  16
ATOM     16  N2  <0> d           2.354   1.037   0.026  0.00  0.00    -0.398 N 
ATOM     17  H6  <0> d           2.380   0.131  -0.320  0.00  0.00     0.156 HD
ATOM     18  H7  <0> d           3.161   1.445   0.376  0.00  0.00     0.156 HD
ENDBRANCH   3  16
TORSDOF 2
