REMARK  6 active torsions:
REMARK  status: ('A' for Active; 'I' for Inactive)
REMARK    1  A    between atoms: C1_1  and  C2_2 
REMARK    2  A    between atoms: C2_2  and  C4_4 
REMARK    3  A    between atoms: C4_4  and  C5_5 
REMARK    4  A    between atoms: C5_5  and  C6_7 
REMARK    5  A    between atoms: C5_5  and  O1_10 
REMARK    6  A    between atoms: C6_7  and  C8_9 
ROOT
ATOM      1  C5  <0> d          -1.847   2.385  -1.413  0.00  0.00     0.059 C 
ATOM      2  H1  <0> d          -1.084   2.868  -2.025  0.00  0.00     0.090 H 
ENDROOT
BRANCH   1   3
ATOM      3  C4  <0> d          -1.333   2.239   0.021  0.00  0.00    -0.018 C 
ATOM      4  H7  <0> d          -2.059   1.678   0.610  0.00  0.00     0.043 H 
ATOM      5  H8  <0> d          -1.194   3.226   0.460  0.00  0.00     0.043 H 
BRANCH   3   6
ATOM      6  C2  <0> d          -0.018   1.503   0.010  0.00  0.00    -0.090 C 
ATOM      7  C3  <0> d           1.107   2.173   0.003  0.00  0.00    -0.119 C 
ATOM      8  H5  <0> d           2.050   1.646  -0.009  0.00  0.00     0.067 H 
ATOM      9  H6  <0> d           1.092   3.253   0.009  0.00  0.00     0.067 H 
BRANCH   6  10
ATOM     10  C1  <0> d           0.002  -0.004   0.002  0.00  0.00    -0.055 C 
ATOM     11  H2  <0> d           0.017  -0.373   1.028  0.00  0.00     0.033 H 
ATOM     12  H3  <0> d          -0.888  -0.377  -0.505  0.00  0.00     0.033 H 
ATOM     13  H4  <0> d           0.892  -0.352  -0.522  0.00  0.00     0.033 H 
ENDBRANCH   6  10
ENDBRANCH   3   6
ENDBRANCH   1   3
BRANCH   1  14
ATOM     14  C6  <0> d          -3.098   3.226  -1.415  0.00  0.00    -0.065 C 
ATOM     15  C7  <0> d          -3.101   4.394  -2.010  0.00  0.00    -0.117 C 
ATOM     16  H9  <0> d          -3.997   4.996  -2.011  0.00  0.00     0.067 H 
ATOM     17  H10 <0> d          -2.208   4.754  -2.498  0.00  0.00     0.067 H 
BRANCH  14  18
ATOM     18  C8  <0> d          -4.344   2.724  -0.734  0.00  0.00    -0.053 C 
ATOM     19  H11 <0> d          -4.151   1.743  -0.299  0.00  0.00     0.033 H 
ATOM     20  H12 <0> d          -4.633   3.420   0.054  0.00  0.00     0.033 H 
ATOM     21  H13 <0> d          -5.151   2.646  -1.463  0.00  0.00     0.033 H 
ENDBRANCH  14  18
ENDBRANCH   1  14
BRANCH   1  22
ATOM     22  O1  <0> d          -2.140   1.094  -1.949  0.00  0.00    -0.391 OA
ATOM     23  H14 <0> d          -2.813   0.606  -1.454  0.00  0.00     0.210 HD
ENDBRANCH   1  22
TORSDOF 6
