REMARK  5 active torsions:
REMARK  status: ('A' for Active; 'I' for Inactive)
REMARK    1  A    between atoms: C1_1  and  C2_2 
REMARK    2  A    between atoms: C2_2  and  C3_3 
REMARK    3  A    between atoms: C3_3  and  N1_4 
REMARK    4  A    between atoms: C5_6  and  C7_9 
REMARK    5  A    between atoms: C7_9  and  C8_11 
ROOT
ATOM      1  N1  <0> d          -1.409   4.931   2.410  0.00  0.00    -0.280 N 
ATOM      2  C4  <0> d          -1.495   3.602   2.574  0.00  0.00     0.013 A 
ATOM      3  C5  <0> d          -0.869   3.011   1.489  0.00  0.00     0.045 A 
ATOM      4  C6  <0> d          -0.409   4.057   0.654  0.00  0.00     0.036 A 
ATOM      5  N2  <0> d          -0.736   5.189   1.211  0.00  0.00    -0.184 NA
ATOM      6  H8  <0> d          -1.962   3.088   3.401  0.00  0.00     0.115 H 
ATOM      7  H9  <0> d           0.119   3.938  -0.280  0.00  0.00     0.118 H 
ENDROOT
BRANCH   1   8
ATOM      8  C3  <0> d          -1.938   5.941   3.329  0.00  0.00     0.016 C 
ATOM      9  H6  <0> d          -2.736   6.498   2.837  0.00  0.00     0.067 H 
ATOM     10  H7  <0> d          -2.332   5.452   4.220  0.00  0.00     0.067 H 
BRANCH   8  11
ATOM     11  C2  <0> d          -0.817   6.903   3.729  0.00  0.00    -0.052 C 
ATOM     12  H4  <0> d          -0.019   6.346   4.221  0.00  0.00     0.035 H 
ATOM     13  H5  <0> d          -0.423   7.392   2.839  0.00  0.00     0.035 H 
BRANCH  11  14
ATOM     14  C1  <0> d          -1.369   7.958   4.689  0.00  0.00    -0.075 C 
ATOM     15  H1  <0> d          -2.167   8.515   4.197  0.00  0.00     0.027 H 
ATOM     16  H2  <0> d          -1.764   7.469   5.580  0.00  0.00     0.027 H 
ATOM     17  H3  <0> d          -0.571   8.643   4.974  0.00  0.00     0.027 H 
ENDBRANCH  11  14
ENDBRANCH   8  11
ENDBRANCH   1   8
BRANCH   3  18
ATOM     18  C7  <0> d          -0.718   1.572   1.248  0.00  0.00     0.158 C 
ATOM     19  O1  <0> d          -1.161   0.773   2.046  0.00  0.00    -0.293 OA
BRANCH  18  20
ATOM     20  C8  <0> d          -0.013   1.086   0.008  0.00  0.00    -0.017 C 
ATOM     21  H10 <0> d           0.001   0.086   0.003  0.00  0.00     0.038 H 
ATOM     22  H11 <0> d           1.010   1.463   0.000  0.00  0.00     0.038 H 
ATOM     23  H12 <0> d          -0.540   1.447  -0.875  0.00  0.00     0.038 H 
ENDBRANCH  18  20
ENDBRANCH   3  18
TORSDOF 5
