REMARK  3 active torsions:
REMARK  status: ('A' for Active; 'I' for Inactive)
REMARK    1  A    between atoms: C1_1  and  C2_2 
REMARK    2  A    between atoms: C7_8  and  C8_9 
REMARK    3  A    between atoms: C7_8  and  O1_11 
ROOT
ATOM      1  C8  <0> d          -0.749   3.051   1.275  0.00  0.00    -0.079 C 
ATOM      2  C9  <0> d          -0.765   4.225   1.281  0.00  0.00    -0.151 C 
ATOM      3  H13 <0> d          -0.779   5.275   1.287  0.00  0.00     0.166 H 
ENDROOT
BRANCH   1   4
ATOM      4  C7  <0> d          -0.729   1.579   1.267  0.00  0.00     0.123 C 
ATOM      5  C2  <0> d          -2.164   1.050   1.278  0.00  0.00    -0.017 C 
ATOM      6  H1  <0> d          -2.149  -0.040   1.272  0.00  0.00     0.045 H 
ATOM      7  C3  <0> d          -2.904   1.556   0.038  0.00  0.00    -0.058 C 
ATOM      8  C4  <0> d          -2.188   1.063  -1.221  0.00  0.00    -0.064 C 
ATOM      9  H5  <0> d          -2.919   2.646   0.044  0.00  0.00     0.033 H 
ATOM     10  H6  <0> d          -3.927   1.179   0.046  0.00  0.00     0.033 H 
ATOM     11  C5  <0> d          -0.753   1.593  -1.232  0.00  0.00    -0.061 C 
ATOM     12  H7  <0> d          -2.715   1.424  -2.104  0.00  0.00     0.033 H 
ATOM     13  H8  <0> d          -2.173  -0.027  -1.227  0.00  0.00     0.033 H 
ATOM     14  C6  <0> d          -0.013   1.086   0.008  0.00  0.00    -0.025 C 
ATOM     15  H9  <0> d          -0.767   2.683  -1.226  0.00  0.00     0.033 H 
ATOM     16  H10 <0> d          -0.242   1.241  -2.128  0.00  0.00     0.033 H 
ATOM     17  H11 <0> d           0.002  -0.004   0.002  0.00  0.00     0.038 H 
ATOM     18  H12 <0> d           1.010   1.463   0.000  0.00  0.00     0.038 H 
BRANCH   5  19
ATOM     19  C1  <0> d          -2.880   1.543   2.537  0.00  0.00    -0.069 C 
ATOM     20  H2  <0> d          -3.903   1.166   2.544  0.00  0.00     0.028 H 
ATOM     21  H3  <0> d          -2.353   1.182   3.420  0.00  0.00     0.028 H 
ATOM     22  H4  <0> d          -2.895   2.633   2.542  0.00  0.00     0.028 H 
ENDBRANCH   5  19
BRANCH   4  23
ATOM     23  O1  <0> d          -0.038   1.106   2.425  0.00  0.00    -0.377 OA
ATOM     24  H14 <0> d           0.880   1.403   2.483  0.00  0.00     0.211 HD
ENDBRANCH   4  23
ENDBRANCH   1   4
TORSDOF 3
