REMARK  2 active torsions:
REMARK  status: ('A' for Active; 'I' for Inactive)
REMARK    1  A    between atoms: C3_3  and  C6_7 
REMARK    2  A    between atoms: C6_7  and  C7_8 
ROOT
ATOM      1  C7  <0> d          -0.013   1.086   0.008  0.00  0.00     0.018 C 
ATOM      2  C8  <0> d          -0.725   1.573  -1.185  0.00  0.00     0.059 C 
ATOM      3  N2  <0> d          -1.274   1.950  -2.105  0.00  0.00    -0.197 NA
ATOM      4  H7  <0> d           0.002  -0.004   0.002  0.00  0.00     0.055 H 
ATOM      5  H8  <0> d           1.010   1.463   0.000  0.00  0.00     0.055 H 
ENDROOT
BRANCH   1   6
ATOM      6  C6  <0> d          -0.729   1.579   1.267  0.00  0.00    -0.028 C 
ATOM      7  H5  <0> d          -0.744   2.669   1.273  0.00  0.00     0.041 H 
ATOM      8  H6  <0> d          -1.751   1.202   1.275  0.00  0.00     0.041 H 
BRANCH   6   9
ATOM      9  C3  <0> d           0.000   1.080   2.488  0.00  0.00    -0.040 A 
ATOM     10  C2  <0> d          -0.341  -0.135   3.061  0.00  0.00    -0.074 A 
ATOM     11  C1  <0> d           0.360  -0.557   4.180  0.00  0.00    -0.066 A 
ATOM     12  H2  <0> d          -1.132  -0.741   2.643  0.00  0.00     0.084 H 
ATOM     13  C5  <0> d           1.362   0.247   4.690  0.00  0.00     0.002 A 
ATOM     14  H1  <0> d           0.123  -1.500   4.651  0.00  0.00     0.085 H 
ATOM     15  N1  <0> d           1.656   1.400   4.122  0.00  0.00    -0.273 NA
ATOM     16  H4  <0> d           1.910  -0.072   5.564  0.00  0.00     0.114 H 
ATOM     17  C4  <0> d           1.013   1.831   3.054  0.00  0.00     0.008 A 
ATOM     18  H3  <0> d           1.282   2.781   2.616  0.00  0.00     0.115 H 
ENDBRANCH   6   9
ENDBRANCH   1   6
TORSDOF 2
