REMARK  2 active torsions:
REMARK  status: ('A' for Active; 'I' for Inactive)
REMARK    1  A    between atoms: C1_1  and  O1_2 
REMARK    2  A    between atoms: O1_2  and  C2_3 
ROOT
ATOM      1  C2  <0> d          -1.223   1.752   0.017  0.00  0.00     0.104 A 
ATOM      2  C3  <0> d          -0.013   1.076   0.008  0.00  0.00    -0.048 A 
ATOM      3  C4  <0> d           1.175   1.782   0.000  0.00  0.00    -0.077 A 
ATOM      4  C5  <0> d           1.162   3.165   0.008  0.00  0.00    -0.048 A 
ATOM      5  C6  <0> d          -0.044   3.849   0.023  0.00  0.00     0.107 A 
ATOM      6  C7  <0> d          -1.242   3.141   0.031  0.00  0.00     0.138 A 
ATOM      7  O2  <0> d          -2.276   4.033   0.046  0.00  0.00    -0.320 OA
ATOM      8  C8  <0> d          -1.705   5.290  -0.365  0.00  0.00     0.115 C 
ATOM      9  O3  <0> d          -0.326   5.184   0.033  0.00  0.00    -0.323 OA
ATOM     10  H4  <0> d           0.002  -0.004   0.002  0.00  0.00     0.087 H 
ATOM     11  H5  <0> d           2.117   1.253  -0.011  0.00  0.00     0.083 H 
ATOM     12  H6  <0> d           2.092   3.713   0.002  0.00  0.00     0.087 H 
ATOM     13  H7  <0> d          -1.817   5.405  -1.453  0.00  0.00     0.118 H 
ATOM     14  H8  <0> d          -2.225   6.113   0.147  0.00  0.00     0.118 H 
ENDROOT
BRANCH   1  15
ATOM     15  O1  <0> d          -2.392   1.056   0.019  0.00  0.00    -0.353 OA
BRANCH  15  16
ATOM     16  C1  <0> d          -2.297  -0.370   0.011  0.00  0.00     0.010 C 
ATOM     17  H1  <0> d          -3.308  -0.804   0.013  0.00  0.00     0.066 H 
ATOM     18  H2  <0> d          -1.751  -0.706   0.905  0.00  0.00     0.066 H 
ATOM     19  H3  <0> d          -1.760  -0.697  -0.892  0.00  0.00     0.066 H 
ENDBRANCH  15  16
ENDBRANCH   1  15
TORSDOF 2
