REMARK  1 active torsions:
REMARK  status: ('A' for Active; 'I' for Inactive)
REMARK    1  A    between atoms: C6_6  and  O1_7 
ROOT
ATOM      1  C1  <0> d          -0.017   1.401   0.010  0.00  0.00    -0.049 A 
ATOM      2  C2  <0> d           1.124   2.128   0.003  0.00  0.00    -0.048 A 
ATOM      3  C3  <0> d           2.411   1.431  -0.013  0.00  0.00     0.117 A 
ATOM      4  C4  <0> d           2.405  -0.045  -0.021  0.00  0.00     0.120 A 
ATOM      5  C5  <0> d           1.157  -0.715  -0.013  0.00  0.00    -0.019 A 
ATOM      6  C6  <0> d           0.002  -0.004   0.002  0.00  0.00     0.068 A 
ATOM      7  N1  <0> d           3.652  -0.456  -0.035  0.00  0.00    -0.103 NA
ATOM      8  O2  <0> d           4.489   0.688  -0.037  0.00  0.00    -0.106 OA
ATOM      9  N2  <0> d           3.658   1.836  -0.023  0.00  0.00    -0.103 NA
ATOM     10  H1  <0> d          -0.967   1.914   0.026  0.00  0.00     0.087 H 
ATOM     11  H2  <0> d           1.086   3.207   0.009  0.00  0.00     0.087 H 
ATOM     12  H3  <0> d           1.125  -1.794  -0.019  0.00  0.00     0.091 H 
ENDROOT
BRANCH   6  13
ATOM     13  O1  <0> d          -1.179  -0.675   0.010  0.00  0.00    -0.361 OA
ATOM     14  H4  <0> d          -1.529  -0.864  -0.872  0.00  0.00     0.217 HD
ENDBRANCH   6  13
TORSDOF 1
