REMARK  0 active torsions:
REMARK  status: ('A' for Active; 'I' for Inactive)
ROOT
ATOM      1  C1  <0> d          -0.016   1.357   0.009  0.00  0.00    -0.081 A 
ATOM      2  C2  <0> d           1.156   2.100   0.002  0.00  0.00    -0.082 A 
ATOM      3  C3  <0> d           2.375   1.449  -0.013  0.00  0.00    -0.064 A 
ATOM      4  C4  <0> d           2.404   0.076  -0.021  0.00  0.00     0.035 A 
ATOM      5  C5  <0> d           1.226  -0.705  -0.013  0.00  0.00     0.074 A 
ATOM      6  C6  <0> d           0.002  -0.004   0.002  0.00  0.00    -0.054 A 
ATOM      7  N1  <0> d           1.464  -2.033  -0.023  0.00  0.00    -0.253 NA
ATOM      8  C7  <0> d           2.669  -2.521  -0.038  0.00  0.00     0.041 A 
ATOM      9  S1  <0> d           3.669  -1.167  -0.040  0.00  0.00    -0.081 SA
ATOM     10  H1  <0> d          -0.966   1.871   0.026  0.00  0.00     0.083 H 
ATOM     11  H2  <0> d           1.116   3.179   0.008  0.00  0.00     0.083 H 
ATOM     12  H3  <0> d           3.295   2.014  -0.019  0.00  0.00     0.085 H 
ATOM     13  H4  <0> d          -0.928  -0.552   0.008  0.00  0.00     0.087 H 
ATOM     14  H5  <0> d           2.962  -3.561  -0.046  0.00  0.00     0.126 H 
ENDROOT
TORSDOF 0
