REMARK  1 active torsions:
REMARK  status: ('A' for Active; 'I' for Inactive)
REMARK    1  A    between atoms: N3_5  and  C3_6 
ROOT
ATOM      1  C3  <0> d          -1.159  -0.898   0.009  0.00  0.00     0.096 C 
ATOM      2  C4  <0> d          -1.073  -1.822  -1.134  0.00  0.00     0.081 C 
ATOM      3  N4  <0> d          -1.007  -2.535  -2.016  0.00  0.00    -0.195 NA
ATOM      4  H2  <0> d          -1.173  -1.468   0.937  0.00  0.00     0.090 H 
ATOM      5  H3  <0> d          -2.072  -0.308  -0.069  0.00  0.00     0.090 H 
ENDROOT
BRANCH   1   6
ATOM      6  N3  <0> d           0.002  -0.004   0.002  0.00  0.00    -0.247 N 
ATOM      7  C1  <0> d          -0.016   1.340   0.009  0.00  0.00     0.087 A 
ATOM      8  N1  <0> d           1.222   1.763  -0.000  0.00  0.00    -0.211 NA
ATOM      9  H1  <0> d          -0.899   1.962   0.025  0.00  0.00     0.146 H 
ATOM     10  C2  <0> d           2.055   0.723  -0.014  0.00  0.00     0.242 A 
ATOM     11  N2  <0> d           1.355  -0.382  -0.013  0.00  0.00    -0.137 NA
ATOM     12 Cl1  <0> d           3.789   0.819  -0.031  0.00  0.00    -0.040 Cl
ENDBRANCH   1   6
TORSDOF 1
