REMARK  0 active torsions:
REMARK  status: ('A' for Active; 'I' for Inactive)
ROOT
ATOM      1  C1  <0> d          -0.013   1.076   0.008  0.00  0.00     0.025 A 
ATOM      2  C2  <0> d           1.183   1.804   0.000  0.00  0.00     0.079 A 
ATOM      3  C3  <0> d           1.105   3.201   0.009  0.00  0.00     0.025 A 
ATOM      4  N1  <0> d          -0.086   3.775   0.023  0.00  0.00    -0.253 NA
ATOM      5  C4  <0> d          -1.187   3.050   0.030  0.00  0.00     0.086 A 
ATOM      6  N2  <0> d          -1.160   1.732   0.017  0.00  0.00    -0.253 NA
ATOM      7  C5  <0> d           2.451   1.137  -0.015  0.00  0.00     0.102 C 
ATOM      8  N3  <0> d           3.456   0.609  -0.027  0.00  0.00    -0.191 NA
ATOM      9  H1  <0> d           0.002  -0.004   0.002  0.00  0.00     0.117 H 
ATOM     10  H2  <0> d           2.003   3.801   0.003  0.00  0.00     0.117 H 
ATOM     11  H3  <0> d          -2.143   3.553   0.042  0.00  0.00     0.146 H 
ENDROOT
TORSDOF 0
