REMARK  4 active torsions:
REMARK  status: ('A' for Active; 'I' for Inactive)
REMARK    1  A    between atoms: C1_1  and  C2_2 
REMARK    2  A    between atoms: C1_1  and  O3_10 
REMARK    3  A    between atoms: C2_2  and  C3_4 
REMARK    4  A    between atoms: C2_2  and  N1_6 
REMARK       I    between atoms: N1_6  and  C4_7 
REMARK       I    between atoms: C4_7  and  N2_9 
ROOT
ATOM      1  C2  <0> d          -2.484   3.687   0.034  0.00  0.00     0.118 C 
ATOM      2  H1  <0> d          -3.215   3.132  -0.555  0.00  0.00     0.093 H 
ENDROOT
BRANCH   1   3
ATOM      3  C1  <0> d          -2.294   5.080  -0.569  0.00  0.00     0.045 C 
ATOM      4  H2  <0> d          -1.854   4.989  -1.562  0.00  0.00     0.077 H 
ATOM      5  H3  <0> d          -3.260   5.579  -0.643  0.00  0.00     0.077 H 
BRANCH   3   6
ATOM      6  O3  <0> d          -1.425   5.846   0.268  0.00  0.00    -0.398 OA
ATOM      7  H7  <0> d          -1.260   6.743  -0.054  0.00  0.00     0.209 HD
ENDBRANCH   3   6
ENDBRANCH   1   3
BRANCH   1   8
ATOM      8  C3  <0> d          -2.976   3.816   1.452  0.00  0.00     0.199 C 
ATOM      9  O1  <0> d          -2.326   3.358   2.362  0.00  0.00    -0.646 OA
ATOM     10  O4  <0> d          -4.137   4.440   1.706  0.00  0.00    -0.646 OA
ENDBRANCH   1   8
BRANCH   1  11
ATOM     11  N1  <0> d          -1.206   2.971   0.024  0.00  0.00    -0.327 N 
ATOM     12  C4  <0> d          -1.187   1.624   0.017  0.00  0.00     0.314 C 
ATOM     13  O2  <0> d          -2.232   1.002   0.018  0.00  0.00    -0.248 OA
ATOM     14  N2  <0> d          -0.011   0.966   0.007  0.00  0.00    -0.352 N 
ATOM     15  H5  <0> d           0.002  -0.004   0.002  0.00  0.00     0.160 HD
ATOM     16  H6  <0> d           0.822   1.462   0.002  0.00  0.00     0.160 HD
ATOM     17  H4  <0> d          -0.372   3.468   0.023  0.00  0.00     0.165 HD
ENDBRANCH   1  11
TORSDOF 4
