REMARK  2 active torsions:
REMARK  status: ('A' for Active; 'I' for Inactive)
REMARK    1  A    between atoms: C4_5  and  C5_7 
REMARK    2  A    between atoms: C5_7  and  O2_10 
ROOT
ATOM      1  C1  <0> d           0.115   1.526   0.240  0.00  0.00    -0.037 C 
ATOM      2  C2  <0> d           1.649   1.724   0.162  0.00  0.00     0.020 C 
ATOM      3  O1  <0> d           2.210   0.549   0.769  0.00  0.00    -0.391 OA
ATOM      4  C3  <0> d           1.280  -0.537   0.684  0.00  0.00     0.026 C 
ATOM      5  C4  <0> d           0.002  -0.004   0.002  0.00  0.00    -0.002 C 
ATOM      6  H1  <0> d           0.007  -0.232  -1.064  0.00  0.00     0.048 H 
ATOM      7  H2  <0> d          -0.267   1.800   1.224  0.00  0.00     0.036 H 
ATOM      8  H3  <0> d          -0.394   2.085  -0.545  0.00  0.00     0.036 H 
ATOM      9  H4  <0> d           1.968   1.802  -0.877  0.00  0.00     0.074 H 
ATOM     10  H5  <0> d           1.945   2.615   0.717  0.00  0.00     0.074 H 
ATOM     11  H6  <0> d           1.708  -1.344   0.089  0.00  0.00     0.075 H 
ATOM     12  H7  <0> d           1.042  -0.899   1.684  0.00  0.00     0.075 H 
ENDROOT
BRANCH   5  13
ATOM     13  C5  <0> d          -1.250  -0.569   0.675  0.00  0.00     0.064 A 
ATOM     14  C7  <0> d          -2.608  -0.109   0.141  0.00  0.00    -0.033 A 
ATOM     15  C6  <0> d          -2.118  -1.530  -0.140  0.00  0.00    -0.033 A 
ATOM     16  H10 <0> d          -3.418   0.011   0.861  0.00  0.00     0.037 H 
ATOM     17  H11 <0> d          -2.609   0.597  -0.689  0.00  0.00     0.037 H 
ATOM     18  H8  <0> d          -1.796  -1.760  -1.156  0.00  0.00     0.037 H 
ATOM     19  H9  <0> d          -2.605  -2.346   0.395  0.00  0.00     0.037 H 
BRANCH  13  20
ATOM     20  O2  <0> d          -1.140  -0.809   2.080  0.00  0.00    -0.389 OA
ATOM     21  H12 <0> d          -1.944  -1.166   2.482  0.00  0.00     0.210 HD
ENDBRANCH  13  20
ENDBRANCH   5  13
TORSDOF 2
