REMARK  3 active torsions:
REMARK  status: ('A' for Active; 'I' for Inactive)
REMARK    1  A    between atoms: C1_1  and  N1_2 
REMARK    2  A    between atoms: C2_3  and  C5_8 
REMARK    3  A    between atoms: C4_5  and  N3_7 
ROOT
ATOM      1  N1  <0> d          -3.379   2.124   0.030  0.00  0.00    -0.276 N 
ATOM      2  C2  <0> d          -2.725   3.304   0.033  0.00  0.00     0.038 A 
ATOM      3  C3  <0> d          -1.398   3.044   0.031  0.00  0.00    -0.014 A 
ATOM      4  C4  <0> d          -1.233   1.649   0.017  0.00  0.00     0.143 A 
ATOM      5  N2  <0> d          -2.424   1.099   0.020  0.00  0.00    -0.155 NA
ATOM      6  H4  <0> d          -0.606   3.778   0.037  0.00  0.00     0.092 H 
ENDROOT
BRANCH   2   7
ATOM      7  C5  <0> d          -3.361   4.670   0.043  0.00  0.00    -0.012 A 
ATOM      8  C7  <0> d          -2.647   5.776   0.824  0.00  0.00    -0.056 A 
ATOM      9  C6  <0> d          -2.639   5.792  -0.706  0.00  0.00    -0.056 A 
ATOM     10  H10 <0> d          -3.267   6.515   1.331  0.00  0.00     0.034 H 
ATOM     11  H11 <0> d          -1.718   5.515   1.329  0.00  0.00     0.034 H 
ATOM     12  H8  <0> d          -1.703   5.541  -1.207  0.00  0.00     0.034 H 
ATOM     13  H9  <0> d          -3.253   6.541  -1.205  0.00  0.00     0.034 H 
ATOM     14  H7  <0> d          -4.451   4.682   0.037  0.00  0.00     0.049 H 
ENDBRANCH   2   7
BRANCH   1  15
ATOM     15  C1  <0> d          -4.833   1.945   0.036  0.00  0.00     0.003 C 
ATOM     16  H1  <0> d          -5.188   1.895   1.065  0.00  0.00     0.059 H 
ATOM     17  H2  <0> d          -5.304   2.787  -0.471  0.00  0.00     0.059 H 
ATOM     18  H3  <0> d          -5.088   1.020  -0.481  0.00  0.00     0.059 H 
ENDBRANCH   1  15
BRANCH   4  19
ATOM     19  N3  <0> d          -0.011   0.966   0.007  0.00  0.00    -0.383 N 
ATOM     20  H5  <0> d           0.002  -0.004   0.002  0.00  0.00     0.157 HD
ATOM     21  H6  <0> d           0.822   1.462   0.002  0.00  0.00     0.157 HD
ENDBRANCH   4  19
TORSDOF 3
