REMARK  3 active torsions:
REMARK  status: ('A' for Active; 'I' for Inactive)
REMARK    1  A    between atoms: C1_1  and  C2_2 
REMARK    2  A    between atoms: C2_2  and  C3_3 
REMARK    3  A    between atoms: C6_6  and  C9_9 
ROOT
ATOM      1  C9  <0> d           2.763  -1.894   4.627  0.00  0.00    -0.078 C 
ATOM      2  C10 <0> d           3.331  -2.283   5.578  0.00  0.00    -0.149 C 
ATOM      3  H10 <0> d           3.839  -2.631   6.428  0.00  0.00     0.166 H 
ENDROOT
BRANCH   1   4
ATOM      4  C6  <0> d           2.070  -1.420   3.467  0.00  0.00     0.017 A 
ATOM      5  C5  <0> d           2.772  -1.165   2.287  0.00  0.00    -0.064 A 
ATOM      6  C4  <0> d           2.098  -0.709   1.173  0.00  0.00    -0.075 A 
ATOM      7  H7  <0> d           3.839  -1.325   2.247  0.00  0.00     0.085 H 
ATOM      8  C3  <0> d           0.731  -0.503   1.223  0.00  0.00    -0.058 A 
ATOM      9  H6  <0> d           2.639  -0.511   0.259  0.00  0.00     0.084 H 
ATOM     10  C8  <0> d           0.031  -0.749   2.391  0.00  0.00    -0.075 A 
ATOM     11  C7  <0> d           0.692  -1.211   3.510  0.00  0.00    -0.064 A 
ATOM     12  H9  <0> d          -1.036  -0.583   2.425  0.00  0.00     0.084 H 
ATOM     13  H8  <0> d           0.143  -1.406   4.420  0.00  0.00     0.085 H 
BRANCH   8  14
ATOM     14  C2  <0> d           0.002  -0.004   0.002  0.00  0.00    -0.044 C 
ATOM     15  H4  <0> d          -1.020  -0.381   0.010  0.00  0.00     0.039 H 
ATOM     16  H5  <0> d           0.512  -0.356  -0.895  0.00  0.00     0.039 H 
BRANCH  14  17
ATOM     17  C1  <0> d          -0.019   1.526   0.010  0.00  0.00    -0.073 C 
ATOM     18  H1  <0> d           1.004   1.903   0.003  0.00  0.00     0.028 H 
ATOM     19  H2  <0> d          -0.546   1.887  -0.873  0.00  0.00     0.028 H 
ATOM     20  H3  <0> d          -0.529   1.877   0.907  0.00  0.00     0.028 H 
ENDBRANCH  14  17
ENDBRANCH   8  14
ENDBRANCH   1   4
TORSDOF 3
