REMARK  2 active torsions:
REMARK  status: ('A' for Active; 'I' for Inactive)
REMARK    1  A    between atoms: C1_1  and  C2_2 
REMARK    2  A    between atoms: N1_6  and  C7_9 
ROOT
ATOM      1  C2  <0> d           0.002  -0.004   0.002  0.00  0.00     0.006 A 
ATOM      2  C3  <0> d           1.200  -0.655  -0.013  0.00  0.00    -0.071 A 
ATOM      3  C4  <0> d           2.387   0.092  -0.020  0.00  0.00    -0.067 A 
ATOM      4  C5  <0> d           2.333   1.444  -0.012  0.00  0.00    -0.018 A 
ATOM      5  N1  <0> d           1.140   2.091   0.002  0.00  0.00    -0.329 N 
ATOM      6  C6  <0> d          -0.017   1.401   0.010  0.00  0.00     0.253 A 
ATOM      7  O1  <0> d          -1.082   1.997   0.018  0.00  0.00    -0.267 OA
ATOM      8  H4  <0> d           1.235  -1.735  -0.019  0.00  0.00     0.084 H 
ATOM      9  H5  <0> d           3.342  -0.411  -0.032  0.00  0.00     0.085 H 
ATOM     10  H6  <0> d           3.250   2.015  -0.018  0.00  0.00     0.111 H 
ENDROOT
BRANCH   1  11
ATOM     11  C1  <0> d          -1.288  -0.783   0.011  0.00  0.00    -0.046 C 
ATOM     12  H1  <0> d          -1.609  -0.965  -1.015  0.00  0.00     0.033 H 
ATOM     13  H2  <0> d          -1.134  -1.736   0.518  0.00  0.00     0.033 H 
ATOM     14  H3  <0> d          -2.054  -0.212   0.535  0.00  0.00     0.033 H 
ENDBRANCH   1  11
BRANCH   5  15
ATOM     15  C7  <0> d           1.109   3.555   0.010  0.00  0.00    -0.012 C 
ATOM     16  H7  <0> d           1.111   3.914   1.040  0.00  0.00     0.057 H 
ATOM     17  H8  <0> d           1.987   3.940  -0.510  0.00  0.00     0.057 H 
ATOM     18  H9  <0> d           0.207   3.903  -0.494  0.00  0.00     0.057 H 
ENDBRANCH   5  15
TORSDOF 2
