REMARK  1 active torsions:
REMARK  status: ('A' for Active; 'I' for Inactive)
REMARK    1  A    between atoms: C1_1  and  C2_2 
ROOT
ATOM      1  C2  <0> d          -0.806   3.038   0.026  0.00  0.00    -0.016 A 
ATOM      2  C3  <0> d          -1.140   1.736   0.016  0.00  0.00    -0.015 A 
ATOM      3  N1  <0> d          -0.011   0.966   0.007  0.00  0.00    -0.363 N 
ATOM      4  H1  <0> d           0.002  -0.004   0.002  0.00  0.00     0.165 HD
ATOM      5  C4  <0> d           1.104   1.772   0.001  0.00  0.00     0.061 A 
ATOM      6  C5  <0> d           0.656   3.107   0.012  0.00  0.00     0.090 A 
ATOM      7  N2  <0> d           1.530   4.110   0.009  0.00  0.00    -0.258 NA
ATOM      8  C6  <0> d           2.826   3.890  -0.004  0.00  0.00     0.003 A 
ATOM      9  C7  <0> d           3.337   2.601  -0.016  0.00  0.00    -0.064 A 
ATOM     10  C8  <0> d           2.473   1.521  -0.013  0.00  0.00    -0.053 A 
ATOM     11  H5  <0> d          -2.150   1.355   0.019  0.00  0.00     0.112 H 
ATOM     12  H6  <0> d           3.506   4.729  -0.006  0.00  0.00     0.114 H 
ATOM     13  H7  <0> d           4.405   2.441  -0.027  0.00  0.00     0.085 H 
ATOM     14  H8  <0> d           2.850   0.509  -0.023  0.00  0.00     0.087 H 
ENDROOT
BRANCH   1  15
ATOM     15  C1  <0> d          -1.758   4.206   0.042  0.00  0.00    -0.048 C 
ATOM     16  H2  <0> d          -1.998   4.494  -0.982  0.00  0.00     0.033 H 
ATOM     17  H3  <0> d          -2.673   3.922   0.563  0.00  0.00     0.033 H 
ATOM     18  H4  <0> d          -1.293   5.047   0.557  0.00  0.00     0.033 H 
ENDBRANCH   1  15
TORSDOF 1
