REMARK  8 active torsions:
REMARK  status: ('A' for Active; 'I' for Inactive)
REMARK    1  A    between atoms: C1_1  and  C2_2 
REMARK    2  A    between atoms: C2_2  and  C3_3 
REMARK    3  A    between atoms: C3_3  and  C4_5 
REMARK    4  A    between atoms: C3_3  and  C5_6 
REMARK    5  A    between atoms: C5_6  and  C6_8 
REMARK    6  A    between atoms: C5_6  and  N1_12 
REMARK    7  A    between atoms: C6_8  and  O2_10 
REMARK    8  A    between atoms: O2_10  and  C7_11 
ROOT
ATOM      1  C3  <0> d           0.718  -0.497  -1.257  0.00  0.00    -0.019 C 
ATOM      2  H1  <0> d           0.244  -0.064  -2.138  0.00  0.00     0.043 H 
ENDROOT
BRANCH   1   3
ATOM      3  C2  <0> d           0.002  -0.004   0.002  0.00  0.00    -0.063 C 
ATOM      4  H6  <0> d           0.529  -0.365   0.885  0.00  0.00     0.033 H 
ATOM      5  H7  <0> d          -1.020  -0.381   0.010  0.00  0.00     0.033 H 
BRANCH   3   6
ATOM      6  C1  <0> d          -0.019   1.526   0.010  0.00  0.00    -0.076 C 
ATOM      7  H3  <0> d           1.004   1.903   0.003  0.00  0.00     0.027 H 
ATOM      8  H4  <0> d          -0.546   1.887  -0.873  0.00  0.00     0.027 H 
ATOM      9  H5  <0> d          -0.529   1.877   0.907  0.00  0.00     0.027 H 
ENDBRANCH   3   6
ENDBRANCH   1   3
BRANCH   1  10
ATOM     10  C4  <0> d           2.187  -0.073  -1.207  0.00  0.00    -0.070 C 
ATOM     11  H8  <0> d           2.661  -0.506  -0.326  0.00  0.00     0.028 H 
ATOM     12  H9  <0> d           2.697  -0.425  -2.104  0.00  0.00     0.028 H 
ATOM     13  H10 <0> d           2.250   1.014  -1.156  0.00  0.00     0.028 H 
ENDBRANCH   1  10
BRANCH   1  14
ATOM     14  C5  <0> d           0.630  -2.023  -1.329  0.00  0.00     0.216 C 
ATOM     15  H2  <0> d           1.104  -2.456  -0.448  0.00  0.00     0.104 H 
BRANCH  14  16
ATOM     16  C6  <0> d           1.336  -2.509  -2.568  0.00  0.00     0.292 C 
ATOM     17  O1  <0> d           0.697  -2.800  -3.552  0.00  0.00    -0.263 OA
BRANCH  16  18
ATOM     18  O2  <0> d           2.673  -2.619  -2.580  0.00  0.00    -0.325 OA
BRANCH  18  19
ATOM     19  C7  <0> d           3.276  -3.086  -3.789  0.00  0.00     0.013 C 
ATOM     20  H11 <0> d           2.898  -4.082  -4.022  0.00  0.00     0.067 H 
ATOM     21  H12 <0> d           3.031  -2.405  -4.604  0.00  0.00     0.067 H 
ATOM     22  H13 <0> d           4.357  -3.128  -3.663  0.00  0.00     0.067 H 
ENDBRANCH  18  19
ENDBRANCH  16  18
ENDBRANCH  14  16
BRANCH  14  23
ATOM     23  N1  <0> d          -0.780  -2.431  -1.376  0.00  0.00     0.092 N 
ATOM     24  H14 <0> d          -1.260  -2.173  -0.527  0.00  0.00     0.313 HD
ATOM     25  H15 <0> d          -1.242  -2.042  -2.185  0.00  0.00     0.313 HD
ENDBRANCH  14  23
ENDBRANCH   1  14
TORSDOF 8
