REMARK  1 active torsions:
REMARK  status: ('A' for Active; 'I' for Inactive)
REMARK    1  A    between atoms: C5_6  and  C6_7 
ROOT
ATOM      1  C1  <0> d          -0.107   1.852   2.403  0.00  0.00    -0.056 A 
ATOM      2  C2  <0> d          -0.830   2.322   3.483  0.00  0.00     0.002 A 
ATOM      3  N1  <0> d          -2.131   2.516   3.391  0.00  0.00    -0.273 NA
ATOM      4  C3  <0> d          -2.791   2.276   2.275  0.00  0.00     0.002 A 
ATOM      5  C4  <0> d          -2.134   1.810   1.152  0.00  0.00    -0.056 A 
ATOM      6  C5  <0> d          -0.766   1.594   1.210  0.00  0.00     0.010 A 
ATOM      7  H1  <0> d           0.957   1.691   2.486  0.00  0.00     0.086 H 
ATOM      8  H2  <0> d          -0.324   2.530   4.414  0.00  0.00     0.114 H 
ATOM      9  H3  <0> d          -3.857   2.446   2.237  0.00  0.00     0.114 H 
ATOM     10  H4  <0> d          -2.680   1.615   0.240  0.00  0.00     0.086 H 
ENDROOT
BRANCH   6  11
ATOM     11  C6  <0> d          -0.013   1.086   0.008  0.00  0.00     0.375 A 
ATOM     12  N3  <0> d           1.359   1.619  -0.002  0.00  0.00     0.127 N 
ATOM     13  C8  <0> d           1.488   2.371  -1.176  0.00  0.00     0.148 A 
ATOM     14  H8  <0> d           1.515   2.248   0.886  0.00  0.00     0.319 HD
ATOM     15  C7  <0> d           0.372   2.360  -1.872  0.00  0.00     0.232 A 
ATOM     16  H7  <0> d           2.301   1.943  -1.781  0.00  0.00     0.083 H 
ATOM     17  H9  <0> d           1.740   3.407  -0.904  0.00  0.00     0.083 H 
ATOM     18  N2  <0> d          -0.615   1.599  -1.233  0.00  0.00     0.354 N 
ATOM     19  H6  <0> d           0.152   2.851  -2.832  0.00  0.00     0.099 H 
ATOM     20  H5  <0> d          -0.025  -0.014   0.043  0.00  0.00     0.151 H 
ENDBRANCH   6  11
TORSDOF 1
