REMARK  1 active torsions:
REMARK  status: ('A' for Active; 'I' for Inactive)
REMARK    1  A    between atoms: C3_3  and  O1_11 
ROOT
ATOM      1  C1  <0> d           2.425   0.042  -0.021  0.00  0.00    -0.065 A 
ATOM      2  C2  <0> d           2.349   1.410  -0.013  0.00  0.00    -0.031 A 
ATOM      3  C3  <0> d           1.101   2.028   0.002  0.00  0.00     0.164 A 
ATOM      4  N1  <0> d          -0.016   1.324   0.009  0.00  0.00    -0.206 NA
ATOM      5  C4  <0> d           0.002  -0.004   0.002  0.00  0.00     0.140 A 
ATOM      6  C5  <0> d           1.232  -0.687  -0.013  0.00  0.00     0.011 A 
ATOM      7  C6  <0> d           0.908  -2.115  -0.018  0.00  0.00    -0.054 A 
ATOM      8  C7  <0> d          -0.431  -2.210  -0.006  0.00  0.00    -0.020 A 
ATOM      9  N2  <0> d          -0.987  -0.958   0.006  0.00  0.00    -0.350 N 
ATOM     10  H1  <0> d          -1.939  -0.771   0.016  0.00  0.00     0.166 HD
ATOM     11  H2  <0> d           3.381  -0.460  -0.032  0.00  0.00     0.085 H 
ATOM     12  H3  <0> d           3.250   2.005  -0.018  0.00  0.00     0.090 H 
ATOM     13  H4  <0> d           1.611  -2.934  -0.030  0.00  0.00     0.087 H 
ATOM     14  H5  <0> d          -0.987  -3.136  -0.006  0.00  0.00     0.111 H 
ENDROOT
BRANCH   3  15
ATOM     15  O1  <0> d           1.031   3.383   0.010  0.00  0.00    -0.345 OA
ATOM     16  H6  <0> d           1.019   3.771   0.896  0.00  0.00     0.219 HD
ENDBRANCH   3  15
TORSDOF 1
