REMARK  3 active torsions:
REMARK  status: ('A' for Active; 'I' for Inactive)
REMARK    1  A    between atoms: C1_1  and  C2_2 
REMARK    2  A    between atoms: C4_4  and  C8_9 
REMARK    3  A    between atoms: C5_5  and  C7_8 
ROOT
ATOM      1  C2  <0> d           1.162   2.038   0.002  0.00  0.00    -0.044 A 
ATOM      2  C3  <0> d           2.371   1.359  -0.013  0.00  0.00    -0.068 A 
ATOM      3  C4  <0> d           2.350  -0.027  -0.021  0.00  0.00    -0.037 A 
ATOM      4  C5  <0> d           1.133  -0.682  -0.012  0.00  0.00     0.036 A 
ATOM      5  N1  <0> d           0.002  -0.004   0.002  0.00  0.00    -0.265 NA
ATOM      6  C6  <0> d          -0.016   1.315   0.009  0.00  0.00     0.008 A 
ATOM      7  H4  <0> d           3.307   1.898  -0.020  0.00  0.00     0.085 H 
ATOM      8  H5  <0> d          -0.962   1.836   0.017  0.00  0.00     0.115 H 
ENDROOT
BRANCH   1   9
ATOM      9  C1  <0> d           1.132   3.544   0.011  0.00  0.00    -0.050 C 
ATOM     10  H1  <0> d           1.135   3.902   1.040  0.00  0.00     0.033 H 
ATOM     11  H2  <0> d           2.010   3.928  -0.509  0.00  0.00     0.033 H 
ATOM     12  H3  <0> d           0.230   3.893  -0.492  0.00  0.00     0.033 H 
ENDBRANCH   1   9
BRANCH   3  13
ATOM     13  C8  <0> d           3.638  -0.810  -0.036  0.00  0.00    -0.049 C 
ATOM     14  H9  <0> d           3.938  -0.993  -1.068  0.00  0.00     0.033 H 
ATOM     15  H10 <0> d           4.415  -0.240   0.473  0.00  0.00     0.033 H 
ATOM     16  H11 <0> d           3.491  -1.762   0.474  0.00  0.00     0.033 H 
ENDBRANCH   3  13
BRANCH   4  17
ATOM     17  C7  <0> d           1.098  -2.189  -0.021  0.00  0.00    -0.035 C 
ATOM     18  H6  <0> d           1.080  -2.546  -1.050  0.00  0.00     0.035 H 
ATOM     19  H7  <0> d           1.984  -2.575   0.483  0.00  0.00     0.035 H 
ATOM     20  H8  <0> d           0.204  -2.534   0.500  0.00  0.00     0.035 H 
ENDBRANCH   4  17
TORSDOF 3
