REMARK  1 active torsions:
REMARK  status: ('A' for Active; 'I' for Inactive)
REMARK    1  A    between atoms: C5_5  and  N1_7 
ROOT
ATOM      1  C1  <0> d          -3.155   4.041   0.037  0.00  0.00    -0.080 A 
ATOM      2  C2  <0> d          -1.807   4.371   0.041  0.00  0.00    -0.074 A 
ATOM      3  C3  <0> d          -0.855   3.381   0.028  0.00  0.00    -0.022 A 
ATOM      4  C4  <0> d          -1.233   2.035   0.018  0.00  0.00     0.066 A 
ATOM      5  C5  <0> d          -2.598   1.706   0.023  0.00  0.00     0.042 A 
ATOM      6  C6  <0> d          -3.549   2.719   0.032  0.00  0.00    -0.057 A 
ATOM      7  C7  <0> d          -0.014   1.212   0.009  0.00  0.00     0.254 A 
ATOM      8  O1  <0> d           0.002  -0.004   0.002  0.00  0.00    -0.268 OA
ATOM      9  N2  <0> d           1.079   1.994   0.003  0.00  0.00    -0.353 N 
ATOM     10  C8  <0> d           0.653   3.399   0.013  0.00  0.00     0.020 A 
ATOM     11  H1  <0> d          -3.900   4.824   0.045  0.00  0.00     0.083 H 
ATOM     12  H2  <0> d          -1.506   5.408   0.044  0.00  0.00     0.084 H 
ATOM     13  H3  <0> d          -4.600   2.470   0.035  0.00  0.00     0.086 H 
ATOM     14  H6  <0> d           1.997   1.682  -0.007  0.00  0.00     0.163 HD
ATOM     15  H7  <0> d           1.031   3.897   0.906  0.00  0.00     0.071 H 
ATOM     16  H8  <0> d           1.015   3.907  -0.880  0.00  0.00     0.071 H 
ENDROOT
BRANCH   5  17
ATOM     17  N1  <0> d          -2.995   0.375   0.017  0.00  0.00    -0.398 N 
ATOM     18  H4  <0> d          -2.329  -0.330   0.010  0.00  0.00     0.156 HD
ATOM     19  H5  <0> d          -3.939   0.151   0.020  0.00  0.00     0.156 HD
ENDBRANCH   5  17
TORSDOF 1
