REMARK  3 active torsions:
REMARK  status: ('A' for Active; 'I' for Inactive)
REMARK    1  A    between atoms: C1_1  and  C2_2 
REMARK    2  A    between atoms: C2_2  and  O1_3 
REMARK    3  A    between atoms: O1_3  and  C3_4 
ROOT
ATOM      1  C3  <0> d          -2.830   1.490   2.417  0.00  0.00     0.234 C 
ATOM      2  O2  <0> d          -2.887   2.925   2.474  0.00  0.00    -0.337 OA
ATOM      3  C4  <0> d          -2.847   3.244   3.884  0.00  0.00     0.044 C 
ATOM      4  C5  <0> d          -1.882   2.157   4.422  0.00  0.00     0.044 C 
ATOM      5  O3  <0> d          -2.201   1.008   3.612  0.00  0.00    -0.337 OA
ATOM      6  H6  <0> d          -3.840   1.085   2.346  0.00  0.00     0.179 H 
ATOM      7  H7  <0> d          -3.834   3.147   4.336  0.00  0.00     0.077 H 
ATOM      8  H8  <0> d          -2.441   4.242   4.046  0.00  0.00     0.077 H 
ATOM      9  H9  <0> d          -2.080   1.954   5.474  0.00  0.00     0.077 H 
ATOM     10  H10 <0> d          -0.845   2.457   4.275  0.00  0.00     0.077 H 
ENDROOT
BRANCH   1  11
ATOM     11  O1  <0> d          -2.070   1.085   1.277  0.00  0.00    -0.339 OA
BRANCH  11  12
ATOM     12  C2  <0> d          -0.729   1.579   1.267  0.00  0.00     0.021 C 
ATOM     13  H4  <0> d          -0.202   1.218   2.150  0.00  0.00     0.074 H 
ATOM     14  H5  <0> d          -0.744   2.669   1.273  0.00  0.00     0.074 H 
BRANCH  12  15
ATOM     15  C1  <0> d          -0.013   1.086   0.008  0.00  0.00    -0.056 C 
ATOM     16  H1  <0> d           0.002  -0.004   0.002  0.00  0.00     0.030 H 
ATOM     17  H2  <0> d           1.010   1.463   0.000  0.00  0.00     0.030 H 
ATOM     18  H3  <0> d          -0.540   1.447  -0.875  0.00  0.00     0.030 H 
ENDBRANCH  12  15
ENDBRANCH  11  12
ENDBRANCH   1  11
TORSDOF 3
