REMARK  5 active torsions:
REMARK  status: ('A' for Active; 'I' for Inactive)
REMARK    1  A    between atoms: C1_1  and  C2_2 
REMARK    2  A    between atoms: C2_2  and  N1_3 
REMARK    3  A    between atoms: N1_3  and  C3_4 
REMARK    4  A    between atoms: C5_6  and  C10_11 
REMARK    5  A    between atoms: C7_8  and  C9_10 
ROOT
ATOM      1  C3  <0> d          -1.198  -0.719   0.010  0.00  0.00     0.028 A 
ATOM      2  C4  <0> d          -2.411  -0.042   0.031  0.00  0.00    -0.052 A 
ATOM      3  C5  <0> d          -3.596  -0.752   0.033  0.00  0.00    -0.059 A 
ATOM      4  C6  <0> d          -3.575  -2.135   0.026  0.00  0.00    -0.071 A 
ATOM      5  C7  <0> d          -2.369  -2.811   0.010  0.00  0.00    -0.059 A 
ATOM      6  C8  <0> d          -1.181  -2.108   0.002  0.00  0.00    -0.052 A 
ATOM      7  H7  <0> d          -2.428   1.038   0.041  0.00  0.00     0.087 H 
ATOM      8  H8  <0> d          -4.503  -2.688   0.032  0.00  0.00     0.085 H 
ATOM      9  H9  <0> d          -0.239  -2.637  -0.011  0.00  0.00     0.087 H 
ENDROOT
BRANCH   1  10
ATOM     10  N1  <0> d           0.002  -0.004   0.002  0.00  0.00    -0.390 N 
ATOM     11  H6  <0> d           0.962  -0.541  -0.010  0.00  0.00     0.159 HD
BRANCH  10  12
ATOM     12  C2  <0> d          -0.018   1.461   0.010  0.00  0.00    -0.011 C 
ATOM     13  H4  <0> d          -0.533   1.815   0.915  0.00  0.00     0.063 H 
ATOM     14  H5  <0> d          -0.550   1.825  -0.881  0.00  0.00     0.063 H 
BRANCH  12  15
ATOM     15  C1  <0> d           1.418   1.990  -0.001  0.00  0.00    -0.061 C 
ATOM     16  H1  <0> d           1.403   3.090   0.005  0.00  0.00     0.029 H 
ATOM     17  H2  <0> d           1.932   1.636  -0.906  0.00  0.00     0.029 H 
ATOM     18  H3  <0> d           1.950   1.626   0.890  0.00  0.00     0.029 H 
ENDBRANCH  12  15
ENDBRANCH  10  12
ENDBRANCH   1  10
BRANCH   5  19
ATOM     19  C9  <0> d          -2.352  -4.318   0.001  0.00  0.00    -0.051 C 
ATOM     20  H10 <0> d          -1.310  -4.673  -0.011  0.00  0.00     0.033 H 
ATOM     21  H11 <0> d          -2.875  -4.686  -0.894  0.00  0.00     0.033 H 
ATOM     22  H12 <0> d          -2.857  -4.696   0.902  0.00  0.00     0.033 H 
ENDBRANCH   5  19
BRANCH   3  23
ATOM     23  C10 <0> d          -4.912  -0.019   0.050  0.00  0.00    -0.051 C 
ATOM     24  H13 <0> d          -5.737  -0.747   0.050  0.00  0.00     0.033 H 
ATOM     25  H14 <0> d          -4.987   0.621  -0.841  0.00  0.00     0.033 H 
ATOM     26  H15 <0> d          -4.973   0.604   0.955  0.00  0.00     0.033 H 
ENDBRANCH   3  23
TORSDOF 5
