REMARK  4 active torsions:
REMARK  status: ('A' for Active; 'I' for Inactive)
REMARK    1  A    between atoms: C1_1  and  C2_2 
REMARK    2  A    between atoms: C2_2  and  N1_3 
REMARK    3  A    between atoms: C3_4  and  C6_9 
REMARK    4  A    between atoms: C4_5  and  N3_8 
REMARK       I    between atoms: C6_9  and  N4_11 
ROOT
ATOM      1  N1  <0> d          -0.799   1.613  -1.129  0.00  0.00    -0.263 N 
ATOM      2  C3  <0> d          -1.670   0.864  -1.882  0.00  0.00     0.147 A 
ATOM      3  C4  <0> d          -2.004   1.653  -2.980  0.00  0.00     0.079 A 
ATOM      4  C5  <0> d          -1.284   2.847  -2.807  0.00  0.00     0.049 A 
ATOM      5  N2  <0> d          -0.600   2.747  -1.697  0.00  0.00    -0.182 NA
ATOM      6  H6  <0> d          -1.295   3.697  -3.472  0.00  0.00     0.121 H 
ENDROOT
BRANCH   1   7
ATOM      7  C2  <0> d          -0.185   1.180   0.129  0.00  0.00     0.014 C 
ATOM      8  H4  <0> d          -0.151   0.091   0.161  0.00  0.00     0.066 H 
ATOM      9  H5  <0> d           0.828   1.577   0.194  0.00  0.00     0.066 H 
BRANCH   7  10
ATOM     10  C1  <0> d          -1.013   1.700   1.306  0.00  0.00    -0.059 C 
ATOM     11  H1  <0> d          -2.026   1.302   1.240  0.00  0.00     0.029 H 
ATOM     12  H2  <0> d          -0.556   1.378   2.241  0.00  0.00     0.029 H 
ATOM     13  H3  <0> d          -1.047   2.789   1.273  0.00  0.00     0.029 H 
ENDBRANCH   7  10
ENDBRANCH   1   7
BRANCH   2  14
ATOM     14  C6  <0> d          -2.151  -0.487  -1.589  0.00  0.00     0.270 C 
ATOM     15  O1  <0> d          -3.207  -0.644  -1.004  0.00  0.00    -0.266 OA
ATOM     16  N4  <0> d          -1.425  -1.558  -1.968  0.00  0.00    -0.365 N 
ATOM     17  H9  <0> d          -0.550  -1.434  -2.366  0.00  0.00     0.159 HD
ATOM     18  H10 <0> d          -1.778  -2.453  -1.841  0.00  0.00     0.159 HD
ENDBRANCH   2  14
BRANCH   3  19
ATOM     19  N3  <0> d          -2.863   1.327  -4.027  0.00  0.00    -0.396 N 
ATOM     20  H7  <0> d          -3.017   1.962  -4.744  0.00  0.00     0.156 HD
ATOM     21  H8  <0> d          -3.308   0.465  -4.038  0.00  0.00     0.156 HD
ENDBRANCH   3  19
TORSDOF 4
