REMARK  1 active torsions:
REMARK  status: ('A' for Active; 'I' for Inactive)
REMARK    1  A    between atoms: C6_6  and  C7_7 
ROOT
ATOM      1  C7  <0> d          -0.013   1.086   0.008  0.00  0.00     0.038 C 
ATOM      2  C8  <0> d          -0.725   1.573  -1.185  0.00  0.00     0.063 C 
ATOM      3  N1  <0> d          -1.274   1.950  -2.105  0.00  0.00    -0.197 NA
ATOM      4  H4  <0> d           0.002  -0.004   0.002  0.00  0.00     0.062 H 
ATOM      5  H5  <0> d           1.010   1.463   0.000  0.00  0.00     0.062 H 
ENDROOT
BRANCH   1   6
ATOM      6  C6  <0> d          -0.718   1.572   1.248  0.00  0.00    -0.042 A 
ATOM      7  C1  <0> d          -0.359   2.779   1.818  0.00  0.00    -0.073 A 
ATOM      8  C2  <0> d          -1.009   3.229   2.952  0.00  0.00    -0.042 A 
ATOM      9  H1  <0> d           0.426   3.373   1.374  0.00  0.00     0.084 H 
ATOM     10  C3  <0> d          -2.011   2.467   3.524  0.00  0.00     0.154 A 
ATOM     11  H2  <0> d          -0.731   4.175   3.394  0.00  0.00     0.088 H 
ATOM     12  C4  <0> d          -2.368   1.253   2.956  0.00  0.00     0.155 A 
ATOM     13  F2  <0> d          -2.643   2.904   4.636  0.00  0.00    -0.203 F 
ATOM     14  C5  <0> d          -1.720   0.807   1.817  0.00  0.00    -0.036 A 
ATOM     15  F1  <0> d          -3.346   0.506   3.512  0.00  0.00    -0.203 F 
ATOM     16  H3  <0> d          -1.996  -0.138   1.374  0.00  0.00     0.089 H 
ENDBRANCH   1   6
TORSDOF 1
