REMARK  1 active torsions:
REMARK  status: ('A' for Active; 'I' for Inactive)
REMARK    1  A    between atoms: C3_4  and  C5_7 
ROOT
ATOM      1  C1  <0> d          -1.222   1.750   0.017  0.00  0.00     0.019 A 
ATOM      2  C2  <0> d          -0.013   1.076   0.008  0.00  0.00     0.020 A 
ATOM      3  N1  <0> d           1.122   1.750   0.001  0.00  0.00    -0.254 NA
ATOM      4  C3  <0> d           1.103   3.081   0.008  0.00  0.00     0.128 A 
ATOM      5  C4  <0> d          -0.119   3.756   0.022  0.00  0.00     0.034 A 
ATOM      6  N2  <0> d          -1.248   3.072   0.030  0.00  0.00    -0.269 NA
ATOM      7  H1  <0> d          -2.148   1.195   0.019  0.00  0.00     0.117 H 
ATOM      8  H2  <0> d           0.002  -0.004   0.002  0.00  0.00     0.117 H 
ATOM      9  H3  <0> d          -0.140   4.836   0.028  0.00  0.00     0.118 H 
ENDROOT
BRANCH   4  10
ATOM     10  C5  <0> d           2.371   3.841   0.000  0.00  0.00     0.222 A 
ATOM     11  O1  <0> d           3.615   3.321  -0.014  0.00  0.00    -0.280 OA
ATOM     12  C6  <0> d           4.461   4.364  -0.017  0.00  0.00     0.127 A 
ATOM     13  N4  <0> d           3.745   5.454  -0.005  0.00  0.00    -0.135 NA
ATOM     14  H4  <0> d           5.540   4.310  -0.026  0.00  0.00     0.158 H 
ATOM     15  N3  <0> d           2.495   5.147  -0.000  0.00  0.00    -0.120 NA
ENDBRANCH   4  10
TORSDOF 1
