REMARK  4 active torsions:
REMARK  status: ('A' for Active; 'I' for Inactive)
REMARK    1  A    between atoms: C1_1  and  C2_2 
REMARK    2  A    between atoms: C2_2  and  O1_4 
REMARK    3  A    between atoms: C2_2  and  O2_5 
REMARK    4  A    between atoms: O2_5  and  C3_6 
ROOT
ATOM      1  C2  <0> d          -0.072   1.435   2.406  0.00  0.00     0.134 C 
ATOM      2  H1  <0> d           0.103   0.360   2.373  0.00  0.00     0.128 H 
ENDROOT
BRANCH   1   3
ATOM      3  C1  <0> d          -0.994   1.767   3.581  0.00  0.00    -0.031 C 
ATOM      4  H2  <0> d          -1.169   2.842   3.613  0.00  0.00     0.034 H 
ATOM      5  H3  <0> d          -1.944   1.248   3.454  0.00  0.00     0.034 H 
ATOM      6  H4  <0> d          -0.526   1.446   4.511  0.00  0.00     0.034 H 
ENDBRANCH   1   3
BRANCH   1   7
ATOM      7  O1  <0> d           1.173   2.116   2.571  0.00  0.00    -0.371 OA
ATOM      8  H5  <0> d           1.647   1.879   3.381  0.00  0.00     0.212 HD
ENDBRANCH   1   7
BRANCH   1   9
ATOM      9  O2  <0> d          -0.686   1.856   1.185  0.00  0.00    -0.268 OA
BRANCH   9  10
ATOM     10  C3  <0> d          -0.017   1.395   0.010  0.00  0.00     0.527 C 
ATOM     11  F1  <0> d           0.002  -0.004   0.002  0.00  0.00    -0.144 F 
ATOM     12  F2  <0> d           1.296   1.879  -0.000  0.00  0.00    -0.144 F 
ATOM     13  F3  <0> d          -0.694   1.858  -1.124  0.00  0.00    -0.144 F 
ENDBRANCH   9  10
ENDBRANCH   1   9
TORSDOF 4
