REMARK  1 active torsions:
REMARK  status: ('A' for Active; 'I' for Inactive)
REMARK    1  A    between atoms: C4_4  and  C7_7 
ROOT
ATOM      1  C1  <0> d          -3.362  -2.606   0.021  0.00  0.00    -0.083 A 
ATOM      2  C2  <0> d          -3.551  -1.235   0.030  0.00  0.00    -0.082 A 
ATOM      3  C3  <0> d          -2.462  -0.387   0.024  0.00  0.00    -0.071 A 
ATOM      4  C4  <0> d          -1.172  -0.912   0.009  0.00  0.00    -0.005 A 
ATOM      5  C5  <0> d          -0.988  -2.293  -0.006  0.00  0.00    -0.071 A 
ATOM      6  C6  <0> d          -2.083  -3.133   0.007  0.00  0.00    -0.082 A 
ATOM      7  H1  <0> d          -4.216  -3.266   0.026  0.00  0.00     0.083 H 
ATOM      8  H2  <0> d          -4.551  -0.829   0.042  0.00  0.00     0.083 H 
ATOM      9  H3  <0> d          -2.611   0.683   0.031  0.00  0.00     0.084 H 
ATOM     10  H4  <0> d           0.010  -2.706  -0.022  0.00  0.00     0.084 H 
ATOM     11  H5  <0> d          -1.942  -4.204   0.001  0.00  0.00     0.083 H 
ENDROOT
BRANCH   4  12
ATOM     12  C7  <0> d           0.002  -0.004   0.002  0.00  0.00     0.096 A 
ATOM     13  N1  <0> d          -0.016   1.306   0.009  0.00  0.00    -0.128 NA
ATOM     14  O1  <0> d           1.104   1.763   0.001  0.00  0.00    -0.225 OA
ATOM     15  C9  <0> d           2.036   0.799  -0.013  0.00  0.00     0.046 A 
ATOM     16  C8  <0> d           1.374  -0.381  -0.013  0.00  0.00    -0.029 A 
ATOM     17  H7  <0> d           3.107   0.938  -0.022  0.00  0.00     0.126 H 
ATOM     18  H6  <0> d           1.791  -1.377  -0.022  0.00  0.00     0.090 H 
ENDBRANCH   4  12
TORSDOF 1
