REMARK  6 active torsions:
REMARK  status: ('A' for Active; 'I' for Inactive)
REMARK    1  A    between atoms: C1_1  and  C2_2 
REMARK    2  A    between atoms: C2_2  and  C3_3 
REMARK    3  A    between atoms: C3_3  and  C4_4 
REMARK    4  A    between atoms: C4_4  and  C5_5 
REMARK    5  A    between atoms: C6_6  and  C7_7 
REMARK    6  A    between atoms: C7_7  and  C8_8 
REMARK       I    between atoms: C8_8  and  N1_10 
ROOT
ATOM      1  C4  <0> d           1.317  -0.740  -0.015  0.00  0.00    -0.050 C 
ATOM      2  H8  <0> d           1.413  -1.291  -0.950  0.00  0.00     0.038 H 
ATOM      3  H9  <0> d           2.135  -0.024   0.071  0.00  0.00     0.038 H 
ENDROOT
BRANCH   1   4
ATOM      4  C3  <0> d           1.370  -1.717   1.161  0.00  0.00    -0.062 C 
ATOM      5  H6  <0> d           1.274  -1.166   2.097  0.00  0.00     0.033 H 
ATOM      6  H7  <0> d           0.552  -2.433   1.076  0.00  0.00     0.033 H 
BRANCH   4   7
ATOM      7  C2  <0> d           2.705  -2.464   1.145  0.00  0.00    -0.068 C 
ATOM      8  H4  <0> d           2.801  -3.015   0.209  0.00  0.00     0.032 H 
ATOM      9  H5  <0> d           3.523  -1.748   1.230  0.00  0.00     0.032 H 
BRANCH   7  10
ATOM     10  C1  <0> d           2.757  -3.441   2.321  0.00  0.00    -0.077 C 
ATOM     11  H1  <0> d           1.940  -4.157   2.235  0.00  0.00     0.027 H 
ATOM     12  H2  <0> d           3.708  -3.974   2.309  0.00  0.00     0.027 H 
ATOM     13  H3  <0> d           2.661  -2.890   3.256  0.00  0.00     0.027 H 
ENDBRANCH   7  10
ENDBRANCH   4   7
ENDBRANCH   1   4
BRANCH   1  14
ATOM     14  C5  <0> d           0.002  -0.004   0.002  0.00  0.00    -0.106 C 
ATOM     15  C6  <0> d          -0.016   1.306   0.009  0.00  0.00    -0.098 C 
ATOM     16  H11 <0> d           0.912   1.859   0.003  0.00  0.00     0.077 H 
ATOM     17  H10 <0> d          -0.926  -0.557   0.008  0.00  0.00     0.076 H 
BRANCH  15  18
ATOM     18  C7  <0> d          -1.331   2.042   0.019  0.00  0.00     0.024 C 
ATOM     19  H12 <0> d          -1.440   2.603  -0.908  0.00  0.00     0.053 H 
ATOM     20  H13 <0> d          -2.147   1.325   0.109  0.00  0.00     0.053 H 
BRANCH  18  21
ATOM     21  C8  <0> d          -1.366   2.992   1.189  0.00  0.00     0.218 C 
ATOM     22  O1  <0> d          -0.416   3.064   1.940  0.00  0.00    -0.274 OA
ATOM     23  N1  <0> d          -2.452   3.761   1.400  0.00  0.00    -0.370 N 
ATOM     24  H14 <0> d          -3.212   3.703   0.799  0.00  0.00     0.159 HD
ATOM     25  H15 <0> d          -2.475   4.372   2.152  0.00  0.00     0.159 HD
ENDBRANCH  18  21
ENDBRANCH  15  18
ENDBRANCH   1  14
TORSDOF 6
