REMARK  5 active torsions:
REMARK  status: ('A' for Active; 'I' for Inactive)
REMARK    1  A    between atoms: C1_1  and  C2_2 
REMARK    2  A    between atoms: C2_2  and  C3_3 
REMARK    3  A    between atoms: C3_3  and  C4_5 
REMARK    4  A    between atoms: N2_8  and  C8_11 
REMARK    5  A    between atoms: C6_9  and  C7_10 
ROOT
ATOM      1  C4  <0> d          -0.200   1.217   2.573  0.00  0.00     0.053 A 
ATOM      2  C5  <0> d           0.942   0.426   2.846  0.00  0.00     0.037 A 
ATOM      3  N1  <0> d           1.075   0.344   4.141  0.00  0.00    -0.184 NA
ATOM      4  N2  <0> d           0.037   1.057   4.751  0.00  0.00    -0.278 N 
ATOM      5  C6  <0> d          -0.738   1.588   3.794  0.00  0.00     0.041 A 
ATOM      6  H6  <0> d           1.591  -0.028   2.111  0.00  0.00     0.118 H 
ENDROOT
BRANCH   1   7
ATOM      7  C3  <0> d          -0.718   1.572   1.248  0.00  0.00     0.162 C 
ATOM      8  O1  <0> d          -1.715   2.256   1.150  0.00  0.00    -0.292 OA
BRANCH   7   9
ATOM      9  C2  <0> d          -0.013   1.086   0.008  0.00  0.00    -0.008 C 
ATOM     10  H4  <0> d           0.002  -0.014   0.002  0.00  0.00     0.044 H 
ATOM     11  H5  <0> d           1.019   1.466   0.000  0.00  0.00     0.044 H 
BRANCH   9  12
ATOM     12  C1  <0> d          -0.753   1.593  -1.232  0.00  0.00    -0.070 C 
ATOM     13  H1  <0> d          -0.238   1.238  -2.136  0.00  0.00     0.028 H 
ATOM     14  H2  <0> d          -0.768   2.693  -1.225  0.00  0.00     0.028 H 
ATOM     15  H3  <0> d          -1.785   1.212  -1.224  0.00  0.00     0.028 H 
ENDBRANCH   9  12
ENDBRANCH   7   9
ENDBRANCH   1   7
BRANCH   5  16
ATOM     16  C7  <0> d          -1.967   2.433   4.008  0.00  0.00    -0.035 C 
ATOM     17  H7  <0> d          -2.144   2.556   5.086  0.00  0.00     0.035 H 
ATOM     18  H8  <0> d          -2.836   1.939   3.547  0.00  0.00     0.035 H 
ATOM     19  H9  <0> d          -1.819   3.420   3.545  0.00  0.00     0.035 H 
ENDBRANCH   5  16
BRANCH   4  20
ATOM     20  C8  <0> d          -0.168   1.199   6.195  0.00  0.00     0.003 C 
ATOM     21  H10 <0> d          -1.062   1.814   6.379  0.00  0.00     0.059 H 
ATOM     22  H11 <0> d           0.710   1.686   6.644  0.00  0.00     0.059 H 
ATOM     23  H12 <0> d          -0.307   0.205   6.645  0.00  0.00     0.059 H 
ENDBRANCH   4  20
TORSDOF 5
