REMARK  2 active torsions:
REMARK  status: ('A' for Active; 'I' for Inactive)
REMARK    1  A    between atoms: C2_2  and  C3_3 
REMARK    2  A    between atoms: C8_9  and  O1_11 
ROOT
ATOM      1  C1  <0> d           0.018  -1.178  -0.004  0.00  0.00    -0.154 C 
ATOM      2  C2  <0> d           0.002  -0.004   0.002  0.00  0.00    -0.110 C 
ATOM      3  H3  <0> d           0.032  -2.228  -0.010  0.00  0.00     0.166 H 
ENDROOT
BRANCH   2   4
ATOM      4  C3  <0> d          -0.018   1.468   0.010  0.00  0.00     0.029 C 
ATOM      5  H1  <0> d           1.005   1.845   0.002  0.00  0.00     0.063 H 
ATOM      6  C8  <0> d          -0.758   1.975  -1.229  0.00  0.00     0.049 C 
ATOM      7  C7  <0> d          -0.779   3.504  -1.221  0.00  0.00    -0.040 C 
ATOM      8  H2  <0> d          -1.780   1.597  -1.222  0.00  0.00     0.084 H 
ATOM      9  C6  <0> d          -1.495   3.998   0.038  0.00  0.00    -0.063 C 
ATOM     10  H10 <0> d          -1.306   3.865  -2.104  0.00  0.00     0.036 H 
ATOM     11  H11 <0> d           0.244   3.882  -1.229  0.00  0.00     0.036 H 
ATOM     12  C5  <0> d          -0.755   3.491   1.277  0.00  0.00    -0.064 C 
ATOM     13  H8  <0> d          -2.517   3.621   0.045  0.00  0.00     0.033 H 
ATOM     14  H9  <0> d          -1.510   5.088   0.044  0.00  0.00     0.033 H 
ATOM     15  C4  <0> d          -0.734   1.961   1.269  0.00  0.00    -0.050 C 
ATOM     16  H6  <0> d          -1.265   3.843   2.174  0.00  0.00     0.033 H 
ATOM     17  H7  <0> d           0.268   3.868   1.270  0.00  0.00     0.033 H 
ATOM     18  H4  <0> d          -1.757   1.584   1.277  0.00  0.00     0.035 H 
ATOM     19  H5  <0> d          -0.207   1.600   2.152  0.00  0.00     0.035 H 
BRANCH   6  20
ATOM     20  O1  <0> d          -0.089   1.514  -2.405  0.00  0.00    -0.394 OA
ATOM     21  H12 <0> d          -0.504   1.798  -3.231  0.00  0.00     0.210 HD
ENDBRANCH   6  20
ENDBRANCH   2   4
TORSDOF 2
