REMARK  4 active torsions:
REMARK  status: ('A' for Active; 'I' for Inactive)
REMARK    1  A    between atoms: C1_1  and  C2_2 
REMARK    2  A    between atoms: C2_2  and  C9_11 
REMARK    3  A    between atoms: C4_4  and  C7_8 
REMARK    4  A    between atoms: C4_4  and  O2_10 
ROOT
ATOM      1  C7  <0> d           0.681   3.367   1.265  0.00  0.00    -0.079 C 
ATOM      2  C8  <0> d           1.771   3.804   1.289  0.00  0.00    -0.151 C 
ATOM      3  H10 <0> d           2.745   4.196   1.311  0.00  0.00     0.166 H 
ENDROOT
BRANCH   1   4
ATOM      4  C4  <0> d          -0.684   2.819   1.236  0.00  0.00     0.124 C 
ATOM      5  C3  <0> d          -1.448   3.409   0.046  0.00  0.00     0.002 C 
ATOM      6  C2  <0> d          -0.760   2.983  -1.254  0.00  0.00     0.057 C 
ATOM      7  H4  <0> d          -1.449   4.497   0.118  0.00  0.00     0.043 H 
ATOM      8  H5  <0> d          -2.474   3.042   0.052  0.00  0.00     0.043 H 
ATOM      9  O1  <0> d          -0.707   1.557  -1.318  0.00  0.00    -0.381 OA
ATOM     10  C6  <0> d           0.034   0.952  -0.257  0.00  0.00     0.024 C 
ATOM     11  C5  <0> d          -0.621   1.296   1.083  0.00  0.00    -0.006 C 
ATOM     12  H8  <0> d           0.043  -0.130  -0.391  0.00  0.00     0.074 H 
ATOM     13  H9  <0> d           1.057   1.327  -0.269  0.00  0.00     0.074 H 
ATOM     14  H6  <0> d          -1.631   0.885   1.111  0.00  0.00     0.042 H 
ATOM     15  H7  <0> d          -0.032   0.872   1.896  0.00  0.00     0.042 H 
BRANCH   6  16
ATOM     16  C1  <0> d           0.662   3.548  -1.288  0.00  0.00    -0.048 C 
ATOM     17  H1  <0> d           1.038   3.525  -2.311  0.00  0.00     0.031 H 
ATOM     18  H2  <0> d           0.652   4.577  -0.928  0.00  0.00     0.031 H 
ATOM     19  H3  <0> d           1.308   2.946  -0.649  0.00  0.00     0.031 H 
ENDBRANCH   6  16
BRANCH   6  20
ATOM     20  C9  <0> d          -1.551   3.520  -2.449  0.00  0.00    -0.048 C 
ATOM     21  H12 <0> d          -2.563   3.117  -2.424  0.00  0.00     0.031 H 
ATOM     22  H13 <0> d          -1.591   4.608  -2.400  0.00  0.00     0.031 H 
ATOM     23  H14 <0> d          -1.062   3.216  -3.374  0.00  0.00     0.031 H 
ENDBRANCH   6  20
BRANCH   4  24
ATOM     24  O2  <0> d          -1.360   3.152   2.450  0.00  0.00    -0.377 OA
ATOM     25  H11 <0> d          -0.930   2.809   3.246  0.00  0.00     0.211 HD
ENDBRANCH   4  24
ENDBRANCH   1   4
TORSDOF 4
