REMARK  0 active torsions:
REMARK  status: ('A' for Active; 'I' for Inactive)
ROOT
ATOM      1  C1  <0> d          -0.013   1.076   0.008  0.00  0.00    -0.080 A 
ATOM      2  C2  <0> d          -1.219   1.746   0.017  0.00  0.00    -0.063 A 
ATOM      3  C3  <0> d          -1.246   3.144   0.031  0.00  0.00     0.046 A 
ATOM      4  C4  <0> d          -0.050   3.860   0.023  0.00  0.00    -0.043 A 
ATOM      5  C5  <0> d           1.164   3.176   0.007  0.00  0.00     0.046 A 
ATOM      6  C6  <0> d           1.175   1.779   0.000  0.00  0.00    -0.063 A 
ATOM      7  C7  <0> d           2.397   3.904  -0.001  0.00  0.00     0.099 C 
ATOM      8  N1  <0> d           3.376   4.482  -0.008  0.00  0.00    -0.191 NA
ATOM      9  C8  <0> d          -2.498   3.838   0.046  0.00  0.00     0.099 C 
ATOM     10  N2  <0> d          -3.492   4.388   0.059  0.00  0.00    -0.191 NA
ATOM     11  H1  <0> d           0.002  -0.004   0.002  0.00  0.00     0.083 H 
ATOM     12  H2  <0> d          -2.145   1.190   0.018  0.00  0.00     0.085 H 
ATOM     13  H3  <0> d          -0.065   4.940   0.029  0.00  0.00     0.088 H 
ATOM     14  H4  <0> d           2.116   1.248  -0.011  0.00  0.00     0.085 H 
ENDROOT
TORSDOF 0
