REMARK  0 active torsions:
REMARK  status: ('A' for Active; 'I' for Inactive)
ROOT
ATOM      1  C1  <0> d          -0.013   1.086   0.008  0.00  0.00    -0.049 C 
ATOM      2  C2  <0> d          -0.715   1.572   1.273  0.00  0.00    -0.050 C 
ATOM      3  C3  <0> d          -2.054   0.844   1.436  0.00  0.00     0.046 C 
ATOM      4  S1  <0> d          -3.100   1.243   0.001  0.00  0.00     0.226 S 
ATOM      5  O1  <0> d          -3.395   2.633  -0.025  0.00  0.00    -0.206 OA
ATOM      6  O2  <0> d          -4.130   0.276  -0.146  0.00  0.00    -0.206 OA
ATOM      7  N1  <0> d          -2.084   0.993  -1.294  0.00  0.00    -0.320 N 
ATOM      8  C4  <0> d          -0.740   1.586  -1.239  0.00  0.00     0.003 C 
ATOM      9  H1  <0> d           0.002  -0.004   0.002  0.00  0.00     0.035 H 
ATOM     10  H2  <0> d           1.012   1.459   0.000  0.00  0.00     0.035 H 
ATOM     11  H3  <0> d          -0.085   1.368   2.139  0.00  0.00     0.034 H 
ATOM     12  H4  <0> d          -0.892   2.645   1.200  0.00  0.00     0.034 H 
ATOM     13  H5  <0> d          -2.544   1.177   2.351  0.00  0.00     0.058 H 
ATOM     14  H6  <0> d          -1.885  -0.232   1.480  0.00  0.00     0.058 H 
ATOM     15  H7  <0> d          -2.370   0.472  -2.060  0.00  0.00     0.172 HD
ATOM     16  H8  <0> d          -0.823   2.672  -1.200  0.00  0.00     0.065 H 
ATOM     17  H9  <0> d          -0.178   1.297  -2.127  0.00  0.00     0.065 H 
ENDROOT
TORSDOF 0
