REMARK  2 active torsions:
REMARK  status: ('A' for Active; 'I' for Inactive)
REMARK    1  A    between atoms: C2_2  and  C3_3 
REMARK    2  A    between atoms: C8_8  and  N1_9 
ROOT
ATOM      1  C1  <0> d           0.018  -1.178  -0.004  0.00  0.00    -0.149 C 
ATOM      2  C2  <0> d           0.002  -0.004   0.002  0.00  0.00    -0.075 C 
ATOM      3  H1  <0> d           0.032  -2.228  -0.010  0.00  0.00     0.166 H 
ENDROOT
BRANCH   2   4
ATOM      4  C3  <0> d          -0.017   1.428   0.010  0.00  0.00     0.046 A 
ATOM      5  C8  <0> d           1.185   2.148   0.002  0.00  0.00     0.044 A 
ATOM      6  C7  <0> d           1.155   3.535   0.004  0.00  0.00    -0.053 A 
ATOM      7  C6  <0> d          -0.054   4.203   0.025  0.00  0.00    -0.043 A 
ATOM      8  H4  <0> d           2.080   4.094  -0.006  0.00  0.00     0.087 H 
ATOM      9  C5  <0> d          -1.245   3.494   0.038  0.00  0.00     0.117 A 
ATOM     10  H3  <0> d          -0.072   5.283   0.031  0.00  0.00     0.088 H 
ATOM     11  C4  <0> d          -1.233   2.112   0.031  0.00  0.00    -0.025 A 
ATOM     12  F1  <0> d          -2.422   4.156   0.058  0.00  0.00    -0.206 F 
ATOM     13  H2  <0> d          -2.163   1.563   0.041  0.00  0.00     0.090 H 
BRANCH   5  14
ATOM     14  N1  <0> d           2.406   1.474  -0.013  0.00  0.00    -0.398 N 
ATOM     15  H5  <0> d           2.424   0.504  -0.018  0.00  0.00     0.156 HD
ATOM     16  H6  <0> d           3.237   1.974  -0.018  0.00  0.00     0.156 HD
ENDBRANCH   5  14
ENDBRANCH   2   4
TORSDOF 2
