REMARK  2 active torsions:
REMARK  status: ('A' for Active; 'I' for Inactive)
REMARK    1  A    between atoms: C1_1  and  N1_2 
REMARK       I    between atoms: N1_2  and  C2_3 
REMARK    2  A    between atoms: C2_3  and  C3_5 
ROOT
ATOM      1  C3  <0> d          -1.229   3.139   0.030  0.00  0.00     0.034 A 
ATOM      2  C4  <0> d          -1.224   1.741   0.017  0.00  0.00    -0.051 A 
ATOM      3  C5  <0> d          -0.013   1.076   0.008  0.00  0.00     0.003 A 
ATOM      4  N2  <0> d           1.125   1.742   0.001  0.00  0.00    -0.273 NA
ATOM      5  C6  <0> d           1.165   3.059   0.007  0.00  0.00     0.003 A 
ATOM      6  C7  <0> d           0.001   3.804   0.022  0.00  0.00    -0.051 A 
ATOM      7  H5  <0> d          -2.152   1.189   0.019  0.00  0.00     0.087 H 
ATOM      8  H6  <0> d           0.002  -0.004   0.002  0.00  0.00     0.114 H 
ATOM      9  H7  <0> d           2.120   3.563   0.000  0.00  0.00     0.114 H 
ATOM     10  H8  <0> d           0.041   4.883   0.026  0.00  0.00     0.087 H 
ENDROOT
BRANCH   1  11
ATOM     11  C2  <0> d          -2.503   3.895   0.045  0.00  0.00     0.251 C 
ATOM     12  N1  <0> d          -3.678   3.235   0.053  0.00  0.00    -0.361 N 
ATOM     13  H4  <0> d          -3.690   2.265   0.048  0.00  0.00     0.162 HD
ATOM     14  O1  <0> d          -2.488   5.110   0.051  0.00  0.00    -0.268 OA
BRANCH  12  15
ATOM     15  C1  <0> d          -4.938   3.983   0.068  0.00  0.00    -0.018 C 
ATOM     16  H1  <0> d          -4.980   4.606   0.961  0.00  0.00     0.056 H 
ATOM     17  H2  <0> d          -4.996   4.615  -0.819  0.00  0.00     0.056 H 
ATOM     18  H3  <0> d          -5.775   3.285   0.072  0.00  0.00     0.056 H 
ENDBRANCH  12  15
ENDBRANCH   1  11
TORSDOF 2
