REMARK  4 active torsions:
REMARK  status: ('A' for Active; 'I' for Inactive)
REMARK    1  A    between atoms: C1_1  and  C2_2 
REMARK    2  A    between atoms: C2_2  and  C3_3 
REMARK    3  A    between atoms: C3_3  and  C4_4 
REMARK    4  A    between atoms: C6_8  and  C7_11 
ROOT
ATOM      1  C4  <0> d           1.375   1.822  -0.001  0.00  0.00     0.131 C 
ATOM      2  H1  <0> d           1.800   1.737   0.999  0.00  0.00     0.129 H 
ATOM      3  O1  <0> d          -0.018   1.439   0.010  0.00  0.00    -0.359 OA
ATOM      4  C5  <0> d           0.002  -0.004   0.002  0.00  0.00     0.046 C 
ATOM      5  C6  <0> d           1.366  -0.380  -0.610  0.00  0.00     0.058 C 
ATOM      6  H2  <0> d           1.959  -0.950   0.105  0.00  0.00     0.086 H 
ATOM      7  O2  <0> d           2.005   0.882  -0.898  0.00  0.00    -0.354 OA
ATOM      8  H10 <0> d          -0.076  -0.390   1.018  0.00  0.00     0.078 H 
ATOM      9  H11 <0> d          -0.809  -0.391  -0.614  0.00  0.00     0.078 H 
ENDROOT
BRANCH   1  10
ATOM     10  C3  <0> d           1.531   3.249  -0.529  0.00  0.00    -0.019 C 
ATOM     11  H8  <0> d           2.590   3.482  -0.640  0.00  0.00     0.040 H 
ATOM     12  H9  <0> d           1.037   3.335  -1.498  0.00  0.00     0.040 H 
BRANCH  10  13
ATOM     13  C2  <0> d           0.893   4.230   0.456  0.00  0.00    -0.064 C 
ATOM     14  H6  <0> d          -0.166   3.998   0.567  0.00  0.00     0.032 H 
ATOM     15  H7  <0> d           1.386   4.145   1.425  0.00  0.00     0.032 H 
BRANCH  13  16
ATOM     16  C1  <0> d           1.049   5.658  -0.072  0.00  0.00    -0.076 C 
ATOM     17  H3  <0> d           0.555   5.743  -1.040  0.00  0.00     0.027 H 
ATOM     18  H4  <0> d           0.594   6.357   0.630  0.00  0.00     0.027 H 
ATOM     19  H5  <0> d           2.108   5.891  -0.182  0.00  0.00     0.027 H 
ENDBRANCH  13  16
ENDBRANCH  10  13
ENDBRANCH   1  10
BRANCH   5  20
ATOM     20  C7  <0> d           1.168  -1.184  -1.897  0.00  0.00    -0.050 C 
ATOM     21  H12 <0> d           0.608  -0.587  -2.616  0.00  0.00     0.031 H 
ATOM     22  H13 <0> d           2.140  -1.442  -2.317  0.00  0.00     0.031 H 
ATOM     23  H14 <0> d           0.616  -2.096  -1.674  0.00  0.00     0.031 H 
ENDBRANCH   5  20
TORSDOF 4
