REMARK  5 active torsions:
REMARK  status: ('A' for Active; 'I' for Inactive)
REMARK    1  A    between atoms: C1_1  and  C2_2 
REMARK    2  A    between atoms: C2_2  and  C3_3 
REMARK    3  A    between atoms: C3_3  and  C4_4 
REMARK    4  A    between atoms: C4_4  and  C5_6 
REMARK    5  A    between atoms: C6_7  and  C7_8 
ROOT
ATOM      1  C3  <0> d          -1.330   1.945   0.019  0.00  0.00     0.002 C 
ATOM      2  H6  <0> d          -1.387   2.514   0.839  0.00  0.00     0.045 H 
ATOM      3  H7  <0> d          -1.400   2.575  -0.867  0.00  0.00     0.045 H 
ENDROOT
BRANCH   1   4
ATOM      4  C2  <0> d          -2.479   0.935   0.019  0.00  0.00    -0.061 C 
ATOM      5  H4  <0> d          -2.417   0.314  -0.875  0.00  0.00     0.033 H 
ATOM      6  H5  <0> d          -2.408   0.304   0.905  0.00  0.00     0.033 H 
BRANCH   4   7
ATOM      7  C1  <0> d          -3.814   1.682   0.029  0.00  0.00    -0.076 C 
ATOM      8  H1  <0> d          -3.876   2.303   0.923  0.00  0.00     0.027 H 
ATOM      9  H2  <0> d          -3.885   2.312  -0.857  0.00  0.00     0.027 H 
ATOM     10  H3  <0> d          -4.633   0.962   0.029  0.00  0.00     0.027 H 
ENDBRANCH   4   7
ENDBRANCH   1   4
BRANCH   1  11
ATOM     11  C4  <0> d          -0.014   1.209   0.009  0.00  0.00     0.202 C 
ATOM     12  O1  <0> d           0.002  -0.004   0.002  0.00  0.00    -0.283 OA
BRANCH  11  13
ATOM     13  C5  <0> d           1.216   1.942   0.001  0.00  0.00    -0.029 C 
ATOM     14  C6  <0> d           2.224   2.543  -0.005  0.00  0.00    -0.103 C 
BRANCH  14  15
ATOM     15  C7  <0> d           3.489   3.296  -0.014  0.00  0.00    -0.021 C 
ATOM     16  H8  <0> d           3.276   4.365  -0.006  0.00  0.00     0.044 H 
ATOM     17  H9  <0> d           4.073   3.036   0.870  0.00  0.00     0.044 H 
ATOM     18  H10 <0> d           4.056   3.045  -0.910  0.00  0.00     0.044 H 
ENDBRANCH  14  15
ENDBRANCH  11  13
ENDBRANCH   1  11
TORSDOF 5
