REMARK  5 active torsions:
REMARK  status: ('A' for Active; 'I' for Inactive)
REMARK    1  A    between atoms: C3_3  and  O2_11 
REMARK    2  A    between atoms: C6_6  and  C7_7 
REMARK    3  A    between atoms: C7_7  and  C8_8 
REMARK    4  A    between atoms: C8_8  and  C9_9 
REMARK    5  A    between atoms: C9_9  and  O1_10 
ROOT
ATOM      1  C1  <0> d           0.002  -0.004   0.002  0.00  0.00    -0.074 A 
ATOM      2  C2  <0> d          -0.017   1.377   0.010  0.00  0.00    -0.051 A 
ATOM      3  C3  <0> d           1.176   2.086   0.002  0.00  0.00     0.065 A 
ATOM      4  C4  <0> d           2.385   1.405  -0.013  0.00  0.00    -0.051 A 
ATOM      5  C5  <0> d           2.398   0.024  -0.021  0.00  0.00    -0.074 A 
ATOM      6  C6  <0> d           1.208  -0.680  -0.013  0.00  0.00    -0.058 A 
ATOM      7  H1  <0> d          -0.926  -0.556   0.008  0.00  0.00     0.084 H 
ATOM      8  H2  <0> d          -0.959   1.905   0.017  0.00  0.00     0.087 H 
ATOM      9  H3  <0> d           3.314   1.955  -0.018  0.00  0.00     0.087 H 
ATOM     10  H4  <0> d           3.339  -0.506  -0.033  0.00  0.00     0.084 H 
ENDROOT
BRANCH   6  11
ATOM     11  C7  <0> d           1.226  -2.187  -0.021  0.00  0.00    -0.039 C 
ATOM     12  H5  <0> d           2.125  -2.543   0.482  0.00  0.00     0.040 H 
ATOM     13  H6  <0> d           0.345  -2.563   0.500  0.00  0.00     0.040 H 
BRANCH  11  14
ATOM     14  C8  <0> d           1.217  -2.690  -1.466  0.00  0.00    -0.042 C 
ATOM     15  H7  <0> d           0.318  -2.334  -1.969  0.00  0.00     0.036 H 
ATOM     16  H8  <0> d           2.098  -2.313  -1.986  0.00  0.00     0.036 H 
BRANCH  14  17
ATOM     17  C9  <0> d           1.235  -4.220  -1.474  0.00  0.00     0.017 C 
ATOM     18  H9  <0> d           2.134  -4.575  -0.971  0.00  0.00     0.073 H 
ATOM     19  H10 <0> d           0.355  -4.596  -0.953  0.00  0.00     0.073 H 
BRANCH  17  20
ATOM     20  O1  <0> d           1.228  -4.689  -2.823  0.00  0.00    -0.401 OA
ATOM     21  H11 <0> d           1.238  -5.653  -2.905  0.00  0.00     0.209 HD
ENDBRANCH  17  20
ENDBRANCH  14  17
ENDBRANCH  11  14
ENDBRANCH   6  11
BRANCH   3  22
ATOM     22  O2  <0> d           1.160   3.445   0.009  0.00  0.00    -0.361 OA
ATOM     23  H12 <0> d           1.164   3.834   0.894  0.00  0.00     0.217 HD
ENDBRANCH   3  22
TORSDOF 5
