REMARK  1 active torsions:
REMARK  status: ('A' for Active; 'I' for Inactive)
REMARK    1  A    between atoms: C5_9  and  N5_11 
ROOT
ATOM      1  C1  <0> d          -0.016   1.319   0.009  0.00  0.00     0.051 A 
ATOM      2  C2  <0> d           1.190   2.003   0.002  0.00  0.00     0.100 A 
ATOM      3  C3  <0> d           2.389   1.264  -0.014  0.00  0.00     0.198 A 
ATOM      4  N1  <0> d           3.397   2.157  -0.019  0.00  0.00    -0.222 NA
ATOM      5  C4  <0> d           2.914   3.369  -0.009  0.00  0.00     0.067 A 
ATOM      6  N2  <0> d           1.562   3.333   0.004  0.00  0.00    -0.346 N 
ATOM      7  H1  <0> d           0.966   4.098   0.014  0.00  0.00     0.167 HD
ATOM      8  N3  <0> d           2.321  -0.068  -0.020  0.00  0.00    -0.041 NA
ATOM      9  C5  <0> d           1.147  -0.676  -0.012  0.00  0.00     0.722 A 
ATOM     10  N4  <0> d           0.002  -0.004   0.002  0.00  0.00    -0.073 NA
ATOM     11  H2  <0> d          -0.953   1.857   0.026  0.00  0.00     0.119 H 
ATOM     12  H3  <0> d           3.508   4.271  -0.011  0.00  0.00     0.143 H 
ENDROOT
BRANCH   9  13
ATOM     13  N5  <0> d           1.110  -2.061  -0.019  0.00  0.00    -0.231 N 
ATOM     14  H4  <0> d           1.937  -2.568  -0.030  0.00  0.00     0.174 HD
ATOM     15  H5  <0> d           0.258  -2.524  -0.013  0.00  0.00     0.174 HD
ENDBRANCH   9  13
TORSDOF 1
