REMARK  2 active torsions:
REMARK  status: ('A' for Active; 'I' for Inactive)
REMARK    1  A    between atoms: C4_5  and  C8_11 
REMARK    2  A    between atoms: C8_11  and  O1_12 
ROOT
ATOM      1  C1  <0> d           3.036   3.707   1.363  0.00  0.00    -0.052 C 
ATOM      2  C2  <0> d           1.785   4.492   1.903  0.00  0.00    -0.037 C 
ATOM      3  H1  <0> d           1.782   4.735   2.966  0.00  0.00     0.046 H 
ATOM      4  C3  <0> d           0.631   3.576   1.384  0.00  0.00    -0.053 C 
ATOM      5  C4  <0> d           1.145   3.085   0.008  0.00  0.00    -0.026 C 
ATOM      6  H2  <0> d           0.479   3.412  -0.791  0.00  0.00     0.044 H 
ATOM      7  C5  <0> d           2.543   3.767  -0.129  0.00  0.00    -0.032 C 
ATOM      8  H3  <0> d           3.207   3.360  -0.892  0.00  0.00     0.046 H 
ATOM      9  C6  <0> d           2.220   5.263  -0.238  0.00  0.00    -0.102 C 
ATOM     10  C7  <0> d           1.783   5.680   0.934  0.00  0.00    -0.102 C 
ATOM     11  H4  <0> d           3.087   2.688   1.745  0.00  0.00     0.035 H 
ATOM     12  H5  <0> d           3.968   4.251   1.517  0.00  0.00     0.035 H 
ATOM     13  H6  <0> d          -0.289   4.147   1.268  0.00  0.00     0.034 H 
ATOM     14  H7  <0> d           0.478   2.733   2.058  0.00  0.00     0.034 H 
ATOM     15  H8  <0> d           2.331   5.870  -1.123  0.00  0.00     0.077 H 
ATOM     16  H9  <0> d           1.476   6.688   1.171  0.00  0.00     0.076 H 
ENDROOT
BRANCH   5  17
ATOM     17  C8  <0> d           1.286   1.562  -0.002  0.00  0.00     0.021 C 
ATOM     18  H10 <0> d           1.840   1.243   0.881  0.00  0.00     0.074 H 
ATOM     19  H11 <0> d           1.823   1.252  -0.899  0.00  0.00     0.074 H 
BRANCH  17  20
ATOM     20  O1  <0> d          -0.011   0.963   0.007  0.00  0.00    -0.400 OA
ATOM     21  H12 <0> d           0.002  -0.004   0.002  0.00  0.00     0.209 HD
ENDBRANCH  17  20
ENDBRANCH   5  17
TORSDOF 2
