REMARK  4 active torsions:
REMARK  status: ('A' for Active; 'I' for Inactive)
REMARK    1  A    between atoms: C1_1  and  N1_2 
REMARK    2  A    between atoms: C5_6  and  C6_7 
REMARK    3  A    between atoms: C6_7  and  C7_8 
REMARK    4  A    between atoms: C7_8  and  C8_9 
ROOT
ATOM      1  N1  <0> d          -0.304  -0.045   3.196  0.00  0.00    -0.364 N 
ATOM      2  C2  <0> d           0.580  -0.165   4.227  0.00  0.00    -0.021 A 
ATOM      3  C3  <0> d           1.431   0.880   4.177  0.00  0.00    -0.066 A 
ATOM      4  C4  <0> d           1.062   1.672   3.072  0.00  0.00    -0.060 A 
ATOM      5  C5  <0> d           0.000   1.080   2.488  0.00  0.00     0.011 A 
ATOM      6  H4  <0> d           0.594  -0.958   4.960  0.00  0.00     0.111 H 
ATOM      7  H5  <0> d           2.244   1.075   4.860  0.00  0.00     0.085 H 
ATOM      8  H6  <0> d           1.542   2.584   2.750  0.00  0.00     0.086 H 
ENDROOT
BRANCH   5   9
ATOM      9  C6  <0> d          -0.729   1.579   1.267  0.00  0.00    -0.018 C 
ATOM     10  H7  <0> d          -1.761   1.198   1.275  0.00  0.00     0.043 H 
ATOM     11  H8  <0> d          -0.744   2.679   1.273  0.00  0.00     0.043 H 
BRANCH   9  12
ATOM     12  C7  <0> d          -0.013   1.086   0.008  0.00  0.00     0.021 C 
ATOM     13  H9  <0> d           1.019   1.467   0.000  0.00  0.00     0.049 H 
ATOM     14  H10 <0> d           0.002  -0.014   0.002  0.00  0.00     0.049 H 
BRANCH  12  15
ATOM     15  C8  <0> d          -0.742   1.585  -1.213  0.00  0.00     0.172 C 
ATOM     16  O1  <0> d          -1.732   2.266  -1.089  0.00  0.00    -0.648 OA
ATOM     17  O2  <0> d          -0.290   1.274  -2.438  0.00  0.00    -0.648 OA
ENDBRANCH  12  15
ENDBRANCH   9  12
ENDBRANCH   5   9
BRANCH   1  18
ATOM     18  C1  <0> d          -1.397  -0.973   2.896  0.00  0.00    -0.015 C 
ATOM     19  H1  <0> d          -1.401  -1.786   3.636  0.00  0.00     0.057 H 
ATOM     20  H2  <0> d          -1.256  -1.393   1.889  0.00  0.00     0.057 H 
ATOM     21  H3  <0> d          -2.356  -0.435   2.938  0.00  0.00     0.057 H 
ENDBRANCH   1  18
TORSDOF 4
