REMARK  2 active torsions:
REMARK  status: ('A' for Active; 'I' for Inactive)
REMARK    1  A    between atoms: C1_1  and  O1_2 
REMARK    2  A    between atoms: O1_2  and  C2_3 
ROOT
ATOM      1  C2  <0> d          -2.215   1.325   1.128  0.00  0.00     0.134 C 
ATOM      2  N1  <0> d          -2.802   1.050   0.032  0.00  0.00    -0.271 NA
ATOM      3  C3  <0> d          -2.144   0.934  -1.262  0.00  0.00     0.017 C 
ATOM      4  C4  <0> d          -0.767   1.600  -1.225  0.00  0.00    -0.048 C 
ATOM      5  C5  <0> d          -0.013   1.086   0.008  0.00  0.00    -0.057 C 
ATOM      6  C6  <0> d          -0.742   1.586   1.258  0.00  0.00    -0.004 C 
ATOM      7  H4  <0> d          -2.757   1.418  -2.022  0.00  0.00     0.067 H 
ATOM      8  H5  <0> d          -2.027  -0.120  -1.513  0.00  0.00     0.067 H 
ATOM      9  H6  <0> d          -0.885   2.682  -1.159  0.00  0.00     0.035 H 
ATOM     10  H7  <0> d          -0.212   1.346  -2.128  0.00  0.00     0.035 H 
ATOM     11  H8  <0> d           0.002  -0.004   0.002  0.00  0.00     0.033 H 
ATOM     12  H9  <0> d           1.008   1.468   0.000  0.00  0.00     0.033 H 
ATOM     13  H10 <0> d          -0.357   1.065   2.135  0.00  0.00     0.045 H 
ATOM     14  H11 <0> d          -0.573   2.657   1.372  0.00  0.00     0.045 H 
ENDROOT
BRANCH   1  15
ATOM     15  O1  <0> d          -2.967   1.384   2.247  0.00  0.00    -0.343 OA
BRANCH  15  16
ATOM     16  C1  <0> d          -4.366   1.131   2.103  0.00  0.00     0.012 C 
ATOM     17  H1  <0> d          -4.799   1.863   1.421  0.00  0.00     0.067 H 
ATOM     18  H2  <0> d          -4.515   0.129   1.703  0.00  0.00     0.067 H 
ATOM     19  H3  <0> d          -4.851   1.210   3.076  0.00  0.00     0.067 H 
ENDBRANCH  15  16
ENDBRANCH   1  15
TORSDOF 2
