REMARK  1 active torsions:
REMARK  status: ('A' for Active; 'I' for Inactive)
REMARK    1  A    between atoms: C3_3  and  O1_10 
ROOT
ATOM      1  C1  <0> d           0.041  -2.081   1.199  0.00  0.00    -0.060 A 
ATOM      2  C2  <0> d           0.023  -0.703   1.202  0.00  0.00    -0.046 A 
ATOM      3  C3  <0> d           0.002  -0.004   0.002  0.00  0.00     0.104 A 
ATOM      4  C4  <0> d          -0.006  -0.692  -1.208  0.00  0.00     0.150 A 
ATOM      5  C5  <0> d           0.019  -2.070  -1.219  0.00  0.00    -0.023 A 
ATOM      6  C6  <0> d           0.039  -2.776  -0.013  0.00  0.00     0.047 A 
ATOM      7  C7  <0> d           0.058  -4.208  -0.019  0.00  0.00     0.099 C 
ATOM      8  N1  <0> d           0.072  -5.344  -0.024  0.00  0.00    -0.191 NA
ATOM      9  F1  <0> d          -0.032  -0.008  -2.373  0.00  0.00    -0.203 F 
ATOM     10  H1  <0> d           0.057  -2.623   2.133  0.00  0.00     0.086 H 
ATOM     11  H2  <0> d           0.025  -0.166   2.139  0.00  0.00     0.087 H 
ATOM     12  H3  <0> d           0.017  -2.604  -2.158  0.00  0.00     0.090 H 
ENDROOT
BRANCH   3  13
ATOM     13  O1  <0> d          -0.016   1.354   0.009  0.00  0.00    -0.358 OA
ATOM     14  H4  <0> d           0.862   1.759   0.003  0.00  0.00     0.217 HD
ENDBRANCH   3  13
TORSDOF 1
