REMARK  2 active torsions:
REMARK  status: ('A' for Active; 'I' for Inactive)
REMARK    1  A    between atoms: C1_1  and  C2_2 
REMARK    2  A    between atoms: C8_10  and  C9_11 
ROOT
ATOM      1  C2  <0> d           3.512  -0.751   0.352  0.00  0.00     0.008 A 
ATOM      2  C3  <0> d           3.097  -1.979  -0.056  0.00  0.00    -0.059 A 
ATOM      3  C4  <0> d           1.709  -1.920  -0.262  0.00  0.00    -0.053 A 
ATOM      4  C5  <0> d           1.319  -0.649   0.030  0.00  0.00     0.058 A 
ATOM      5  N1  <0> d           2.447   0.068   0.408  0.00  0.00    -0.348 N 
ATOM      6  C6  <0> d           2.346   1.483   0.780  0.00  0.00     0.017 C 
ATOM      7  C7  <0> d           1.191   2.113   0.002  0.00  0.00     0.030 C 
ATOM      8  N2  <0> d          -0.016   1.299   0.009  0.00  0.00    -0.291 NA
ATOM      9  C8  <0> d           0.002  -0.004   0.002  0.00  0.00     0.051 C 
ATOM     10  H4  <0> d           3.725  -2.846  -0.198  0.00  0.00     0.086 H 
ATOM     11  H5  <0> d           1.073  -2.729  -0.590  0.00  0.00     0.087 H 
ATOM     12  H6  <0> d           2.155   1.567   1.850  0.00  0.00     0.067 H 
ATOM     13  H7  <0> d           3.277   1.993   0.534  0.00  0.00     0.067 H 
ATOM     14  H8  <0> d           1.505   2.265  -1.031  0.00  0.00     0.069 H 
ATOM     15  H9  <0> d           0.961   3.084   0.442  0.00  0.00     0.069 H 
ENDROOT
BRANCH   1  16
ATOM     16  C1  <0> d           4.931  -0.371   0.689  0.00  0.00    -0.037 C 
ATOM     17  H1  <0> d           5.431  -0.007  -0.209  0.00  0.00     0.035 H 
ATOM     18  H2  <0> d           4.927   0.413   1.446  0.00  0.00     0.035 H 
ATOM     19  H3  <0> d           5.460  -1.244   1.071  0.00  0.00     0.035 H 
ENDBRANCH   1  16
BRANCH   9  20
ATOM     20  C9  <0> d          -1.271  -0.810  -0.033  0.00  0.00    -0.034 C 
ATOM     21  H10 <0> d          -2.057  -0.192  -0.049  0.00  0.00     0.035 H 
ATOM     22  H11 <0> d          -1.281  -1.434  -0.927  0.00  0.00     0.035 H 
ATOM     23  H12 <0> d          -1.324  -1.444   0.852  0.00  0.00     0.035 H 
ENDBRANCH   9  20
TORSDOF 2
