REMARK  3 active torsions:
REMARK  status: ('A' for Active; 'I' for Inactive)
REMARK    1  A    between atoms: C1_1  and  C2_2 
REMARK    2  A    between atoms: C4_5  and  C6_9 
REMARK    3  A    between atoms: C5_6  and  N3_8 
ROOT
ATOM      1  C2  <0> d           0.002  -0.004   0.002  0.00  0.00     0.050 A 
ATOM      2  C3  <0> d           0.006  -0.687  -1.199  0.00  0.00     0.026 A 
ATOM      3  N1  <0> d           0.024  -2.010  -1.212  0.00  0.00    -0.260 NA
ATOM      4  C4  <0> d           0.038  -2.682  -0.077  0.00  0.00     0.075 A 
ATOM      5  C5  <0> d           0.035  -1.997   1.136  0.00  0.00     0.146 A 
ATOM      6  N2  <0> d           0.022  -0.670   1.144  0.00  0.00    -0.233 NA
ATOM      7  H4  <0> d          -0.006  -0.140  -2.130  0.00  0.00     0.117 H 
ENDROOT
BRANCH   1   8
ATOM      8  C1  <0> d          -0.018   1.503   0.010  0.00  0.00    -0.034 C 
ATOM      9  H1  <0> d           1.004   1.880   0.003  0.00  0.00     0.035 H 
ATOM     10  H2  <0> d          -0.545   1.864  -0.873  0.00  0.00     0.035 H 
ATOM     11  H3  <0> d          -0.529   1.854   0.907  0.00  0.00     0.035 H 
ENDBRANCH   1   8
BRANCH   5  12
ATOM     12  N3  <0> d           0.049  -2.701   2.334  0.00  0.00    -0.382 N 
ATOM     13  H5  <0> d           0.062  -3.671   2.327  0.00  0.00     0.157 HD
ATOM     14  H6  <0> d           0.047  -2.223   3.178  0.00  0.00     0.157 HD
ENDBRANCH   5  12
BRANCH   4  15
ATOM     15  C6  <0> d           0.058  -4.189  -0.092  0.00  0.00    -0.032 C 
ATOM     16  H7  <0> d           1.090  -4.538  -0.101  0.00  0.00     0.035 H 
ATOM     17  H8  <0> d          -0.447  -4.568   0.796  0.00  0.00     0.035 H 
ATOM     18  H9  <0> d          -0.456  -4.550  -0.984  0.00  0.00     0.035 H 
ENDBRANCH   4  15
TORSDOF 3
