REMARK  2 active torsions:
REMARK  status: ('A' for Active; 'I' for Inactive)
REMARK    1  A    between atoms: C4_4  and  N1_7 
REMARK    2  A    between atoms: C8_9  and  N3_12 
ROOT
ATOM      1  C1  <0> d          -4.528   7.018   0.063  0.00  0.00    -0.083 A 
ATOM      2  C2  <0> d          -5.315   5.880   0.060  0.00  0.00    -0.081 A 
ATOM      3  C3  <0> d          -4.725   4.632   0.050  0.00  0.00    -0.055 A 
ATOM      4  C4  <0> d          -3.341   4.519   0.042  0.00  0.00     0.058 A 
ATOM      5  C5  <0> d          -2.554   5.663   0.050  0.00  0.00    -0.055 A 
ATOM      6  C6  <0> d          -3.150   6.909   0.055  0.00  0.00    -0.081 A 
ATOM      7  H1  <0> d          -4.992   7.993   0.071  0.00  0.00     0.083 H 
ATOM      8  H2  <0> d          -6.391   5.969   0.066  0.00  0.00     0.083 H 
ATOM      9  H3  <0> d          -5.340   3.744   0.047  0.00  0.00     0.087 H 
ATOM     10  H4  <0> d          -1.478   5.578   0.049  0.00  0.00     0.087 H 
ATOM     11  H5  <0> d          -2.538   7.799   0.057  0.00  0.00     0.083 H 
ENDROOT
BRANCH   4  12
ATOM     12  N1  <0> d          -2.740   3.253   0.032  0.00  0.00    -0.243 N 
ATOM     13  N2  <0> d          -3.409   2.022   0.029  0.00  0.00    -0.178 NA
ATOM     14  C9  <0> d          -2.514   1.066   0.020  0.00  0.00     0.049 A 
ATOM     15  C8  <0> d          -1.240   1.653   0.017  0.00  0.00     0.062 A 
ATOM     16  H7  <0> d          -2.722   0.007   0.016  0.00  0.00     0.121 H 
ATOM     17  C7  <0> d          -1.401   3.000   0.030  0.00  0.00     0.031 A 
ATOM     18  H6  <0> d          -0.612   3.738   0.036  0.00  0.00     0.118 H 
BRANCH  15  19
ATOM     19  N3  <0> d          -0.011   0.966   0.007  0.00  0.00    -0.397 N 
ATOM     20  H8  <0> d           0.002  -0.004   0.002  0.00  0.00     0.156 HD
ATOM     21  H9  <0> d           0.822   1.462   0.002  0.00  0.00     0.156 HD
ENDBRANCH  15  19
ENDBRANCH   4  12
TORSDOF 2
