REMARK  1 active torsions:
REMARK  status: ('A' for Active; 'I' for Inactive)
REMARK    1  A    between atoms: C3_3  and  C5_6 
ROOT
ATOM      1  C1  <0> d          -0.016   1.353   0.009  0.00  0.00    -0.075 A 
ATOM      2  C2  <0> d           1.177   2.041   0.002  0.00  0.00    -0.064 A 
ATOM      3  C3  <0> d           2.348   1.328  -0.013  0.00  0.00     0.033 A 
ATOM      4  S1  <0> d           1.752  -0.355  -0.017  0.00  0.00    -0.100 SA
ATOM      5  C4  <0> d           0.002  -0.004   0.002  0.00  0.00    -0.044 A 
ATOM      6  H2  <0> d          -0.955   1.887   0.026  0.00  0.00     0.084 H 
ATOM      7  H3  <0> d           1.191   3.121   0.007  0.00  0.00     0.085 H 
ATOM      8  H4  <0> d          -0.829  -0.694   0.007  0.00  0.00     0.095 H 
ENDROOT
BRANCH   3   9
ATOM      9  C5  <0> d           3.736   1.821  -0.024  0.00  0.00     0.068 A 
ATOM     10  N2  <0> d           4.883   1.057  -0.039  0.00  0.00    -0.349 N 
ATOM     11  C7  <0> d           5.933   1.918  -0.046  0.00  0.00     0.064 A 
ATOM     12  H1  <0> d           4.931   0.089  -0.045  0.00  0.00     0.167 HD
ATOM     13  N1  <0> d           5.477   3.142  -0.029  0.00  0.00    -0.254 NA
ATOM     14  H6  <0> d           6.975   1.637  -0.061  0.00  0.00     0.143 H 
ATOM     15  C6  <0> d           4.139   3.123  -0.015  0.00  0.00     0.030 A 
ATOM     16  H5  <0> d           3.493   3.988   0.001  0.00  0.00     0.118 H 
ENDBRANCH   3   9
TORSDOF 1
