REMARK  4 active torsions:
REMARK  status: ('A' for Active; 'I' for Inactive)
REMARK    1  A    between atoms: C1_1  and  C2_2 
REMARK    2  A    between atoms: C2_2  and  O2_4 
REMARK    3  A    between atoms: O2_4  and  C3_5 
REMARK    4  A    between atoms: C3_5  and  C4_6 
ROOT
ATOM      1  C4  <0> d          -1.231   3.129   0.030  0.00  0.00    -0.031 A 
ATOM      2  C5  <0> d          -1.223   1.742   0.017  0.00  0.00    -0.058 A 
ATOM      3  C6  <0> d          -0.013   1.076   0.008  0.00  0.00     0.002 A 
ATOM      4  N1  <0> d           1.125   1.743   0.001  0.00  0.00    -0.273 NA
ATOM      5  C7  <0> d           1.155   3.061   0.007  0.00  0.00     0.002 A 
ATOM      6  C8  <0> d          -0.015   3.796   0.022  0.00  0.00    -0.058 A 
ATOM      7  H6  <0> d          -2.151   1.190   0.018  0.00  0.00     0.086 H 
ATOM      8  H7  <0> d           0.002  -0.004   0.002  0.00  0.00     0.114 H 
ATOM      9  H8  <0> d           2.107   3.573   0.001  0.00  0.00     0.114 H 
ATOM     10  H9  <0> d           0.016   4.875   0.027  0.00  0.00     0.086 H 
ENDROOT
BRANCH   1  11
ATOM     11  C3  <0> d          -2.530   3.893   0.047  0.00  0.00     0.052 C 
ATOM     12  H4  <0> d          -3.289   3.307   0.565  0.00  0.00     0.082 H 
ATOM     13  H5  <0> d          -2.387   4.841   0.564  0.00  0.00     0.082 H 
BRANCH  11  14
ATOM     14  O2  <0> d          -2.960   4.146  -1.317  0.00  0.00    -0.317 OA
BRANCH  14  15
ATOM     15  C2  <0> d          -4.109   4.821  -1.478  0.00  0.00     0.255 C 
ATOM     16  O1  <0> d          -4.734   5.189  -0.512  0.00  0.00    -0.266 OA
BRANCH  15  17
ATOM     17  C1  <0> d          -4.618   5.121  -2.864  0.00  0.00     0.004 C 
ATOM     18  H1  <0> d          -5.262   4.307  -3.198  0.00  0.00     0.041 H 
ATOM     19  H2  <0> d          -5.186   6.051  -2.849  0.00  0.00     0.041 H 
ATOM     20  H3  <0> d          -3.775   5.221  -3.548  0.00  0.00     0.041 H 
ENDBRANCH  15  17
ENDBRANCH  14  15
ENDBRANCH  11  14
ENDBRANCH   1  11
TORSDOF 4
