REMARK  0 active torsions:
REMARK  status: ('A' for Active; 'I' for Inactive)
ROOT
ATOM      1  C1  <0> d          -0.016   1.359   0.009  0.00  0.00     0.242 A 
ATOM      2  C2  <0> d           1.196   2.038   0.002  0.00  0.00     0.283 A 
ATOM      3  N1  <0> d           2.328   1.353  -0.013  0.00  0.00    -0.110 NA
ATOM      4  N2  <0> d           2.330   0.067  -0.020  0.00  0.00    -0.087 NA
ATOM      5  C3  <0> d           1.194  -0.636  -0.013  0.00  0.00     0.366 A 
ATOM      6  N3  <0> d           0.002  -0.004   0.002  0.00  0.00    -0.280 N 
ATOM      7  O1  <0> d           1.235  -1.855  -0.020  0.00  0.00    -0.243 OA
ATOM      8  F1  <0> d           1.220   3.389   0.008  0.00  0.00    -0.178 F 
ATOM      9  O2  <0> d          -1.185   2.034   0.030  0.00  0.00    -0.167 OA
ATOM     10  H1  <0> d          -0.826  -0.510   0.007  0.00  0.00     0.173 HD
ENDROOT
TORSDOF 0
