REMARK  1 active torsions:
REMARK  status: ('A' for Active; 'I' for Inactive)
REMARK    1  A    between atoms: C1_1  and  C2_2 
ROOT
ATOM      1  C2  <0> d          -0.742   1.585  -1.213  0.00  0.00     0.008 A 
ATOM      2  C3  <0> d          -2.076   1.789  -1.158  0.00  0.00    -0.013 A 
ATOM      3  C4  <0> d          -2.751   2.259  -2.309  0.00  0.00     0.175 A 
ATOM      4  C5  <0> d          -2.002   2.499  -3.484  0.00  0.00    -0.020 A 
ATOM      5  C6  <0> d          -0.669   2.275  -3.475  0.00  0.00    -0.019 A 
ATOM      6  N1  <0> d          -0.050   1.830  -2.353  0.00  0.00    -0.369 N 
ATOM      7  O1  <0> d          -3.958   2.452  -2.288  0.00  0.00    -0.288 OA
ATOM      8  H4  <0> d          -2.621   1.597  -0.245  0.00  0.00     0.092 H 
ATOM      9  H5  <0> d          -2.489   2.857  -4.379  0.00  0.00     0.091 H 
ATOM     10  H6  <0> d          -0.091   2.456  -4.369  0.00  0.00     0.111 H 
ATOM     11  H7  <0> d           0.908   1.679  -2.369  0.00  0.00     0.165 HD
ENDROOT
BRANCH   1  12
ATOM     12  C1  <0> d          -0.013   1.086   0.008  0.00  0.00    -0.037 C 
ATOM     13  H1  <0> d           0.002  -0.004   0.002  0.00  0.00     0.035 H 
ATOM     14  H2  <0> d           1.010   1.463   0.000  0.00  0.00     0.035 H 
ATOM     15  H3  <0> d          -0.523   1.437   0.905  0.00  0.00     0.035 H 
ENDBRANCH   1  12
TORSDOF 1
