REMARK  3 active torsions:
REMARK  status: ('A' for Active; 'I' for Inactive)
REMARK    1  A    between atoms: C1_1  and  C2_2 
REMARK    2  A    between atoms: C3_3  and  C6_8 
REMARK    3  A    between atoms: C3_3  and  C7_9 
ROOT
ATOM      1  C2  <0> d           0.002  -0.004   0.002  0.00  0.00     0.126 C 
ATOM      2  C3  <0> d           0.776  -0.521  -1.231  0.00  0.00    -0.001 C 
ATOM      3  C4  <0> d           1.472  -1.779  -0.661  0.00  0.00     0.019 C 
ATOM      4  C5  <0> d           1.567  -1.510   0.825  0.00  0.00     0.219 C 
ATOM      5  O1  <0> d           2.287  -2.110   1.595  0.00  0.00    -0.274 OA
ATOM      6  N1  <0> d           0.739  -0.508   1.167  0.00  0.00    -0.339 N 
ATOM      7  C8  <0> d          -1.372  -0.531   0.001  0.00  0.00     0.091 C 
ATOM      8  N2  <0> d          -2.433  -0.938  -0.000  0.00  0.00    -0.195 NA
ATOM      9  H4  <0> d           0.868  -2.667  -0.849  0.00  0.00     0.048 H 
ATOM     10  H5  <0> d           2.466  -1.894  -1.093  0.00  0.00     0.048 H 
ATOM     11  H6  <0> d           0.640  -0.163   2.068  0.00  0.00     0.164 HD
ENDROOT
BRANCH   1  12
ATOM     12  C1  <0> d          -0.019   1.526   0.010  0.00  0.00    -0.040 C 
ATOM     13  H1  <0> d           1.004   1.903   0.003  0.00  0.00     0.032 H 
ATOM     14  H2  <0> d          -0.546   1.887  -0.873  0.00  0.00     0.032 H 
ATOM     15  H3  <0> d          -0.529   1.877   0.907  0.00  0.00     0.032 H 
ENDBRANCH   1  12
BRANCH   2  16
ATOM     16  C6  <0> d          -0.183  -0.892  -2.364  0.00  0.00    -0.066 C 
ATOM     17  H7  <0> d          -0.757  -0.013  -2.655  0.00  0.00     0.028 H 
ATOM     18  H8  <0> d           0.388  -1.253  -3.219  0.00  0.00     0.028 H 
ATOM     19  H9  <0> d          -0.862  -1.674  -2.024  0.00  0.00     0.028 H 
ENDBRANCH   2  16
BRANCH   2  20
ATOM     20  C7  <0> d           1.806   0.507  -1.702  0.00  0.00    -0.066 C 
ATOM     21  H10 <0> d           2.517   0.704  -0.899  0.00  0.00     0.028 H 
ATOM     22  H11 <0> d           2.337   0.118  -2.571  0.00  0.00     0.028 H 
ATOM     23  H12 <0> d           1.297   1.433  -1.972  0.00  0.00     0.028 H 
ENDBRANCH   2  20
TORSDOF 3
