REMARK  6 active torsions:
REMARK  status: ('A' for Active; 'I' for Inactive)
REMARK    1  A    between atoms: C1_1  and  C2_2 
REMARK    2  A    between atoms: C2_2  and  C3_3 
REMARK    3  A    between atoms: C2_2  and  C4_4 
REMARK       I    between atoms: C4_4  and  N1_6 
REMARK    4  A    between atoms: N1_6  and  C5_7 
REMARK    5  A    between atoms: N1_6  and  C6_8 
REMARK    6  A    between atoms: C6_8  and  C7_9 
ROOT
ATOM      1  C4  <0> d          -0.189   0.347   0.288  0.00  0.00     0.223 C 
ATOM      2  O1  <0> d           0.818  -0.104  -0.216  0.00  0.00    -0.273 OA
ATOM      3  N1  <0> d          -0.269   1.662   0.572  0.00  0.00    -0.346 N 
ENDROOT
BRANCH   1   4
ATOM      4  C2  <0> d          -1.350  -0.562   0.595  0.00  0.00     0.017 C 
ATOM      5  H4  <0> d          -1.758  -0.292   1.580  0.00  0.00     0.053 H 
BRANCH   4   6
ATOM      6  C1  <0> d          -2.428  -0.394  -0.478  0.00  0.00    -0.065 C 
ATOM      7  H1  <0> d          -2.773   0.651  -0.490  0.00  0.00     0.028 H 
ATOM      8  H2  <0> d          -3.276  -1.058  -0.254  0.00  0.00     0.028 H 
ATOM      9  H3  <0> d          -2.009  -0.653  -1.462  0.00  0.00     0.028 H 
ENDBRANCH   4   6
BRANCH   4  10
ATOM     10  C3  <0> d          -0.870  -2.015   0.612  0.00  0.00    -0.065 C 
ATOM     11  H5  <0> d          -0.095  -2.136   1.383  0.00  0.00     0.028 H 
ATOM     12  H6  <0> d          -0.452  -2.274  -0.372  0.00  0.00     0.028 H 
ATOM     13  H7  <0> d          -1.718  -2.679   0.836  0.00  0.00     0.028 H 
ENDBRANCH   4  10
ENDBRANCH   1   4
BRANCH   3  14
ATOM     14  C5  <0> d          -1.511   2.220   1.112  0.00  0.00    -0.015 C 
ATOM     15  H8  <0> d          -1.385   3.300   1.279  0.00  0.00     0.056 H 
ATOM     16  H9  <0> d          -1.751   1.727   2.065  0.00  0.00     0.056 H 
ATOM     17  H10 <0> d          -2.329   2.053   0.396  0.00  0.00     0.056 H 
ENDBRANCH   3  14
BRANCH   3  18
ATOM     18  C6  <0> d           0.885   2.534   0.337  0.00  0.00     0.077 C 
ATOM     19  H11 <0> d           0.873   3.361   1.062  0.00  0.00     0.081 H 
ATOM     20  H12 <0> d           1.813   1.955   0.457  0.00  0.00     0.081 H 
BRANCH  18  21
ATOM     21  C7  <0> d           0.817   3.090  -1.062  0.00  0.00     0.191 C 
ATOM     22  O2  <0> d          -0.101   2.789  -1.788  0.00  0.00    -0.647 OA
ATOM     23  O3  <0> d           1.776   3.920  -1.502  0.00  0.00    -0.647 OA
ENDBRANCH  18  21
ENDBRANCH   3  18
TORSDOF 6
