REMARK  4 active torsions:
REMARK  status: ('A' for Active; 'I' for Inactive)
REMARK    1  A    between atoms: C1_1  and  C2_2 
REMARK    2  A    between atoms: C2_2  and  N1_3 
REMARK       I    between atoms: N1_3  and  C3_4 
REMARK    3  A    between atoms: C3_4  and  C4_6 
REMARK    4  A    between atoms: C5_7  and  N4_11 
ROOT
ATOM      1  N1  <0> d          -0.011   0.966   0.007  0.00  0.00    -0.356 N 
ATOM      2  C3  <0> d          -1.187   1.624   0.017  0.00  0.00     0.276 C 
ATOM      3  O1  <0> d          -1.204   2.839   0.023  0.00  0.00    -0.266 OA
ATOM      4  H6  <0> d           0.002  -0.004   0.002  0.00  0.00     0.162 HD
ENDROOT
BRANCH   2   5
ATOM      5  C4  <0> d          -2.460   0.866   0.018  0.00  0.00     0.201 A 
ATOM      6  N3  <0> d          -2.642  -0.437   0.006  0.00  0.00    -0.096 NA
ATOM      7  O2  <0> d          -3.827  -0.676   0.017  0.00  0.00    -0.104 OA
ATOM      8  N2  <0> d          -4.563   0.283   0.025  0.00  0.00    -0.085 NA
ATOM      9  C5  <0> d          -3.847   1.384   0.028  0.00  0.00     0.188 A 
BRANCH   9  10
ATOM     10  N4  <0> d          -4.282   2.702   0.037  0.00  0.00    -0.380 N 
ATOM     11  H7  <0> d          -3.636   3.426   0.037  0.00  0.00     0.158 HD
ATOM     12  H8  <0> d          -5.231   2.900   0.042  0.00  0.00     0.158 HD
ENDBRANCH   9  10
ENDBRANCH   2   5
BRANCH   1  13
ATOM     13  C2  <0> d           1.248   1.716  -0.001  0.00  0.00    -0.008 C 
ATOM     14  H4  <0> d           1.288   2.348  -0.888  0.00  0.00     0.063 H 
ATOM     15  H5  <0> d           1.305   2.338   0.892  0.00  0.00     0.063 H 
BRANCH  13  16
ATOM     16  C1  <0> d           2.424   0.737  -0.017  0.00  0.00    -0.061 C 
ATOM     17  H1  <0> d           2.383   0.105   0.870  0.00  0.00     0.029 H 
ATOM     18  H2  <0> d           2.366   0.115  -0.910  0.00  0.00     0.029 H 
ATOM     19  H3  <0> d           3.360   1.295  -0.023  0.00  0.00     0.029 H 
ENDBRANCH  13  16
ENDBRANCH   1  13
TORSDOF 4
