REMARK  0 active torsions:
REMARK  status: ('A' for Active; 'I' for Inactive)
ROOT
ATOM      1  C1  <0> d           1.102   3.842   0.012  0.00  0.00     0.041 A 
ATOM      2  C2  <0> d           1.162   2.460   0.004  0.00  0.00     0.158 A 
ATOM      3  C3  <0> d          -0.021   1.732   0.012  0.00  0.00     0.114 A 
ATOM      4  C4  <0> d          -1.224   2.427   0.021  0.00  0.00     0.158 A 
ATOM      5  C5  <0> d          -1.202   3.811   0.034  0.00  0.00     0.041 A 
ATOM      6  N1  <0> d          -0.059   4.468   0.027  0.00  0.00    -0.267 NA
ATOM      7  F1  <0> d          -2.400   1.762   0.023  0.00  0.00    -0.203 F 
ATOM      8 Cl1  <0> d           0.002  -0.004   0.002  0.00  0.00    -0.078 Cl
ATOM      9  F2  <0> d           2.355   1.826  -0.010  0.00  0.00    -0.203 F 
ATOM     10  H1  <0> d           2.017   4.416   0.007  0.00  0.00     0.119 H 
ATOM     11  H2  <0> d          -2.132   4.359   0.046  0.00  0.00     0.119 H 
ENDROOT
TORSDOF 0
