REMARK  1 active torsions:
REMARK  status: ('A' for Active; 'I' for Inactive)
REMARK    1  A    between atoms: C1_1  and  C2_2 
ROOT
ATOM      1  C2  <0> d           1.054   1.786   0.002  0.00  0.00     0.147 A 
ATOM      2  N1  <0> d          -0.011   0.966   0.007  0.00  0.00    -0.132 NA
ATOM      3  N2  <0> d          -1.147   1.792   0.017  0.00  0.00    -0.115 NA
ATOM      4  C3  <0> d          -0.716   3.027   0.024  0.00  0.00     0.245 A 
ATOM      5  N3  <0> d           0.617   3.019   0.012  0.00  0.00    -0.200 NA
ATOM      6 Cl1  <0> d          -1.717   4.445   0.040  0.00  0.00    -0.040 Cl
ENDROOT
BRANCH   1   7
ATOM      7  C1  <0> d           2.499   1.359  -0.014  0.00  0.00    -0.018 C 
ATOM      8  H1  <0> d           2.557   0.260  -0.020  0.00  0.00     0.038 H 
ATOM      9  H2  <0> d           3.006   1.748   0.881  0.00  0.00     0.038 H 
ATOM     10  H3  <0> d           2.989   1.756  -0.915  0.00  0.00     0.038 H 
ENDBRANCH   1   7
TORSDOF 1
