REMARK  4 active torsions:
REMARK  status: ('A' for Active; 'I' for Inactive)
REMARK    1  A    between atoms: C1_1  and  O1_2 
REMARK    2  A    between atoms: O1_2  and  C2_3 
REMARK    3  A    between atoms: C2_3  and  C3_5 
REMARK    4  A    between atoms: C3_5  and  C4_6 
ROOT
ATOM      1  C4  <0> d          -0.050   3.840   0.023  0.00  0.00    -0.049 A 
ATOM      2  C5  <0> d           1.156   3.165   0.008  0.00  0.00    -0.076 A 
ATOM      3  C6  <0> d           1.175   1.783   0.000  0.00  0.00    -0.082 A 
ATOM      4  C7  <0> d          -0.013   1.076   0.008  0.00  0.00    -0.083 A 
ATOM      5  C8  <0> d          -1.219   1.751   0.017  0.00  0.00    -0.082 A 
ATOM      6  C9  <0> d          -1.238   3.133   0.030  0.00  0.00    -0.076 A 
ATOM      7  H6  <0> d           2.084   3.718   0.002  0.00  0.00     0.084 H 
ATOM      8  H7  <0> d           2.118   1.256  -0.011  0.00  0.00     0.083 H 
ATOM      9  H8  <0> d           0.002  -0.004   0.002  0.00  0.00     0.083 H 
ATOM     10  H9  <0> d          -2.147   1.198   0.019  0.00  0.00     0.083 H 
ATOM     11  H10 <0> d          -2.180   3.660   0.041  0.00  0.00     0.084 H 
ENDROOT
BRANCH   1  12
ATOM     12  C3  <0> d          -0.070   5.347   0.031  0.00  0.00     0.040 C 
ATOM     13  H4  <0> d          -0.960   5.696   0.555  0.00  0.00     0.055 H 
ATOM     14  H5  <0> d           0.819   5.720   0.538  0.00  0.00     0.055 H 
BRANCH  12  15
ATOM     15  C2  <0> d          -0.091   5.857  -1.387  0.00  0.00     0.262 C 
ATOM     16  O2  <0> d          -0.089   5.077  -2.309  0.00  0.00    -0.265 OA
BRANCH  15  17
ATOM     17  O1  <0> d          -0.111   7.178  -1.625  0.00  0.00    -0.326 OA
BRANCH  17  18
ATOM     18  C1  <0> d          -0.130   7.597  -3.015  0.00  0.00     0.013 C 
ATOM     19  H1  <0> d          -0.145   8.686  -3.066  0.00  0.00     0.067 H 
ATOM     20  H2  <0> d           0.760   7.222  -3.519  0.00  0.00     0.067 H 
ATOM     21  H3  <0> d          -1.019   7.198  -3.503  0.00  0.00     0.067 H 
ENDBRANCH  17  18
ENDBRANCH  15  17
ENDBRANCH  12  15
ENDBRANCH   1  12
TORSDOF 4
