REMARK  1 active torsions:
REMARK  status: ('A' for Active; 'I' for Inactive)
REMARK    1  A    between atoms: C4_4  and  O1_8 
ROOT
ATOM      1  C1  <0> d          -1.243   3.405   0.031  0.00  0.00    -0.077 A 
ATOM      2  C2  <0> d          -0.057   4.116   0.024  0.00  0.00    -0.043 A 
ATOM      3  C3  <0> d           1.153   3.446   0.009  0.00  0.00     0.152 A 
ATOM      4  C4  <0> d           1.176   2.058   0.002  0.00  0.00     0.143 A 
ATOM      5  C5  <0> d          -0.016   1.347   0.009  0.00  0.00     0.152 A 
ATOM      6  C6  <0> d          -1.223   2.023   0.019  0.00  0.00    -0.043 A 
ATOM      7  F1  <0> d           0.002  -0.004   0.002  0.00  0.00    -0.203 F 
ATOM      8  F2  <0> d           2.311   4.142   0.001  0.00  0.00    -0.203 F 
ATOM      9  H1  <0> d          -2.186   3.931   0.042  0.00  0.00     0.083 H 
ATOM     10  H2  <0> d          -0.076   5.196   0.029  0.00  0.00     0.088 H 
ATOM     11  H3  <0> d          -2.151   1.470   0.020  0.00  0.00     0.088 H 
ENDROOT
BRANCH   4  12
ATOM     12  O1  <0> d           2.364   1.396  -0.012  0.00  0.00    -0.355 OA
ATOM     13  H4  <0> d           2.700   1.209  -0.899  0.00  0.00     0.218 HD
ENDBRANCH   4  12
TORSDOF 1
