REMARK  1 active torsions:
REMARK  status: ('A' for Active; 'I' for Inactive)
REMARK    1  A    between atoms: C5_8  and  C7_10 
ROOT
ATOM      1  C1  <0> d          -1.121   1.837   0.017  0.00  0.00    -0.033 A 
ATOM      2  C2  <0> d          -0.013   1.076   0.008  0.00  0.00     0.022 A 
ATOM      3  O1  <0> d           1.074   1.867   0.002  0.00  0.00    -0.320 OA
ATOM      4  C3  <0> d           0.692   3.163   0.012  0.00  0.00     0.104 A 
ATOM      5  C4  <0> d          -0.700   3.188   0.025  0.00  0.00     0.069 A 
ATOM      6  N1  <0> d          -1.103   4.498   0.034  0.00  0.00    -0.348 N 
ATOM      7  H1  <0> d          -2.022   4.808   0.043  0.00  0.00     0.166 HD
ATOM      8  C5  <0> d           0.021   5.303   0.027  0.00  0.00     0.113 A 
ATOM      9  C6  <0> d           1.134   4.489   0.014  0.00  0.00    -0.015 A 
ATOM     10  H2  <0> d          -2.142   1.484   0.020  0.00  0.00     0.090 H 
ATOM     11  H3  <0> d           0.002  -0.004   0.002  0.00  0.00     0.123 H 
ATOM     12  H4  <0> d           2.163   4.818   0.006  0.00  0.00     0.091 H 
ENDROOT
BRANCH   8  13
ATOM     13  C7  <0> d           0.027   6.765   0.033  0.00  0.00     0.227 C 
ATOM     14  O2  <0> d           1.083   7.369   0.026  0.00  0.00    -0.643 OA
ATOM     15  O3  <0> d          -1.138   7.445   0.046  0.00  0.00    -0.643 OA
ENDBRANCH   8  13
TORSDOF 1
