REMARK  4 active torsions:
REMARK  status: ('A' for Active; 'I' for Inactive)
REMARK    1  A    between atoms: C1_1  and  C2_2 
REMARK    2  A    between atoms: C2_2  and  O2_4 
REMARK    3  A    between atoms: O2_4  and  C3_5 
REMARK    4  A    between atoms: C3_5  and  C4_6 
ROOT
ATOM      1  C4  <0> d          -1.880   2.309  -0.724  0.00  0.00     0.059 C 
ATOM      2  H1  <0> d          -2.758   1.663  -0.709  0.00  0.00     0.086 H 
ATOM      3  C5  <0> d          -1.552   2.804   0.708  0.00  0.00    -0.037 C 
ATOM      4  C6  <0> d          -0.753   1.593   1.264  0.00  0.00    -0.043 C 
ATOM      5  C7  <0> d          -0.013   1.086   0.008  0.00  0.00     0.020 C 
ATOM      6  O3  <0> d          -0.722   1.569  -1.139  0.00  0.00    -0.384 OA
ATOM      7  H7  <0> d          -0.935   3.702   0.681  0.00  0.00     0.036 H 
ATOM      8  H8  <0> d          -2.463   2.974   1.283  0.00  0.00     0.036 H 
ATOM      9  H9  <0> d          -1.427   0.829   1.652  0.00  0.00     0.036 H 
ATOM     10  H10 <0> d          -0.046   1.911   2.030  0.00  0.00     0.036 H 
ATOM     11  H11 <0> d           0.002  -0.004   0.002  0.00  0.00     0.074 H 
ATOM     12  H12 <0> d           1.008   1.469   0.000  0.00  0.00     0.074 H 
ENDROOT
BRANCH   1  13
ATOM     13  C3  <0> d          -2.114   3.498  -1.658  0.00  0.00     0.053 C 
ATOM     14  H5  <0> d          -2.923   4.114  -1.267  0.00  0.00     0.079 H 
ATOM     15  H6  <0> d          -1.203   4.093  -1.724  0.00  0.00     0.079 H 
BRANCH  13  16
ATOM     16  O2  <0> d          -2.471   3.012  -2.979  0.00  0.00    -0.319 OA
BRANCH  16  17
ATOM     17  C2  <0> d          -2.710   3.935  -3.924  0.00  0.00     0.254 C 
ATOM     18  O1  <0> d          -2.624   5.110  -3.656  0.00  0.00    -0.266 OA
BRANCH  17  19
ATOM     19  C1  <0> d          -3.086   3.506  -5.319  0.00  0.00     0.004 C 
ATOM     20  H2  <0> d          -4.169   3.414  -5.392  0.00  0.00     0.041 H 
ATOM     21  H3  <0> d          -2.735   4.249  -6.035  0.00  0.00     0.041 H 
ATOM     22  H4  <0> d          -2.624   2.543  -5.539  0.00  0.00     0.041 H 
ENDBRANCH  17  19
ENDBRANCH  16  17
ENDBRANCH  13  16
ENDBRANCH   1  13
TORSDOF 4
