REMARK  3 active torsions:
REMARK  status: ('A' for Active; 'I' for Inactive)
REMARK    1  A    between atoms: C1_1  and  C2_2 
REMARK    2  A    between atoms: C5_5  and  C7_9 
REMARK    3  A    between atoms: C6_6  and  O1_8 
ROOT
ATOM      1  C2  <0> d           1.424   5.786   0.020  0.00  0.00     0.033 A 
ATOM      2  C3  <0> d           0.170   5.202   0.028  0.00  0.00    -0.058 A 
ATOM      3  C4  <0> d           0.061   3.823   0.016  0.00  0.00    -0.060 A 
ATOM      4  C5  <0> d           1.238   3.064   0.007  0.00  0.00     0.093 A 
ATOM      5  C6  <0> d           2.473   3.731  -0.002  0.00  0.00     0.179 A 
ATOM      6  N1  <0> d           2.519   5.052   0.005  0.00  0.00    -0.229 NA
ATOM      7  H4  <0> d          -0.718   5.817   0.040  0.00  0.00     0.086 H 
ATOM      8  H5  <0> d          -0.906   3.343   0.018  0.00  0.00     0.085 H 
ENDROOT
BRANCH   1   9
ATOM      9  C1  <0> d           1.540   7.289   0.027  0.00  0.00    -0.035 C 
ATOM     10  H1  <0> d           1.558   7.656  -0.999  0.00  0.00     0.035 H 
ATOM     11  H2  <0> d           0.685   7.717   0.551  0.00  0.00     0.035 H 
ATOM     12  H3  <0> d           2.460   7.580   0.533  0.00  0.00     0.035 H 
ENDBRANCH   1   9
BRANCH   5  13
ATOM     13  O1  <0> d           3.624   3.017  -0.017  0.00  0.00    -0.344 OA
ATOM     14  H6  <0> d           3.949   2.815  -0.905  0.00  0.00     0.219 HD
ENDBRANCH   5  13
BRANCH   4  15
ATOM     15  C7  <0> d           1.181   1.591  -0.001  0.00  0.00     0.213 C 
ATOM     16  O2  <0> d           2.209   0.943  -0.014  0.00  0.00    -0.644 OA
ATOM     17  O3  <0> d          -0.011   0.963   0.007  0.00  0.00    -0.644 OA
ENDBRANCH   4  15
TORSDOF 3
