REMARK  8 active torsions:
REMARK  status: ('A' for Active; 'I' for Inactive)
REMARK    1  A    between atoms: C1_1  and  C2_2 
REMARK    2  A    between atoms: C2_2  and  C3_3 
REMARK    3  A    between atoms: C2_2  and  C4_4 
REMARK    4  A    between atoms: C4_4  and  C5_5 
REMARK    5  A    between atoms: C5_5  and  C6_7 
REMARK    6  A    between atoms: C6_7  and  C7_8 
REMARK    7  A    between atoms: C7_8  and  C8_9 
REMARK    8  A    between atoms: C7_8  and  C9_10 
ROOT
ATOM      1  C5  <0> d           2.165   1.031  -1.177  0.00  0.00     0.127 C 
ATOM      2  O1  <0> d           1.604   0.270  -1.928  0.00  0.00    -0.298 OA
ENDROOT
BRANCH   1   3
ATOM      3  C4  <0> d           1.423   1.615  -0.003  0.00  0.00    -0.007 C 
ATOM      4  H8  <0> d           1.410   2.612  -0.080  0.00  0.00     0.044 H 
ATOM      5  H9  <0> d           1.923   1.329   0.922  0.00  0.00     0.044 H 
BRANCH   3   6
ATOM      6  C2  <0> d          -0.013   1.086   0.008  0.00  0.00    -0.055 C 
ATOM      7  H4  <0> d           0.002  -0.004   0.002  0.00  0.00     0.039 H 
BRANCH   6   8
ATOM      8  C1  <0> d          -0.753   1.593  -1.232  0.00  0.00    -0.073 C 
ATOM      9  H1  <0> d          -0.767   2.683  -1.226  0.00  0.00     0.028 H 
ATOM     10  H2  <0> d          -0.242   1.241  -2.128  0.00  0.00     0.028 H 
ATOM     11  H3  <0> d          -1.775   1.215  -1.224  0.00  0.00     0.028 H 
ENDBRANCH   6   8
BRANCH   6  12
ATOM     12  C3  <0> d          -0.729   1.579   1.267  0.00  0.00    -0.073 C 
ATOM     13  H5  <0> d          -0.744   2.669   1.273  0.00  0.00     0.028 H 
ATOM     14  H6  <0> d          -1.751   1.202   1.275  0.00  0.00     0.028 H 
ATOM     15  H7  <0> d          -0.202   1.218   2.150  0.00  0.00     0.028 H 
ENDBRANCH   6  12
ENDBRANCH   3   6
ENDBRANCH   1   3
BRANCH   1  16
ATOM     16  C6  <0> d           3.607   1.397  -1.414  0.00  0.00    -0.007 C 
ATOM     17  H10 <0> d           3.683   2.385  -1.548  0.00  0.00     0.044 H 
ATOM     18  H11 <0> d           4.204   1.101  -0.552  0.00  0.00     0.044 H 
BRANCH  16  19
ATOM     19  C7  <0> d           4.119   0.672  -2.661  0.00  0.00    -0.055 C 
ATOM     20  H12 <0> d           3.468   0.900  -3.506  0.00  0.00     0.039 H 
BRANCH  19  21
ATOM     21  C8  <0> d           5.542   1.139  -2.974  0.00  0.00    -0.073 C 
ATOM     22  H13 <0> d           6.193   0.911  -2.130  0.00  0.00     0.028 H 
ATOM     23  H14 <0> d           5.906   0.623  -3.863  0.00  0.00     0.028 H 
ATOM     24  H15 <0> d           5.541   2.214  -3.153  0.00  0.00     0.028 H 
ENDBRANCH  19  21
BRANCH  19  25
ATOM     25  C9  <0> d           4.120  -0.837  -2.410  0.00  0.00    -0.073 C 
ATOM     26  H16 <0> d           3.106  -1.169  -2.187  0.00  0.00     0.028 H 
ATOM     27  H17 <0> d           4.484  -1.353  -3.298  0.00  0.00     0.028 H 
ATOM     28  H18 <0> d           4.771  -1.064  -1.565  0.00  0.00     0.028 H 
ENDBRANCH  19  25
ENDBRANCH  16  19
ENDBRANCH   1  16
TORSDOF 8
