REMARK  3 active torsions:
REMARK  status: ('A' for Active; 'I' for Inactive)
REMARK    1  A    between atoms: C1_1  and  C2_2 
REMARK    2  A    between atoms: C2_2  and  C3_3 
REMARK    3  A    between atoms: C3_3  and  C4_5 
ROOT
ATOM      1  C4  <0> d           0.863  -1.968  -1.486  0.00  0.00     0.008 C 
ATOM      2  C5  <0> d           2.114  -2.480  -0.764  0.00  0.00    -0.035 C 
ATOM      3  C6  <0> d           2.307  -3.964  -1.086  0.00  0.00     0.020 C 
ATOM      4  O2  <0> d           2.409  -4.135  -2.501  0.00  0.00    -0.391 OA
ATOM      5  C7  <0> d           1.250  -3.717  -3.224  0.00  0.00     0.020 C 
ATOM      6  C8  <0> d           1.014  -2.223  -2.989  0.00  0.00    -0.035 C 
ATOM      7  H6  <0> d           0.057  -2.450  -1.143  0.00  0.00     0.051 H 
ATOM      8  H7  <0> d           2.984  -1.918  -1.102  0.00  0.00     0.037 H 
ATOM      9  H8  <0> d           1.991  -2.353   0.311  0.00  0.00     0.037 H 
ATOM     10  H9  <0> d           1.454  -4.531  -0.712  0.00  0.00     0.074 H 
ATOM     11  H10 <0> d           3.219  -4.324  -0.610  0.00  0.00     0.074 H 
ATOM     12  H11 <0> d           0.383  -4.281  -2.879  0.00  0.00     0.074 H 
ATOM     13  H12 <0> d           1.401  -3.898  -4.288  0.00  0.00     0.074 H 
ATOM     14  H13 <0> d           0.105  -1.912  -3.504  0.00  0.00     0.037 H 
ATOM     15  H14 <0> d           1.862  -1.655  -3.371  0.00  0.00     0.037 H 
ENDROOT
BRANCH   1  16
ATOM     16  C3  <0> d           0.707  -0.490  -1.238  0.00  0.00     0.130 C 
ATOM     17  O1  <0> d           1.148   0.305  -2.033  0.00  0.00    -0.298 OA
BRANCH  16  18
ATOM     18  C2  <0> d           0.002  -0.004   0.002  0.00  0.00    -0.013 C 
ATOM     19  H4  <0> d           0.486  -0.335   0.812  0.00  0.00     0.043 H 
ATOM     20  H5  <0> d          -1.020  -0.381   0.010  0.00  0.00     0.043 H 
BRANCH  18  21
ATOM     21  C1  <0> d          -0.019   1.526   0.010  0.00  0.00    -0.070 C 
ATOM     22  H1  <0> d           1.004   1.903   0.003  0.00  0.00     0.028 H 
ATOM     23  H2  <0> d          -0.546   1.887  -0.873  0.00  0.00     0.028 H 
ATOM     24  H3  <0> d          -0.529   1.877   0.907  0.00  0.00     0.028 H 
ENDBRANCH  18  21
ENDBRANCH  16  18
ENDBRANCH   1  16
TORSDOF 3
