REMARK  5 active torsions:
REMARK  status: ('A' for Active; 'I' for Inactive)
REMARK    1  A    between atoms: C1_1  and  O1_2 
REMARK    2  A    between atoms: O1_2  and  C2_3 
REMARK    3  A    between atoms: C2_3  and  O2_4 
REMARK    4  A    between atoms: O2_4  and  C3_5 
REMARK    5  A    between atoms: C7_9  and  O3_11 
ROOT
ATOM      1  C3  <0> d           2.688  -1.257  -0.121  0.00  0.00     0.074 A 
ATOM      2  C4  <0> d           1.951  -2.194   0.590  0.00  0.00    -0.051 A 
ATOM      3  C5  <0> d           2.582  -3.038   1.483  0.00  0.00    -0.078 A 
ATOM      4  C6  <0> d           3.948  -2.951   1.673  0.00  0.00    -0.051 A 
ATOM      5  C7  <0> d           4.689  -2.016   0.965  0.00  0.00     0.068 A 
ATOM      6  C8  <0> d           4.059  -1.172   0.063  0.00  0.00    -0.019 A 
ATOM      7  H6  <0> d           0.883  -2.263   0.444  0.00  0.00     0.087 H 
ATOM      8  H7  <0> d           2.006  -3.766   2.035  0.00  0.00     0.083 H 
ATOM      9  H8  <0> d           4.439  -3.611   2.372  0.00  0.00     0.087 H 
ATOM     10  H9  <0> d           4.636  -0.447  -0.492  0.00  0.00     0.092 H 
ENDROOT
BRANCH   1  11
ATOM     11  O2  <0> d           2.067  -0.427  -1.000  0.00  0.00    -0.326 OA
BRANCH  11  12
ATOM     12  C2  <0> d           0.652  -0.570  -1.138  0.00  0.00     0.108 C 
ATOM     13  H4  <0> d           0.399  -1.628  -1.212  0.00  0.00     0.118 H 
ATOM     14  H5  <0> d           0.321  -0.054  -2.039  0.00  0.00     0.118 H 
BRANCH  12  15
ATOM     15  O1  <0> d           0.002  -0.004   0.002  0.00  0.00    -0.371 OA
BRANCH  15  16
ATOM     16  C1  <0> d          -0.017   1.425   0.010  0.00  0.00     0.006 C 
ATOM     17  H1  <0> d           1.005   1.802   0.002  0.00  0.00     0.066 H 
ATOM     18  H2  <0> d          -0.544   1.786  -0.873  0.00  0.00     0.066 H 
ATOM     19  H3  <0> d          -0.527   1.776   0.907  0.00  0.00     0.066 H 
ENDBRANCH  15  16
ENDBRANCH  12  15
ENDBRANCH  11  12
ENDBRANCH   1  11
BRANCH   5  20
ATOM     20  O3  <0> d           6.033  -1.931   1.151  0.00  0.00    -0.361 OA
ATOM     21  H10 <0> d           6.548  -2.496   0.560  0.00  0.00     0.217 HD
ENDBRANCH   5  20
TORSDOF 5
