REMARK  5 active torsions:
REMARK  status: ('A' for Active; 'I' for Inactive)
REMARK    1  A    between atoms: C1_1  and  C2_2 
REMARK    2  A    between atoms: C2_2  and  O1_3 
REMARK    3  A    between atoms: O1_3  and  C3_4 
REMARK    4  A    between atoms: C3_4  and  C4_6 
REMARK    5  A    between atoms: N1_8  and  C7_11 
ROOT
ATOM      1  C4  <0> d          -1.120   1.874   0.017  0.00  0.00     0.148 A 
ATOM      2  C5  <0> d          -0.013   1.076   0.008  0.00  0.00     0.014 A 
ATOM      3  N1  <0> d           1.063   1.897   0.002  0.00  0.00    -0.353 N 
ATOM      4  C6  <0> d           0.608   3.177   0.013  0.00  0.00     0.066 A 
ATOM      5  N2  <0> d          -0.694   3.163   0.024  0.00  0.00    -0.236 NA
ATOM      6  H6  <0> d           0.002  -0.004   0.002  0.00  0.00     0.115 H 
ATOM      7  H7  <0> d           1.226   4.062   0.011  0.00  0.00     0.143 H 
ENDROOT
BRANCH   1   8
ATOM      8  C3  <0> d          -2.520   1.420   0.021  0.00  0.00     0.313 C 
ATOM      9  O2  <0> d          -2.773   0.231   0.016  0.00  0.00    -0.257 OA
BRANCH   8  10
ATOM     10  O1  <0> d          -3.521   2.323   0.030  0.00  0.00    -0.317 OA
BRANCH  10  11
ATOM     11  C2  <0> d          -4.877   1.803   0.033  0.00  0.00     0.026 C 
ATOM     12  H4  <0> d          -5.030   1.183   0.929  0.00  0.00     0.074 H 
ATOM     13  H5  <0> d          -5.038   1.192  -0.867  0.00  0.00     0.074 H 
BRANCH  11  14
ATOM     14  C1  <0> d          -5.869   2.967   0.043  0.00  0.00    -0.056 C 
ATOM     15  H1  <0> d          -6.896   2.574   0.046  0.00  0.00     0.030 H 
ATOM     16  H2  <0> d          -5.716   3.587  -0.852  0.00  0.00     0.030 H 
ATOM     17  H3  <0> d          -5.708   3.579   0.944  0.00  0.00     0.030 H 
ENDBRANCH  11  14
ENDBRANCH  10  11
ENDBRANCH   8  10
ENDBRANCH   1   8
BRANCH   3  18
ATOM     18  C7  <0> d           2.468   1.480  -0.013  0.00  0.00    -0.014 C 
ATOM     19  H8  <0> d           3.114   2.370  -0.014  0.00  0.00     0.057 H 
ATOM     20  H9  <0> d           2.663   0.883  -0.916  0.00  0.00     0.057 H 
ATOM     21  H10 <0> d           2.680   0.874   0.880  0.00  0.00     0.057 H 
ENDBRANCH   3  18
TORSDOF 5
