REMARK  3 active torsions:
REMARK  status: ('A' for Active; 'I' for Inactive)
REMARK    1  A    between atoms: C2_2  and  C3_3 
REMARK    2  A    between atoms: C3_3  and  C4_4 
REMARK    3  A    between atoms: C5_5  and  C6_6 
ROOT
ATOM      1  C1  <0> d           0.018  -1.178  -0.004  0.00  0.00    -0.153 C 
ATOM      2  C2  <0> d           0.002  -0.004   0.002  0.00  0.00    -0.105 C 
ATOM      3  H1  <0> d           0.032  -2.228  -0.010  0.00  0.00     0.166 H 
ENDROOT
BRANCH   2   4
ATOM      4  C3  <0> d          -0.018   1.468   0.010  0.00  0.00     0.045 C 
ATOM      5  H2  <0> d          -0.545   1.829  -0.873  0.00  0.00     0.071 H 
ATOM      6  H3  <0> d          -0.528   1.819   0.907  0.00  0.00     0.071 H 
BRANCH   4   7
ATOM      7  C4  <0> d           1.363   1.977  -0.000  0.00  0.00    -0.089 C 
ATOM      8  C5  <0> d           2.465   2.384  -0.009  0.00  0.00    -0.066 C 
BRANCH   8   9
ATOM      9  C6  <0> d           3.808   2.879  -0.019  0.00  0.00     0.017 A 
ATOM     10  C11 <0> d           4.048   4.254  -0.014  0.00  0.00    -0.065 A 
ATOM     11  C10 <0> d           5.345   4.725  -0.019  0.00  0.00    -0.082 A 
ATOM     12  H8  <0> d           3.220   4.948  -0.002  0.00  0.00     0.085 H 
ATOM     13  C9  <0> d           6.406   3.838  -0.040  0.00  0.00    -0.083 A 
ATOM     14  H7  <0> d           5.531   5.789  -0.011  0.00  0.00     0.083 H 
ATOM     15  C8  <0> d           6.175   2.474  -0.050  0.00  0.00    -0.082 A 
ATOM     16  H6  <0> d           7.419   4.212  -0.047  0.00  0.00     0.083 H 
ATOM     17  C7  <0> d           4.883   1.990  -0.040  0.00  0.00    -0.065 A 
ATOM     18  H5  <0> d           7.008   1.786  -0.066  0.00  0.00     0.083 H 
ATOM     19  H4  <0> d           4.704   0.925  -0.048  0.00  0.00     0.085 H 
ENDBRANCH   8   9
ENDBRANCH   4   7
ENDBRANCH   2   4
TORSDOF 3
