REMARK  2 active torsions:
REMARK  status: ('A' for Active; 'I' for Inactive)
REMARK    1  A    between atoms: C1_1  and  O1_2 
REMARK    2  A    between atoms: O1_2  and  C2_3 
ROOT
ATOM      1  C2  <0> d           1.178   1.785   0.000  0.00  0.00     0.106 A 
ATOM      2  C3  <0> d          -0.013   1.076   0.008  0.00  0.00    -0.045 A 
ATOM      3  C4  <0> d          -1.218   1.750   0.017  0.00  0.00    -0.043 A 
ATOM      4  C5  <0> d          -1.239   3.135   0.031  0.00  0.00     0.119 A 
ATOM      5  C6  <0> d          -0.051   3.846   0.023  0.00  0.00    -0.006 A 
ATOM      6  C7  <0> d           1.158   3.174   0.008  0.00  0.00     0.152 A 
ATOM      7  F1  <0> d           2.317   3.868   0.000  0.00  0.00    -0.203 F 
ATOM      8  F2  <0> d          -2.419   3.792   0.045  0.00  0.00    -0.206 F 
ATOM      9  H4  <0> d           0.002  -0.004   0.002  0.00  0.00     0.088 H 
ATOM     10  H5  <0> d          -2.146   1.197   0.019  0.00  0.00     0.088 H 
ATOM     11  H6  <0> d          -0.069   4.926   0.029  0.00  0.00     0.093 H 
ENDROOT
BRANCH   1  12
ATOM     12  O1  <0> d           2.366   1.122  -0.015  0.00  0.00    -0.353 OA
BRANCH  12  13
ATOM     13  C1  <0> d           2.311  -0.306  -0.023  0.00  0.00     0.011 C 
ATOM     14  H1  <0> d           1.793  -0.654   0.870  0.00  0.00     0.066 H 
ATOM     15  H2  <0> d           1.775  -0.644  -0.909  0.00  0.00     0.066 H 
ATOM     16  H3  <0> d           3.324  -0.708  -0.035  0.00  0.00     0.066 H 
ENDBRANCH  12  13
ENDBRANCH   1  12
TORSDOF 2
