REMARK  2 active torsions:
REMARK  status: ('A' for Active; 'I' for Inactive)
REMARK    1  A    between atoms: C2_2  and  C4_6 
REMARK    2  A    between atoms: C4_6  and  O1_7 
ROOT
ATOM      1  C1  <0> d           0.002  -0.004   0.002  0.00  0.00     0.017 A 
ATOM      2  C2  <0> d           1.205  -0.633  -0.013  0.00  0.00     0.025 A 
ATOM      3  S1  <0> d           2.310   0.772  -0.016  0.00  0.00    -0.084 SA
ATOM      4  C3  <0> d           1.095   2.013   0.002  0.00  0.00     0.040 A 
ATOM      5  N1  <0> d          -0.016   1.312   0.009  0.00  0.00    -0.265 NA
ATOM      6  H1  <0> d          -0.918  -0.570   0.007  0.00  0.00     0.116 H 
ATOM      7  H2  <0> d           1.221   3.085   0.007  0.00  0.00     0.126 H 
ENDROOT
BRANCH   2   8
ATOM      8  C4  <0> d           1.521  -2.106  -0.024  0.00  0.00     0.048 C 
ATOM      9  H3  <0> d           2.472  -2.278   0.480  0.00  0.00     0.082 H 
ATOM     10  H4  <0> d           0.732  -2.651   0.494  0.00  0.00     0.082 H 
BRANCH   8  11
ATOM     11  O1  <0> d           1.608  -2.564  -1.375  0.00  0.00    -0.396 OA
ATOM     12  H5  <0> d           1.810  -3.507  -1.459  0.00  0.00     0.209 HD
ENDBRANCH   8  11
ENDBRANCH   2   8
TORSDOF 2
