REMARK  4 active torsions:
REMARK  status: ('A' for Active; 'I' for Inactive)
REMARK    1  A    between atoms: C1_1  and  N1_2 
REMARK    2  A    between atoms: C3_4  and  C4_7 
REMARK    3  A    between atoms: C4_7  and  O2_9 
REMARK    4  A    between atoms: O2_9  and  C5_10 
ROOT
ATOM      1  N1  <0> d           1.304  -0.370  -0.012  0.00  0.00    -0.230 N 
ATOM      2  C2  <0> d           0.002  -0.004   0.002  0.00  0.00     0.235 A 
ATOM      3  C3  <0> d          -0.017   1.383   0.010  0.00  0.00     0.210 A 
ATOM      4  N2  <0> d           1.258   1.817  -0.000  0.00  0.00    -0.121 NA
ATOM      5  N3  <0> d           2.059   0.811  -0.013  0.00  0.00    -0.063 NA
ATOM      6  O3  <0> d          -1.071  -0.829   0.009  0.00  0.00    -0.168 OA
ENDROOT
BRANCH   3   7
ATOM      7  C4  <0> d          -1.216   2.229   0.020  0.00  0.00     0.318 C 
ATOM      8  O1  <0> d          -2.320   1.718   0.023  0.00  0.00    -0.257 OA
BRANCH   7   9
ATOM      9  O2  <0> d          -1.094   3.571   0.027  0.00  0.00    -0.321 OA
BRANCH   9  10
ATOM     10  C5  <0> d          -2.323   4.345   0.037  0.00  0.00     0.013 C 
ATOM     11  H4  <0> d          -2.081   5.418   0.042  0.00  0.00     0.067 H 
ATOM     12  H5  <0> d          -2.905   4.097   0.937  0.00  0.00     0.067 H 
ATOM     13  H6  <0> d          -2.914   4.106  -0.859  0.00  0.00     0.067 H 
ENDBRANCH   9  10
ENDBRANCH   7   9
ENDBRANCH   3   7
BRANCH   1  14
ATOM     14  C1  <0> d           1.825  -1.739  -0.024  0.00  0.00     0.006 C 
ATOM     15  H1  <0> d           0.986  -2.450  -0.020  0.00  0.00     0.059 H 
ATOM     16  H2  <0> d           2.448  -1.901   0.867  0.00  0.00     0.059 H 
ATOM     17  H3  <0> d           2.432  -1.892  -0.929  0.00  0.00     0.059 H 
ENDBRANCH   1  14
TORSDOF 4
