REMARK  1 active torsions:
REMARK  status: ('A' for Active; 'I' for Inactive)
REMARK    1  A    between atoms: C7_7  and  N3_11 
ROOT
ATOM      1  C1  <0> d          -0.013   1.076   0.008  0.00  0.00    -0.082 A 
ATOM      2  C2  <0> d          -1.233   1.747   0.017  0.00  0.00    -0.081 A 
ATOM      3  C3  <0> d          -1.289   3.107   0.031  0.00  0.00    -0.052 A 
ATOM      4  C4  <0> d          -0.097   3.851   0.024  0.00  0.00     0.091 A 
ATOM      5  C5  <0> d           1.143   3.164   0.008  0.00  0.00     0.022 A 
ATOM      6  C6  <0> d           1.164   1.764   0.000  0.00  0.00    -0.069 A 
ATOM      7  C7  <0> d           2.329   3.935   0.002  0.00  0.00     0.058 A 
ATOM      8  C8  <0> d           2.189   5.316   0.011  0.00  0.00     0.050 A 
ATOM      9  N1  <0> d           0.987   5.867   0.026  0.00  0.00    -0.160 NA
ATOM     10  N2  <0> d          -0.102   5.188   0.032  0.00  0.00    -0.150 NA
ATOM     11  H1  <0> d           0.002  -0.004   0.002  0.00  0.00     0.083 H 
ATOM     12  H2  <0> d          -2.152   1.178   0.018  0.00  0.00     0.083 H 
ATOM     13  H3  <0> d          -2.244   3.612   0.042  0.00  0.00     0.087 H 
ATOM     14  H4  <0> d           2.105   1.234  -0.011  0.00  0.00     0.085 H 
ATOM     15  H5  <0> d           3.068   5.944   0.007  0.00  0.00     0.121 H 
ENDROOT
BRANCH   7  16
ATOM     16  N3  <0> d           3.580   3.336  -0.013  0.00  0.00    -0.397 N 
ATOM     17  H6  <0> d           3.655   2.369  -0.020  0.00  0.00     0.156 HD
ATOM     18  H7  <0> d           4.380   3.884  -0.018  0.00  0.00     0.156 HD
ENDBRANCH   7  16
TORSDOF 1
