REMARK  2 active torsions:
REMARK  status: ('A' for Active; 'I' for Inactive)
REMARK    1  A    between atoms: C4_4  and  C7_7 
REMARK    2  A    between atoms: C7_7  and  N1_8 
REMARK       I    between atoms: N1_8  and  C8_9 
REMARK       I    between atoms: C8_9  and  N2_11 
ROOT
ATOM      1  C1  <0> d          -0.017   1.378   0.010  0.00  0.00    -0.083 A 
ATOM      2  C2  <0> d           1.171   2.086   0.002  0.00  0.00    -0.082 A 
ATOM      3  C3  <0> d           2.377   1.411  -0.013  0.00  0.00    -0.075 A 
ATOM      4  C4  <0> d           2.396   0.029  -0.020  0.00  0.00    -0.040 A 
ATOM      5  C5  <0> d           1.208  -0.679  -0.012  0.00  0.00    -0.075 A 
ATOM      6  C6  <0> d           0.002  -0.004   0.002  0.00  0.00    -0.082 A 
ATOM      7  H1  <0> d          -0.959   1.905   0.026  0.00  0.00     0.083 H 
ATOM      8  H2  <0> d           1.156   3.165   0.008  0.00  0.00     0.083 H 
ATOM      9  H3  <0> d           3.305   1.963  -0.020  0.00  0.00     0.084 H 
ATOM     10  H4  <0> d           1.223  -1.759  -0.018  0.00  0.00     0.084 H 
ATOM     11  H5  <0> d          -0.926  -0.557   0.008  0.00  0.00     0.083 H 
ENDROOT
BRANCH   4  12
ATOM     12  C7  <0> d           3.711  -0.707  -0.038  0.00  0.00     0.021 C 
ATOM     13  H6  <0> d           3.588  -1.659  -0.555  0.00  0.00     0.071 H 
ATOM     14  H7  <0> d           4.457  -0.105  -0.556  0.00  0.00     0.071 H 
BRANCH  12  15
ATOM     15  N1  <0> d           4.152  -0.952   1.338  0.00  0.00    -0.339 N 
ATOM     16  C8  <0> d           5.311  -1.601   1.569  0.00  0.00     0.314 C 
ATOM     17  O1  <0> d           5.991  -1.982   0.636  0.00  0.00    -0.248 OA
ATOM     18  N2  <0> d           5.716  -1.826   2.834  0.00  0.00    -0.352 N 
ATOM     19  H9  <0> d           5.174  -1.522   3.579  0.00  0.00     0.160 HD
ATOM     20  H10 <0> d           6.550  -2.292   3.000  0.00  0.00     0.160 HD
ATOM     21  H8  <0> d           3.610  -0.648   2.082  0.00  0.00     0.164 HD
ENDBRANCH  12  15
ENDBRANCH   4  12
TORSDOF 2
