REMARK  1 active torsions:
REMARK  status: ('A' for Active; 'I' for Inactive)
REMARK    1  A    between atoms: C4_4  and  N1_6 
REMARK       I    between atoms: N1_6  and  C6_7 
REMARK       I    between atoms: C6_7  and  N2_9 
ROOT
ATOM      1  C1  <0> d          -2.243   1.875  -0.703  0.00  0.00    -0.063 C 
ATOM      2  C2  <0> d          -0.809   1.622  -1.200  0.00  0.00    -0.063 C 
ATOM      3  C3  <0> d          -0.013   1.086   0.008  0.00  0.00    -0.046 C 
ATOM      4  C4  <0> d          -0.789   1.611   1.242  0.00  0.00     0.014 C 
ATOM      5  C5  <0> d          -2.268   1.485   0.789  0.00  0.00    -0.046 C 
ATOM      6  H1  <0> d          -2.497   2.929  -0.818  0.00  0.00     0.033 H 
ATOM      7  H2  <0> d          -2.946   1.258  -1.263  0.00  0.00     0.033 H 
ATOM      8  H3  <0> d          -0.367   2.552  -1.555  0.00  0.00     0.033 H 
ATOM      9  H4  <0> d          -0.816   0.882  -2.000  0.00  0.00     0.033 H 
ATOM     10  H5  <0> d           0.002  -0.004   0.002  0.00  0.00     0.035 H 
ATOM     11  H6  <0> d           1.003   1.480   0.000  0.00  0.00     0.035 H 
ATOM     12  H7  <0> d          -0.534   2.651   1.444  0.00  0.00     0.072 H 
ATOM     13  H8  <0> d          -2.899   2.172   1.353  0.00  0.00     0.035 H 
ATOM     14  H9  <0> d          -2.620   0.460   0.909  0.00  0.00     0.035 H 
ENDROOT
BRANCH   4  15
ATOM     15  N1  <0> d          -0.528   0.772   2.414  0.00  0.00    -0.339 N 
ATOM     16  C6  <0> d          -0.663   1.286   3.653  0.00  0.00     0.314 C 
ATOM     17  O1  <0> d          -1.001   2.445   3.797  0.00  0.00    -0.248 OA
ATOM     18  N2  <0> d          -0.423   0.515   4.732  0.00  0.00    -0.352 N 
ATOM     19  H11 <0> d          -0.153  -0.410   4.617  0.00  0.00     0.160 HD
ATOM     20  H12 <0> d          -0.520   0.884   5.624  0.00  0.00     0.160 HD
ATOM     21  H10 <0> d          -0.258  -0.152   2.299  0.00  0.00     0.164 HD
ENDBRANCH   4  15
TORSDOF 1
