REMARK  1 active torsions:
REMARK  status: ('A' for Active; 'I' for Inactive)
REMARK    1  A    between atoms: C3_3  and  C5_6 
ROOT
ATOM      1  C1  <0> d           1.032   1.944   0.003  0.00  0.00    -0.075 A 
ATOM      2  C2  <0> d           0.780   3.297   0.012  0.00  0.00    -0.064 A 
ATOM      3  C3  <0> d          -0.522   3.725   0.027  0.00  0.00     0.035 A 
ATOM      4  S1  <0> d          -1.416   2.179   0.019  0.00  0.00    -0.100 SA
ATOM      5  C4  <0> d          -0.013   1.076   0.008  0.00  0.00    -0.044 A 
ATOM      6  H1  <0> d           2.048   1.578  -0.009  0.00  0.00     0.084 H 
ATOM      7  H2  <0> d           1.592   4.009   0.009  0.00  0.00     0.085 H 
ATOM      8  H3  <0> d           0.002  -0.004   0.002  0.00  0.00     0.095 H 
ENDROOT
BRANCH   3   9
ATOM      9  C5  <0> d          -1.049   5.105   0.039  0.00  0.00     0.103 A 
ATOM     10  N1  <0> d          -0.350   6.216   0.037  0.00  0.00    -0.128 NA
ATOM     11  O1  <0> d          -1.069   7.188   0.048  0.00  0.00    -0.225 OA
ATOM     12  C7  <0> d          -2.367   6.850   0.059  0.00  0.00     0.046 A 
ATOM     13  C6  <0> d          -2.418   5.500   0.048  0.00  0.00    -0.028 A 
ATOM     14  H5  <0> d          -3.209   7.527   0.070  0.00  0.00     0.126 H 
ATOM     15  H4  <0> d          -3.293   4.867   0.049  0.00  0.00     0.090 H 
ENDBRANCH   3   9
TORSDOF 1
