REMARK  2 active torsions:
REMARK  status: ('A' for Active; 'I' for Inactive)
REMARK    1  A    between atoms: C4_5  and  C6_7 
REMARK    2  A    between atoms: C6_7  and  O2_8 
ROOT
ATOM      1  C1  <0> d          -0.013   1.086   0.008  0.00  0.00    -0.030 C 
ATOM      2  C2  <0> d          -0.728   1.579   1.269  0.00  0.00     0.023 C 
ATOM      3  O1  <0> d          -2.130   1.319   1.124  0.00  0.00    -0.387 OA
ATOM      4  C3  <0> d          -2.745   2.119   0.113  0.00  0.00     0.041 C 
ATOM      5  C4  <0> d          -1.956   2.039  -1.162  0.00  0.00    -0.037 C 
ATOM      6  C5  <0> d          -0.739   1.583  -1.211  0.00  0.00    -0.095 C 
ATOM      7  H1  <0> d           0.002  -0.004   0.002  0.00  0.00     0.042 H 
ATOM      8  H2  <0> d           1.010   1.463   0.000  0.00  0.00     0.042 H 
ATOM      9  H3  <0> d          -0.345   1.048   2.140  0.00  0.00     0.074 H 
ATOM     10  H4  <0> d          -0.564   2.650   1.389  0.00  0.00     0.074 H 
ATOM     11  H5  <0> d          -2.787   3.156   0.448  0.00  0.00     0.081 H 
ATOM     12  H6  <0> d          -3.758   1.757  -0.065  0.00  0.00     0.081 H 
ATOM     13  H7  <0> d          -0.231   1.562  -2.164  0.00  0.00     0.077 H 
ENDROOT
BRANCH   5  14
ATOM     14  C6  <0> d          -2.602   2.506  -2.441  0.00  0.00     0.039 C 
ATOM     15  H8  <0> d          -3.498   1.916  -2.631  0.00  0.00     0.081 H 
ATOM     16  H9  <0> d          -2.873   3.558  -2.348  0.00  0.00     0.081 H 
BRANCH  14  17
ATOM     17  O2  <0> d          -1.685   2.344  -3.525  0.00  0.00    -0.397 OA
ATOM     18  H10 <0> d          -2.035   2.625  -4.381  0.00  0.00     0.209 HD
ENDBRANCH  14  17
ENDBRANCH   5  14
TORSDOF 2
