REMARK  2 active torsions:
REMARK  status: ('A' for Active; 'I' for Inactive)
REMARK    1  A    between atoms: C2_2  and  C3_3 
REMARK    2  A    between atoms: C3_3  and  N1_4 
ROOT
ATOM      1  C1  <0> d           3.477   4.542   0.847  0.00  0.00    -0.152 C 
ATOM      2  C2  <0> d           3.495   3.380   1.008  0.00  0.00    -0.087 C 
ATOM      3  H1  <0> d           3.460   5.632   0.696  0.00  0.00     0.166 H 
ENDROOT
BRANCH   2   4
ATOM      4  C3  <0> d           3.519   1.922   1.210  0.00  0.00     0.166 C 
ATOM      5  H2  <0> d           4.125   1.452   0.421  0.00  0.00     0.099 H 
ATOM      6  H3  <0> d           3.956   1.695   2.193  0.00  0.00     0.099 H 
BRANCH   4   7
ATOM      7  N1  <0> d           2.148   1.397   1.151  0.00  0.00     0.103 N 
ATOM      8  C7  <0> d           2.147  -0.072   1.111  0.00  0.00     0.134 C 
ATOM      9  C6  <0> d           0.701  -0.577   1.111  0.00  0.00     0.044 C 
ATOM     10  H10 <0> d           2.656  -0.414   0.198  0.00  0.00     0.083 H 
ATOM     11  H11 <0> d           2.674  -0.464   1.994  0.00  0.00     0.083 H 
ATOM     12  O1  <0> d           0.002  -0.004   0.002  0.00  0.00    -0.388 OA
ATOM     13  H8  <0> d           0.207  -0.280   2.048  0.00  0.00     0.077 H 
ATOM     14  H9  <0> d           0.693  -1.673   1.022  0.00  0.00     0.077 H 
ATOM     15  C5  <0> d          -0.017   1.426   0.010  0.00  0.00     0.044 C 
ATOM     16  C4  <0> d           1.421   1.950  -0.001  0.00  0.00     0.134 C 
ATOM     17  H6  <0> d          -0.531   1.783   0.915  0.00  0.00     0.077 H 
ATOM     18  H7  <0> d          -0.548   1.792  -0.881  0.00  0.00     0.077 H 
ATOM     19  H4  <0> d           1.413   3.049   0.063  0.00  0.00     0.083 H 
ATOM     20  H5  <0> d           1.919   1.641  -0.932  0.00  0.00     0.083 H 
ENDBRANCH   4   7
ENDBRANCH   2   4
TORSDOF 2
