REMARK  3 active torsions:
REMARK  status: ('A' for Active; 'I' for Inactive)
REMARK    1  A    between atoms: C1_1  and  C2_2 
REMARK    2  A    between atoms: C2_2  and  C3_3 
REMARK    3  A    between atoms: C2_2  and  N1_4 
ROOT
ATOM      1  C2  <0> d          -0.729   1.579   1.267  0.00  0.00     0.010 C 
ATOM      2  H4  <0> d          -1.751   1.202   1.275  0.00  0.00     0.072 H 
ENDROOT
BRANCH   1   3
ATOM      3  C1  <0> d          -0.013   1.086   0.008  0.00  0.00    -0.057 C 
ATOM      4  H1  <0> d           0.002  -0.004   0.002  0.00  0.00     0.030 H 
ATOM      5  H2  <0> d           1.010   1.463   0.000  0.00  0.00     0.030 H 
ATOM      6  H3  <0> d          -0.540   1.447  -0.875  0.00  0.00     0.030 H 
ENDBRANCH   1   3
BRANCH   1   7
ATOM      7  C3  <0> d           0.011   1.072   2.506  0.00  0.00    -0.057 C 
ATOM      8  H5  <0> d           1.034   1.450   2.499  0.00  0.00     0.030 H 
ATOM      9  H6  <0> d          -0.499   1.424   3.403  0.00  0.00     0.030 H 
ATOM     10  H7  <0> d           0.026  -0.018   2.500  0.00  0.00     0.030 H 
ENDBRANCH   1   7
BRANCH   1  11
ATOM     11  N1  <0> d          -0.749   3.044   1.275  0.00  0.00    -0.346 N 
ATOM     12  C6  <0> d           0.327   3.860   1.268  0.00  0.00     0.066 A 
ATOM     13  N2  <0> d          -0.086   5.098   1.279  0.00  0.00    -0.255 NA
ATOM     14  H10 <0> d           1.359   3.541   1.257  0.00  0.00     0.143 H 
ATOM     15  C5  <0> d          -1.427   5.116   1.293  0.00  0.00     0.018 A 
ATOM     16  C4  <0> d          -1.861   3.841   1.284  0.00  0.00    -0.002 A 
ATOM     17  H9  <0> d          -2.050   5.998   1.303  0.00  0.00     0.117 H 
ATOM     18  H8  <0> d          -2.890   3.511   1.287  0.00  0.00     0.113 H 
ENDBRANCH   1  11
TORSDOF 3
