REMARK  2 active torsions:
REMARK  status: ('A' for Active; 'I' for Inactive)
REMARK    1  A    between atoms: C1_1  and  N1_2 
REMARK    2  A    between atoms: C8_10  and  N3_11 
ROOT
ATOM      1  N1  <0> d           2.088   0.635  -0.014  0.00  0.00    -0.344 N 
ATOM      2  C2  <0> d           1.233  -0.424  -0.012  0.00  0.00     0.067 A 
ATOM      3  N2  <0> d           0.002  -0.004   0.002  0.00  0.00    -0.239 NA
ATOM      4  C3  <0> d          -0.016   1.354   0.009  0.00  0.00     0.111 A 
ATOM      5  C4  <0> d           1.320   1.782  -0.001  0.00  0.00     0.066 A 
ATOM      6  C5  <0> d           1.614   3.140   0.004  0.00  0.00    -0.054 A 
ATOM      7  C6  <0> d           0.592   4.066   0.018  0.00  0.00    -0.079 A 
ATOM      8  C7  <0> d          -0.732   3.653   0.029  0.00  0.00    -0.055 A 
ATOM      9  C8  <0> d          -1.046   2.306   0.029  0.00  0.00     0.057 A 
ATOM     10  H4  <0> d           1.533  -1.462  -0.020  0.00  0.00     0.143 H 
ATOM     11  H5  <0> d           2.642   3.471  -0.005  0.00  0.00     0.087 H 
ATOM     12  H6  <0> d           0.825   5.120   0.022  0.00  0.00     0.083 H 
ATOM     13  H7  <0> d          -1.523   4.389   0.041  0.00  0.00     0.087 H 
ENDROOT
BRANCH   1  14
ATOM     14  C1  <0> d           3.551   0.570  -0.029  0.00  0.00    -0.013 C 
ATOM     15  H1  <0> d           3.904   0.559  -1.061  0.00  0.00     0.057 H 
ATOM     16  H2  <0> d           3.959   1.440   0.485  0.00  0.00     0.057 H 
ATOM     17  H3  <0> d           3.880  -0.338   0.476  0.00  0.00     0.057 H 
ENDBRANCH   1  14
BRANCH   9  18
ATOM     18  N3  <0> d          -2.381   1.897   0.046  0.00  0.00    -0.397 N 
ATOM     19  H8  <0> d          -2.598   0.952   0.044  0.00  0.00     0.156 HD
ATOM     20  H9  <0> d          -3.091   2.558   0.060  0.00  0.00     0.156 HD
ENDBRANCH   9  18
TORSDOF 2
