REMARK  2 active torsions:
REMARK  status: ('A' for Active; 'I' for Inactive)
REMARK    1  A    between atoms: C1_1  and  C2_2 
REMARK    2  A    between atoms: C6_6  and  N2_12 
ROOT
ATOM      1  C2  <0> d           2.387   0.119  -0.020  0.00  0.00     0.031 A 
ATOM      2  C3  <0> d           1.216  -0.633  -0.013  0.00  0.00    -0.059 A 
ATOM      3  C4  <0> d           0.002  -0.004   0.002  0.00  0.00    -0.067 A 
ATOM      4  C5  <0> d          -0.017   1.401   0.010  0.00  0.00     0.019 A 
ATOM      5  C6  <0> d          -1.232   2.119   0.031  0.00  0.00     0.038 A 
ATOM      6  C7  <0> d          -1.202   3.498   0.032  0.00  0.00    -0.057 A 
ATOM      7  C8  <0> d           0.010   4.180   0.025  0.00  0.00    -0.079 A 
ATOM      8  C9  <0> d           1.196   3.511   0.009  0.00  0.00    -0.054 A 
ATOM      9  C10 <0> d           1.212   2.106   0.002  0.00  0.00     0.069 A 
ATOM     10  N1  <0> d           2.365   1.430  -0.013  0.00  0.00    -0.253 NA
ATOM     11  H4  <0> d           1.265  -1.712  -0.019  0.00  0.00     0.086 H 
ATOM     12  H5  <0> d          -0.917  -0.571   0.007  0.00  0.00     0.085 H 
ATOM     13  H6  <0> d          -2.128   4.053   0.044  0.00  0.00     0.086 H 
ATOM     14  H7  <0> d           0.011   5.260   0.031  0.00  0.00     0.083 H 
ATOM     15  H8  <0> d           2.126   4.061   0.003  0.00  0.00     0.087 H 
ENDROOT
BRANCH   1  16
ATOM     16  C1  <0> d           3.716  -0.593  -0.037  0.00  0.00    -0.035 C 
ATOM     17  H1  <0> d           4.026  -0.758  -1.069  0.00  0.00     0.035 H 
ATOM     18  H2  <0> d           4.461   0.017   0.473  0.00  0.00     0.035 H 
ATOM     19  H3  <0> d           3.621  -1.552   0.472  0.00  0.00     0.035 H 
ENDBRANCH   1  16
BRANCH   5  20
ATOM     20  N2  <0> d          -2.448   1.442   0.044  0.00  0.00    -0.398 N 
ATOM     21  H9  <0> d          -2.463   0.472   0.039  0.00  0.00     0.156 HD
ATOM     22  H10 <0> d          -3.280   1.940   0.059  0.00  0.00     0.156 HD
ENDBRANCH   5  20
TORSDOF 2
