REMARK  8 active torsions:
REMARK  status: ('A' for Active; 'I' for Inactive)
REMARK    1  A    between atoms: C1_1  and  C2_2 
REMARK    2  A    between atoms: C2_2  and  C3_4 
REMARK    3  A    between atoms: C2_2  and  O3_11 
REMARK    4  A    between atoms: C3_4  and  O2_6 
REMARK    5  A    between atoms: O2_6  and  C4_7 
REMARK    6  A    between atoms: C4_7  and  C5_8 
REMARK    7  A    between atoms: C4_7  and  C6_9 
REMARK    8  A    between atoms: C4_7  and  C7_10 
ROOT
ATOM      1  C4  <0> d           2.367   1.117  -0.015  0.00  0.00     0.060 C 
ENDROOT
BRANCH   1   2
ATOM      2  O2  <0> d           1.139   1.891   0.001  0.00  0.00    -0.309 OA
BRANCH   2   3
ATOM      3  C3  <0> d          -0.014   1.204   0.009  0.00  0.00     0.288 C 
ATOM      4  O1  <0> d           0.002  -0.004   0.002  0.00  0.00    -0.262 OA
BRANCH   3   5
ATOM      5  C2  <0> d          -1.329   1.940   0.019  0.00  0.00     0.115 C 
ATOM      6  H1  <0> d          -1.355   2.627   0.865  0.00  0.00     0.098 H 
BRANCH   5   7
ATOM      7  C1  <0> d          -1.483   2.728  -1.284  0.00  0.00    -0.044 C 
ATOM      8  H2  <0> d          -1.458   2.041  -2.129  0.00  0.00     0.031 H 
ATOM      9  H3  <0> d          -2.434   3.260  -1.276  0.00  0.00     0.031 H 
ATOM     10  H4  <0> d          -0.667   3.444  -1.373  0.00  0.00     0.031 H 
ENDBRANCH   5   7
BRANCH   5  11
ATOM     11  O3  <0> d          -2.400   1.000   0.136  0.00  0.00    -0.386 OA
ATOM     12  H14 <0> d          -2.439   0.356  -0.584  0.00  0.00     0.210 HD
ENDBRANCH   5  11
ENDBRANCH   3   5
ENDBRANCH   2   3
ENDBRANCH   1   2
BRANCH   1  13
ATOM     13  C5  <0> d           2.402   0.241  -1.269  0.00  0.00    -0.048 C 
ATOM     14  H5  <0> d           2.360   0.875  -2.155  0.00  0.00     0.031 H 
ATOM     15  H6  <0> d           3.324  -0.340  -1.281  0.00  0.00     0.031 H 
ATOM     16  H7  <0> d           1.547  -0.434  -1.264  0.00  0.00     0.031 H 
ENDBRANCH   1  13
BRANCH   1  17
ATOM     17  C6  <0> d           3.568   2.065  -0.021  0.00  0.00    -0.048 C 
ATOM     18  H8  <0> d           3.543   2.689   0.873  0.00  0.00     0.031 H 
ATOM     19  H9  <0> d           4.490   1.484  -0.033  0.00  0.00     0.031 H 
ATOM     20  H10 <0> d           3.526   2.698  -0.907  0.00  0.00     0.031 H 
ENDBRANCH   1  17
BRANCH   1  21
ATOM     21  C7  <0> d           2.426   0.228   1.229  0.00  0.00    -0.048 C 
ATOM     22  H11 <0> d           1.571  -0.448   1.234  0.00  0.00     0.031 H 
ATOM     23  H12 <0> d           3.348  -0.353   1.218  0.00  0.00     0.031 H 
ATOM     24  H13 <0> d           2.401   0.852   2.123  0.00  0.00     0.031 H 
ENDBRANCH   1  21
TORSDOF 8
