REMARK  4 active torsions:
REMARK  status: ('A' for Active; 'I' for Inactive)
REMARK    1  A    between atoms: C1_1  and  C2_2 
REMARK    2  A    between atoms: C2_2  and  C3_3 
REMARK    3  A    between atoms: C3_3  and  C6_7 
REMARK    4  A    between atoms: C4_4  and  C5_5 
ROOT
ATOM      1  C3  <0> d           2.413   3.679   0.099  0.00  0.00    -0.078 C 
ATOM      2  C4  <0> d           1.241   3.064  -0.042  0.00  0.00    -0.008 C 
ATOM      3  H6  <0> d           0.337   3.644  -0.153  0.00  0.00     0.094 H 
ENDROOT
BRANCH   1   4
ATOM      4  C2  <0> d           3.690   2.880   0.083  0.00  0.00    -0.048 C 
ATOM      5  H4  <0> d           3.546   1.977  -0.510  0.00  0.00     0.039 H 
ATOM      6  H5  <0> d           4.488   3.479  -0.356  0.00  0.00     0.039 H 
BRANCH   4   7
ATOM      7  C1  <0> d           4.069   2.495   1.514  0.00  0.00    -0.073 C 
ATOM      8  H1  <0> d           4.213   3.399   2.107  0.00  0.00     0.028 H 
ATOM      9  H2  <0> d           3.271   1.896   1.953  0.00  0.00     0.028 H 
ATOM     10  H3  <0> d           4.993   1.917   1.503  0.00  0.00     0.028 H 
ENDBRANCH   4   7
ENDBRANCH   1   4
BRANCH   1  11
ATOM     11  C6  <0> d           2.462   5.175   0.276  0.00  0.00    -0.054 C 
ATOM     12  H7  <0> d           2.413   5.418   1.337  0.00  0.00     0.033 H 
ATOM     13  H8  <0> d           3.392   5.560  -0.143  0.00  0.00     0.033 H 
ATOM     14  H9  <0> d           1.616   5.630  -0.241  0.00  0.00     0.033 H 
ENDBRANCH   1  11
BRANCH   2  15
ATOM     15  C5  <0> d           1.178   1.596  -0.046  0.00  0.00     0.198 C 
ATOM     16  O1  <0> d           2.175   0.944   0.192  0.00  0.00    -0.644 OA
ATOM     17  O2  <0> d           0.013   0.972  -0.315  0.00  0.00    -0.644 OA
ENDBRANCH   2  15
TORSDOF 4
