REMARK  2 active torsions:
REMARK  status: ('A' for Active; 'I' for Inactive)
REMARK    1  A    between atoms: C3_3  and  O1_10 
REMARK    2  A    between atoms: C6_6  and  N1_7 
ROOT
ATOM      1  C1  <0> d           2.388   1.410  -0.013  0.00  0.00    -0.052 A 
ATOM      2  C2  <0> d           2.405   0.028  -0.020  0.00  0.00    -0.046 A 
ATOM      3  C3  <0> d           1.215  -0.681  -0.013  0.00  0.00     0.107 A 
ATOM      4  C4  <0> d           0.002  -0.004   0.002  0.00  0.00     0.190 A 
ATOM      5  C5  <0> d          -0.017   1.380   0.010  0.00  0.00     0.183 A 
ATOM      6  C6  <0> d           1.179   2.090   0.002  0.00  0.00     0.068 A 
ATOM      7  F1  <0> d          -1.195   2.040   0.019  0.00  0.00    -0.200 F 
ATOM      8  F2  <0> d          -1.158  -0.696   0.009  0.00  0.00    -0.200 F 
ATOM      9  H1  <0> d           3.317   1.961  -0.019  0.00  0.00     0.087 H 
ATOM     10  H2  <0> d           3.348  -0.500  -0.032  0.00  0.00     0.088 H 
ENDROOT
BRANCH   6  11
ATOM     11  N1  <0> d           1.162   3.491   0.009  0.00  0.00    -0.397 N 
ATOM     12  H3  <0> d           0.316   3.965   0.019  0.00  0.00     0.156 HD
ATOM     13  H4  <0> d           1.996   3.986   0.004  0.00  0.00     0.156 HD
ENDBRANCH   6  11
BRANCH   3  14
ATOM     14  O1  <0> d           1.234  -2.042  -0.021  0.00  0.00    -0.357 OA
ATOM     15  H5  <0> d           1.231  -2.430  -0.906  0.00  0.00     0.217 HD
ENDBRANCH   3  14
TORSDOF 2
