REMARK  1 active torsions:
REMARK  status: ('A' for Active; 'I' for Inactive)
REMARK    1  A    between atoms: N2_4  and  C4_6 
ROOT
ATOM      1  C4  <0> d           1.771  -1.782  -0.025  0.00  0.00     0.034 C 
ATOM      2  C5  <0> d           0.777  -2.678  -0.792  0.00  0.00    -0.044 C 
ATOM      3  C6  <0> d           0.782  -4.012  -0.005  0.00  0.00    -0.063 C 
ATOM      4  C7  <0> d           0.882  -3.539   1.467  0.00  0.00    -0.063 C 
ATOM      5  C8  <0> d           1.838  -2.330   1.412  0.00  0.00    -0.044 C 
ATOM      6  H4  <0> d           2.756  -1.833  -0.490  0.00  0.00     0.075 H 
ATOM      7  H5  <0> d          -0.219  -2.235  -0.786  0.00  0.00     0.036 H 
ATOM      8  H6  <0> d           1.119  -2.838  -1.815  0.00  0.00     0.036 H 
ATOM      9  H7  <0> d          -0.144  -4.562  -0.171  0.00  0.00     0.033 H 
ATOM     10  H8  <0> d           1.646  -4.618  -0.276  0.00  0.00     0.033 H 
ATOM     11  H9  <0> d          -0.097  -3.235   1.838  0.00  0.00     0.033 H 
ATOM     12  H10 <0> d           1.300  -4.328   2.093  0.00  0.00     0.033 H 
ATOM     13  H11 <0> d           2.855  -2.647   1.644  0.00  0.00     0.036 H 
ATOM     14  H12 <0> d           1.514  -1.566   2.118  0.00  0.00     0.036 H 
ENDROOT
BRANCH   1  15
ATOM     15  N2  <0> d           1.293  -0.398  -0.012  0.00  0.00    -0.277 N 
ATOM     16  N1  <0> d           2.094   0.751  -0.014  0.00  0.00    -0.185 NA
ATOM     17  C2  <0> d           1.308   1.797  -0.001  0.00  0.00     0.023 A 
ATOM     18  C1  <0> d          -0.016   1.349   0.009  0.00  0.00    -0.048 A 
ATOM     19  H2  <0> d           1.628   2.829   0.002  0.00  0.00     0.117 H 
ATOM     20  C3  <0> d           0.002  -0.004   0.002  0.00  0.00     0.000 A 
ATOM     21  H1  <0> d          -0.898   1.972   0.025  0.00  0.00     0.087 H 
ATOM     22  H3  <0> d          -0.862  -0.653   0.007  0.00  0.00     0.114 H 
ENDBRANCH   1  15
TORSDOF 1
