REMARK  5 active torsions:
REMARK  status: ('A' for Active; 'I' for Inactive)
REMARK    1  A    between atoms: C1_1  and  C2_2 
REMARK    2  A    between atoms: C2_2  and  C3_3 
REMARK    3  A    between atoms: C2_2  and  C4_4 
REMARK    4  A    between atoms: C6_6  and  C7_9 
REMARK    5  A    between atoms: C7_9  and  O2_10 
ROOT
ATOM      1  C4  <0> d          -1.138   1.931   0.017  0.00  0.00     0.068 A 
ATOM      2  C5  <0> d          -0.013   1.076   0.008  0.00  0.00    -0.024 A 
ATOM      3  C6  <0> d           1.043   1.924   0.002  0.00  0.00     0.104 A 
ATOM      4  O1  <0> d           0.534   3.164   0.013  0.00  0.00    -0.215 OA
ATOM      5  N1  <0> d          -0.675   3.148   0.024  0.00  0.00    -0.133 NA
ATOM      6  H8  <0> d           0.002  -0.004   0.002  0.00  0.00     0.090 H 
ENDROOT
BRANCH   1   7
ATOM      7  C2  <0> d          -2.587   1.516   0.021  0.00  0.00    -0.017 C 
ATOM      8  H4  <0> d          -3.191   2.310   0.462  0.00  0.00     0.048 H 
BRANCH   7   9
ATOM      9  C1  <0> d          -3.049   1.262  -1.415  0.00  0.00    -0.068 C 
ATOM     10  H1  <0> d          -4.097   0.963  -1.412  0.00  0.00     0.028 H 
ATOM     11  H2  <0> d          -2.934   2.175  -2.001  0.00  0.00     0.028 H 
ATOM     12  H3  <0> d          -2.445   0.469  -1.856  0.00  0.00     0.028 H 
ENDBRANCH   7   9
BRANCH   7  13
ATOM     13  C3  <0> d          -2.749   0.236   0.843  0.00  0.00    -0.068 C 
ATOM     14  H5  <0> d          -2.420   0.417   1.866  0.00  0.00     0.028 H 
ATOM     15  H6  <0> d          -3.797  -0.064   0.846  0.00  0.00     0.028 H 
ATOM     16  H7  <0> d          -2.145  -0.557   0.402  0.00  0.00     0.028 H 
ENDBRANCH   7  13
ENDBRANCH   1   7
BRANCH   3  17
ATOM     17  C7  <0> d           2.503   1.549  -0.013  0.00  0.00     0.063 C 
ATOM     18  H9  <0> d           3.081   2.317   0.500  0.00  0.00     0.084 H 
ATOM     19  H10 <0> d           2.637   0.594   0.495  0.00  0.00     0.084 H 
BRANCH  17  20
ATOM     20  O2  <0> d           2.951   1.436  -1.365  0.00  0.00    -0.394 OA
ATOM     21  H11 <0> d           3.884   1.196  -1.451  0.00  0.00     0.209 HD
ENDBRANCH  17  20
ENDBRANCH   3  17
TORSDOF 5
