REMARK  4 active torsions:
REMARK  status: ('A' for Active; 'I' for Inactive)
REMARK    1  A    between atoms: C1_1  and  C2_2 
REMARK    2  A    between atoms: C2_2  and  C3_3 
REMARK    3  A    between atoms: C4_4  and  O2_11 
REMARK    4  A    between atoms: N1_9  and  C8_10 
ROOT
ATOM      1  C3  <0> d           1.860   2.081   1.198  0.00  0.00     0.048 A 
ATOM      2  C4  <0> d           1.215   1.577   0.119  0.00  0.00     0.139 A 
ATOM      3  C5  <0> d           1.851   1.617  -1.147  0.00  0.00     0.208 A 
ATOM      4  O1  <0> d           1.292   1.174  -2.140  0.00  0.00    -0.285 OA
ATOM      5  C6  <0> d           3.144   2.180  -1.238  0.00  0.00    -0.017 A 
ATOM      6  C7  <0> d           3.736   2.661  -0.123  0.00  0.00    -0.017 A 
ATOM      7  N1  <0> d           3.106   2.610   1.075  0.00  0.00    -0.362 N 
ATOM      8  H6  <0> d           3.653   2.225  -2.189  0.00  0.00     0.091 H 
ATOM      9  H7  <0> d           4.724   3.092  -0.187  0.00  0.00     0.111 H 
ENDROOT
BRANCH   1  10
ATOM     10  C2  <0> d           1.193   2.050   2.549  0.00  0.00    -0.027 C 
ATOM     11  H4  <0> d           0.453   1.250   2.571  0.00  0.00     0.041 H 
ATOM     12  H5  <0> d           1.942   1.874   3.321  0.00  0.00     0.041 H 
BRANCH  10  13
ATOM     13  C1  <0> d           0.501   3.390   2.807  0.00  0.00    -0.071 C 
ATOM     14  H1  <0> d           1.240   4.191   2.785  0.00  0.00     0.028 H 
ATOM     15  H2  <0> d          -0.248   3.567   2.036  0.00  0.00     0.028 H 
ATOM     16  H3  <0> d           0.018   3.368   3.784  0.00  0.00     0.028 H 
ENDBRANCH  10  13
ENDBRANCH   1  10
BRANCH   7  17
ATOM     17  C8  <0> d           3.779   3.142   2.262  0.00  0.00    -0.015 C 
ATOM     18  H8  <0> d           3.451   4.167   2.437  0.00  0.00     0.057 H 
ATOM     19  H9  <0> d           3.528   2.528   3.127  0.00  0.00     0.057 H 
ATOM     20  H10 <0> d           4.857   3.127   2.106  0.00  0.00     0.057 H 
ENDBRANCH   7  17
BRANCH   2  21
ATOM     21  O2  <0> d          -0.031   1.044   0.248  0.00  0.00    -0.355 OA
ATOM     22  H11 <0> d          -0.035   0.096   0.439  0.00  0.00     0.218 HD
ENDBRANCH   2  21
TORSDOF 4
