REMARK  6 active torsions:
REMARK  status: ('A' for Active; 'I' for Inactive)
REMARK    1  A    between atoms: C1_1  and  C2_2 
REMARK    2  A    between atoms: C2_2  and  C3_3 
REMARK    3  A    between atoms: C3_3  and  C4_4 
REMARK    4  A    between atoms: C4_4  and  C5_5 
REMARK    5  A    between atoms: C5_5  and  C6_6 
REMARK    6  A    between atoms: C6_6  and  C7_7 
ROOT
ATOM      1  C3  <0> d           0.718  -0.497  -1.257  0.00  0.00    -0.064 C 
ATOM      2  H6  <0> d           0.191  -0.136  -2.140  0.00  0.00     0.033 H 
ATOM      3  H7  <0> d           1.741  -0.120  -1.264  0.00  0.00     0.033 H 
ENDROOT
BRANCH   1   4
ATOM      4  C2  <0> d           0.002  -0.004   0.002  0.00  0.00    -0.069 C 
ATOM      5  H4  <0> d           0.529  -0.365   0.885  0.00  0.00     0.032 H 
ATOM      6  H5  <0> d          -1.020  -0.381   0.010  0.00  0.00     0.032 H 
BRANCH   4   7
ATOM      7  C1  <0> d          -0.019   1.526   0.010  0.00  0.00    -0.077 C 
ATOM      8  H1  <0> d           1.004   1.903   0.003  0.00  0.00     0.027 H 
ATOM      9  H2  <0> d          -0.546   1.887  -0.873  0.00  0.00     0.027 H 
ATOM     10  H3  <0> d          -0.529   1.877   0.907  0.00  0.00     0.027 H 
ENDBRANCH   4   7
ENDBRANCH   1   4
BRANCH   1  11
ATOM     11  C4  <0> d           0.739  -2.027  -1.265  0.00  0.00    -0.051 C 
ATOM     12  H8  <0> d           1.266  -2.388  -0.382  0.00  0.00     0.034 H 
ATOM     13  H9  <0> d          -0.284  -2.405  -1.258  0.00  0.00     0.034 H 
BRANCH  11  14
ATOM     14  C5  <0> d           1.444  -2.513  -2.505  0.00  0.00     0.007 C 
ATOM     15  H10 <0> d           1.111  -2.187  -3.479  0.00  0.00     0.060 H 
BRANCH  14  16
ATOM     16  C6  <0> d           2.459  -3.330  -2.402  0.00  0.00    -0.176 C 
BRANCH  16  17
ATOM     17  C7  <0> d           3.474  -4.147  -2.298  0.00  0.00    -0.011 C 
ATOM     18  H11 <0> d           4.477  -3.754  -2.210  0.00  0.00     0.051 H 
ATOM     19  H12 <0> d           3.311  -5.215  -2.301  0.00  0.00     0.051 H 
ENDBRANCH  16  17
ENDBRANCH  14  16
ENDBRANCH  11  14
ENDBRANCH   1  11
TORSDOF 6
