REMARK  3 active torsions:
REMARK  status: ('A' for Active; 'I' for Inactive)
REMARK    1  A    between atoms: C1_1  and  C2_2 
REMARK    2  A    between atoms: C4_4  and  C7_9 
REMARK    3  A    between atoms: C6_6  and  O1_8 
ROOT
ATOM      1  C2  <0> d           2.379   1.341  -0.013  0.00  0.00     0.034 A 
ATOM      2  C3  <0> d           1.207   2.071   0.002  0.00  0.00    -0.043 A 
ATOM      3  C4  <0> d          -0.017   1.392   0.010  0.00  0.00     0.046 A 
ATOM      4  C5  <0> d           0.002  -0.004   0.002  0.00  0.00    -0.016 A 
ATOM      5  C6  <0> d           1.226  -0.659  -0.013  0.00  0.00     0.163 A 
ATOM      6  N1  <0> d           2.358   0.023  -0.020  0.00  0.00    -0.230 NA
ATOM      7  H4  <0> d           1.235   3.150   0.007  0.00  0.00     0.088 H 
ATOM      8  H5  <0> d          -0.921  -0.565   0.007  0.00  0.00     0.091 H 
ENDROOT
BRANCH   1   9
ATOM      9  C1  <0> d           3.702   2.063  -0.022  0.00  0.00    -0.035 C 
ATOM     10  H1  <0> d           4.011   2.242  -1.052  0.00  0.00     0.035 H 
ATOM     11  H2  <0> d           3.600   3.015   0.498  0.00  0.00     0.035 H 
ATOM     12  H3  <0> d           4.452   1.453   0.481  0.00  0.00     0.035 H 
ENDBRANCH   1   9
BRANCH   5  13
ATOM     13  O1  <0> d           1.260  -2.016  -0.021  0.00  0.00    -0.345 OA
ATOM     14  H6  <0> d           1.262  -2.404  -0.907  0.00  0.00     0.219 HD
ENDBRANCH   5  13
BRANCH   3  15
ATOM     15  C7  <0> d          -1.298   2.135   0.020  0.00  0.00     0.209 C 
ATOM     16  O2  <0> d          -1.295   3.349   0.026  0.00  0.00    -0.644 OA
ATOM     17  O3  <0> d          -2.465   1.464   0.022  0.00  0.00    -0.644 OA
ENDBRANCH   3  15
TORSDOF 3
