REMARK  3 active torsions:
REMARK  status: ('A' for Active; 'I' for Inactive)
REMARK    1  A    between atoms: C1_1  and  C2_2 
REMARK    2  A    between atoms: C2_2  and  C3_3 
REMARK    3  A    between atoms: C2_2  and  C5_6 
ROOT
ATOM      1  C2  <0> d          -2.530   3.893   0.047  0.00  0.00     0.069 C 
ATOM      2  C4  <0> d          -2.612   4.746  -1.150  0.00  0.00     0.073 C 
ATOM      3  N1  <0> d          -2.676   5.405  -2.073  0.00  0.00    -0.196 NA
ENDROOT
BRANCH   1   4
ATOM      4  C1  <0> d          -3.701   2.908   0.053  0.00  0.00    -0.053 C 
ATOM      5  H1  <0> d          -3.656   2.280  -0.849  0.00  0.00     0.030 H 
ATOM      6  H2  <0> d          -4.649   3.466   0.065  0.00  0.00     0.030 H 
ATOM      7  H3  <0> d          -3.639   2.271   0.947  0.00  0.00     0.030 H 
ENDBRANCH   1   4
BRANCH   1   8
ATOM      8  C3  <0> d          -2.592   4.766   1.301  0.00  0.00    -0.053 C 
ATOM      9  H4  <0> d          -1.750   5.474   1.297  0.00  0.00     0.030 H 
ATOM     10  H5  <0> d          -2.530   4.129   2.196  0.00  0.00     0.030 H 
ATOM     11  H6  <0> d          -3.540   5.324   1.313  0.00  0.00     0.030 H 
ENDBRANCH   1   8
BRANCH   1  12
ATOM     12  C5  <0> d          -1.231   3.129   0.030  0.00  0.00    -0.034 A 
ATOM     13  C9  <0> d          -0.015   3.796   0.022  0.00  0.00    -0.058 A 
ATOM     14  C8  <0> d           1.155   3.061   0.007  0.00  0.00     0.002 A 
ATOM     15  H10 <0> d           0.016   4.875   0.027  0.00  0.00     0.086 H 
ATOM     16  N2  <0> d           1.125   1.743   0.001  0.00  0.00    -0.273 NA
ATOM     17  H9  <0> d           2.107   3.573   0.001  0.00  0.00     0.114 H 
ATOM     18  C7  <0> d          -0.013   1.076   0.008  0.00  0.00     0.002 A 
ATOM     19  C6  <0> d          -1.223   1.742   0.017  0.00  0.00    -0.058 A 
ATOM     20  H8  <0> d           0.002  -0.004   0.002  0.00  0.00     0.114 H 
ATOM     21  H7  <0> d          -2.151   1.190   0.018  0.00  0.00     0.086 H 
ENDBRANCH   1  12
TORSDOF 3
