REMARK  2 active torsions:
REMARK  status: ('A' for Active; 'I' for Inactive)
REMARK    1  A    between atoms: C1_1  and  N1_2 
REMARK    2  A    between atoms: N1_2  and  C2_3 
ROOT
ATOM      1  C2  <0> d           1.105   3.184   0.008  0.00  0.00     0.045 A 
ATOM      2  C3  <0> d           1.173   1.792   0.001  0.00  0.00    -0.055 A 
ATOM      3  C4  <0> d          -0.013   1.076   0.008  0.00  0.00    -0.064 A 
ATOM      4  C5  <0> d          -1.215   1.759   0.017  0.00  0.00     0.002 A 
ATOM      5  N2  <0> d          -1.245   3.077   0.030  0.00  0.00    -0.271 NA
ATOM      6  C6  <0> d          -0.141   3.797   0.023  0.00  0.00     0.027 A 
ATOM      7  H5  <0> d           2.126   1.285  -0.011  0.00  0.00     0.087 H 
ATOM      8  H6  <0> d           0.002  -0.004   0.002  0.00  0.00     0.085 H 
ATOM      9  H7  <0> d          -2.142   1.205   0.019  0.00  0.00     0.114 H 
ATOM     10  H8  <0> d          -0.206   4.875   0.029  0.00  0.00     0.118 H 
ENDROOT
BRANCH   1  11
ATOM     11  N1  <0> d           2.272   3.951   0.002  0.00  0.00    -0.393 N 
ATOM     12  H4  <0> d           3.139   3.515  -0.008  0.00  0.00     0.159 HD
BRANCH  11  13
ATOM     13  C1  <0> d           2.188   5.413   0.010  0.00  0.00    -0.021 C 
ATOM     14  H1  <0> d           3.193   5.835   0.003  0.00  0.00     0.056 H 
ATOM     15  H2  <0> d           1.646   5.751  -0.874  0.00  0.00     0.056 H 
ATOM     16  H3  <0> d           1.662   5.742   0.906  0.00  0.00     0.056 H 
ENDBRANCH  11  13
ENDBRANCH   1  11
TORSDOF 2
