REMARK  1 active torsions:
REMARK  status: ('A' for Active; 'I' for Inactive)
REMARK    1  A    between atoms: C5_9  and  N5_10 
ROOT
ATOM      1  C1  <0> d           1.150   1.780   0.001  0.00  0.00    -0.034 A 
ATOM      2  C2  <0> d          -0.013   1.076   0.008  0.00  0.00    -0.031 A 
ATOM      3  C3  <0> d          -1.236   1.772   0.018  0.00  0.00     0.174 A 
ATOM      4  N1  <0> d          -2.505   1.395   0.033  0.00  0.00    -0.129 NA
ATOM      5  N2  <0> d          -3.258   2.439   0.045  0.00  0.00    -0.141 NA
ATOM      6  C4  <0> d          -2.524   3.525   0.044  0.00  0.00     0.112 A 
ATOM      7  N3  <0> d          -1.229   3.145   0.030  0.00  0.00    -0.204 N 
ATOM      8  N4  <0> d          -0.017   3.839   0.022  0.00  0.00    -0.147 NA
ATOM      9  C5  <0> d           1.123   3.188   0.008  0.00  0.00     0.142 A 
ATOM     10  H1  <0> d           2.096   1.259  -0.011  0.00  0.00     0.089 H 
ATOM     11  H2  <0> d           0.002  -0.004   0.002  0.00  0.00     0.089 H 
ATOM     12  H3  <0> d          -2.890   4.541   0.053  0.00  0.00     0.149 H 
ENDROOT
BRANCH   9  13
ATOM     13  N5  <0> d           2.318   3.899   0.002  0.00  0.00    -0.383 N 
ATOM     14  H4  <0> d           3.164   3.424  -0.008  0.00  0.00     0.157 HD
ATOM     15  H5  <0> d           2.307   4.869   0.007  0.00  0.00     0.157 HD
ENDBRANCH   9  13
TORSDOF 1
