REMARK  1 active torsions:
REMARK  status: ('A' for Active; 'I' for Inactive)
REMARK    1  A    between atoms: C1_1  and  N1_2 
ROOT
ATOM      1  N1  <0> d           0.002  -0.004   0.002  0.00  0.00    -0.278 N 
ATOM      2  C2  <0> d           0.023  -0.787   1.079  0.00  0.00     0.045 A 
ATOM      3  C3  <0> d           0.038  -2.105   0.626  0.00  0.00     0.053 A 
ATOM      4  C4  <0> d           0.023  -2.074  -0.773  0.00  0.00     0.037 A 
ATOM      5  N2  <0> d          -0.004  -0.817  -1.141  0.00  0.00    -0.184 NA
ATOM      6  C5  <0> d           0.067  -3.239   1.563  0.00  0.00     0.163 C 
ATOM      7  O1  <0> d          -0.122  -4.383   1.206  0.00  0.00    -0.292 OA
ATOM      8  C6  <0> d           0.352  -2.873   3.012  0.00  0.00    -0.005 C 
ATOM      9  C7  <0> d          -0.453  -1.618   3.363  0.00  0.00    -0.053 C 
ATOM     10  C8  <0> d           0.027  -0.419   2.539  0.00  0.00    -0.024 C 
ATOM     11  H4  <0> d           0.027  -2.930  -1.431  0.00  0.00     0.118 H 
ATOM     12  H5  <0> d           1.330  -2.696   3.125  0.00  0.00     0.044 H 
ATOM     13  H6  <0> d           0.055  -3.693   3.666  0.00  0.00     0.044 H 
ATOM     14  H7  <0> d          -0.330  -1.397   4.423  0.00  0.00     0.034 H 
ATOM     15  H8  <0> d          -1.508  -1.798   3.154  0.00  0.00     0.034 H 
ATOM     16  H9  <0> d           1.039  -0.150   2.843  0.00  0.00     0.042 H 
ATOM     17  H10 <0> d          -0.640   0.427   2.703  0.00  0.00     0.042 H 
ENDROOT
BRANCH   1  18
ATOM     18  C1  <0> d          -0.018   1.461   0.010  0.00  0.00     0.003 C 
ATOM     19  H1  <0> d           1.005   1.838   0.002  0.00  0.00     0.059 H 
ATOM     20  H2  <0> d          -0.545   1.822  -0.873  0.00  0.00     0.059 H 
ATOM     21  H3  <0> d          -0.528   1.812   0.907  0.00  0.00     0.059 H 
ENDBRANCH   1  18
TORSDOF 1
