REMARK  2 active torsions:
REMARK  status: ('A' for Active; 'I' for Inactive)
REMARK    1  A    between atoms: C1_1  and  C2_2 
REMARK    2  A    between atoms: C3_3  and  C5_8 
ROOT
ATOM      1  C5  <0> d          -0.005  -0.342  -2.519  0.00  0.00     0.056 C 
ATOM      2  C6  <0> d           1.379  -0.174  -2.993  0.00  0.00     0.065 C 
ATOM      3  N3  <0> d           2.447  -0.044  -3.358  0.00  0.00    -0.197 NA
ATOM      4  H6  <0> d          -0.511  -1.086  -3.134  0.00  0.00     0.064 H 
ATOM      5  H7  <0> d          -0.532   0.609  -2.592  0.00  0.00     0.064 H 
ENDROOT
BRANCH   1   6
ATOM      6  C3  <0> d           0.008  -0.801  -1.084  0.00  0.00     0.071 A 
ATOM      7  C2  <0> d           0.002  -0.004   0.002  0.00  0.00     0.032 A 
ATOM      8  N2  <0> d           0.024  -0.826   1.097  0.00  0.00    -0.353 N 
ATOM      9  C4  <0> d           0.033  -2.097   0.641  0.00  0.00     0.064 A 
ATOM     10  H1  <0> d           0.030  -0.547   2.026  0.00  0.00     0.166 HD
ATOM     11  N1  <0> d           0.027  -2.075  -0.663  0.00  0.00    -0.246 NA
ATOM     12  H5  <0> d           0.048  -2.986   1.255  0.00  0.00     0.143 H 
BRANCH   7  13
ATOM     13  C1  <0> d          -0.018   1.503   0.010  0.00  0.00    -0.035 C 
ATOM     14  H2  <0> d           1.004   1.880   0.003  0.00  0.00     0.035 H 
ATOM     15  H3  <0> d          -0.545   1.864  -0.873  0.00  0.00     0.035 H 
ATOM     16  H4  <0> d          -0.529   1.854   0.907  0.00  0.00     0.035 H 
ENDBRANCH   7  13
ENDBRANCH   1   6
TORSDOF 2
