REMARK  0 active torsions:
REMARK  status: ('A' for Active; 'I' for Inactive)
ROOT
ATOM      1  C1  <0> d           0.912   4.457   3.299  0.00  0.00    -0.082 A 
ATOM      2  C2  <0> d           2.120   4.499   2.628  0.00  0.00    -0.082 A 
ATOM      3  C3  <0> d           2.337   3.666   1.550  0.00  0.00    -0.074 A 
ATOM      4  C4  <0> d           1.347   2.785   1.135  0.00  0.00    -0.028 A 
ATOM      5  C5  <0> d           0.143   2.744   1.803  0.00  0.00    -0.049 A 
ATOM      6  C6  <0> d          -0.074   3.583   2.888  0.00  0.00    -0.076 A 
ATOM      7  C7  <0> d          -0.771   1.715   1.183  0.00  0.00    -0.027 A 
ATOM      8  C8  <0> d          -0.013   1.086   0.008  0.00  0.00     0.051 A 
ATOM      9  H1  <0> d           0.002  -0.004   0.002  0.00  0.00     0.058 H 
ATOM     10  C9  <0> d           1.357   1.791  -0.001  0.00  0.00     0.050 A 
ATOM     11  H2  <0> d           2.229   1.138  -0.024  0.00  0.00     0.081 H 
ATOM     12  N1  <0> d           0.954   2.356  -1.302  0.00  0.00    -0.351 N 
ATOM     13  C10 <0> d          -0.262   1.752  -1.330  0.00  0.00     0.225 A 
ATOM     14  O1  <0> d          -1.185   1.747  -2.117  0.00  0.00    -0.273 OA
ATOM     15  H3  <0> d           0.739   5.108   4.144  0.00  0.00     0.083 H 
ATOM     16  H4  <0> d           2.893   5.182   2.948  0.00  0.00     0.083 H 
ATOM     17  H5  <0> d           3.280   3.699   1.026  0.00  0.00     0.084 H 
ATOM     18  H6  <0> d          -1.017   3.551   3.412  0.00  0.00     0.084 H 
ATOM     19  H7  <0> d          -1.677   2.201   0.822  0.00  0.00     0.041 H 
ATOM     20  H8  <0> d          -1.025   0.948   1.914  0.00  0.00     0.041 H 
ATOM     21  H9  <0> d           1.402   2.952  -1.922  0.00  0.00     0.163 HD
ENDROOT
TORSDOF 0
