REMARK  4 active torsions:
REMARK  status: ('A' for Active; 'I' for Inactive)
REMARK    1  A    between atoms: C1_1  and  O1_2 
REMARK    2  A    between atoms: O1_2  and  C2_3 
REMARK    3  A    between atoms: C2_3  and  C3_5 
REMARK    4  A    between atoms: C6_8  and  N3_11 
ROOT
ATOM      1  C3  <0> d          -1.304   1.932   0.019  0.00  0.00     0.154 A 
ATOM      2  C4  <0> d          -2.509   1.217   0.021  0.00  0.00    -0.044 A 
ATOM      3  C5  <0> d          -3.690   1.936   0.031  0.00  0.00    -0.035 A 
ATOM      4  C6  <0> d          -3.610   3.329   0.038  0.00  0.00     0.143 A 
ATOM      5  N1  <0> d          -2.422   3.925   0.036  0.00  0.00    -0.132 NA
ATOM      6  N2  <0> d          -1.324   3.260   0.032  0.00  0.00    -0.142 NA
ATOM      7  H4  <0> d          -2.515   0.137   0.014  0.00  0.00     0.087 H 
ATOM      8  H5  <0> d          -4.646   1.434   0.032  0.00  0.00     0.089 H 
ENDROOT
BRANCH   1   9
ATOM      9  C2  <0> d          -0.014   1.210   0.009  0.00  0.00     0.313 C 
ATOM     10  O2  <0> d           0.002  -0.004   0.002  0.00  0.00    -0.257 OA
BRANCH   9  11
ATOM     11  O1  <0> d           1.143   1.900   0.001  0.00  0.00    -0.321 OA
BRANCH  11  12
ATOM     12  C1  <0> d           2.371   1.126  -0.015  0.00  0.00     0.013 C 
ATOM     13  H1  <0> d           3.234   1.808  -0.019  0.00  0.00     0.067 H 
ATOM     14  H2  <0> d           2.396   0.496  -0.916  0.00  0.00     0.067 H 
ATOM     15  H3  <0> d           2.414   0.487   0.880  0.00  0.00     0.067 H 
ENDBRANCH  11  12
ENDBRANCH   9  11
ENDBRANCH   1   9
BRANCH   4  16
ATOM     16  N3  <0> d          -4.766   4.090   0.048  0.00  0.00    -0.383 N 
ATOM     17  H6  <0> d          -4.702   5.189   0.054  0.00  0.00     0.157 HD
ATOM     18  H7  <0> d          -5.750   3.597   0.050  0.00  0.00     0.157 HD
ENDBRANCH   4  16
TORSDOF 4
