REMARK  2 active torsions:
REMARK  status: ('A' for Active; 'I' for Inactive)
REMARK    1  A    between atoms: C1_1  and  C2_2 
REMARK    2  A    between atoms: C4_5  and  C5_7 
ROOT
ATOM      1  C2  <0> d          -3.472   3.661   1.229  0.00  0.00    -0.050 A 
ATOM      2  H1  <0> d          -4.052   4.512   1.585  0.00  0.00     0.040 H 
ATOM      3  C3  <0> d          -3.821   3.095  -0.150  0.00  0.00    -0.054 A 
ATOM      4  C4  <0> d          -2.530   3.893   0.046  0.00  0.00    -0.025 A 
ATOM      5  H2  <0> d          -2.490   4.897  -0.376  0.00  0.00     0.048 H 
ATOM      6  H6  <0> d          -4.630   3.575  -0.700  0.00  0.00     0.034 H 
ATOM      7  H7  <0> d          -3.731   2.018  -0.289  0.00  0.00     0.034 H 
ENDROOT
BRANCH   4   8
ATOM      8  C5  <0> d          -1.231   3.129   0.030  0.00  0.00    -0.051 A 
ATOM      9  C9  <0> d          -0.015   3.796   0.022  0.00  0.00    -0.060 A 
ATOM     10  C8  <0> d           1.155   3.061   0.007  0.00  0.00     0.002 A 
ATOM     11  H11 <0> d           0.016   4.875   0.028  0.00  0.00     0.086 H 
ATOM     12  N1  <0> d           1.125   1.743   0.001  0.00  0.00    -0.273 NA
ATOM     13  H10 <0> d           2.107   3.573   0.001  0.00  0.00     0.114 H 
ATOM     14  C7  <0> d          -0.013   1.076   0.008  0.00  0.00     0.002 A 
ATOM     15  C6  <0> d          -1.223   1.742   0.017  0.00  0.00    -0.060 A 
ATOM     16  H9  <0> d           0.002  -0.004   0.002  0.00  0.00     0.114 H 
ATOM     17  H8  <0> d          -2.151   1.190   0.018  0.00  0.00     0.086 H 
ENDBRANCH   4   8
BRANCH   1  18
ATOM     18  C1  <0> d          -3.023   2.671   2.306  0.00  0.00    -0.072 C 
ATOM     19  H3  <0> d          -2.087   3.013   2.746  0.00  0.00     0.028 H 
ATOM     20  H4  <0> d          -3.787   2.606   3.080  0.00  0.00     0.028 H 
ATOM     21  H5  <0> d          -2.876   1.688   1.857  0.00  0.00     0.028 H 
ENDBRANCH   1  18
TORSDOF 2
