REMARK  2 active torsions:
REMARK  status: ('A' for Active; 'I' for Inactive)
REMARK    1  A    between atoms: C1_1  and  C2_2 
REMARK    2  A    between atoms: C2_2  and  C3_3 
ROOT
ATOM      1  C3  <0> d           0.002  -0.004   0.002  0.00  0.00    -0.025 A 
ATOM      2  C4  <0> d          -0.258  -0.422   1.496  0.00  0.00    -0.047 C 
ATOM      3  C5  <0> d           0.451   0.792   2.207  0.00  0.00     0.005 C 
ATOM      4  H1  <0> d           0.401   0.674   3.199  0.00  0.00     0.051 H 
ATOM      5  C6  <0> d           1.847   0.872   1.483  0.00  0.00    -0.051 C 
ATOM      6  C7  <0> d           1.344   0.820  -0.006  0.00  0.00    -0.035 A 
ATOM      7  H2  <0> d           2.051   0.821  -0.836  0.00  0.00     0.042 H 
ATOM      8  C8  <0> d          -0.019   1.534   0.011  0.00  0.00     0.016 A 
ATOM      9  H3  <0> d          -0.637   1.863  -0.703  0.00  0.00     0.053 H 
ATOM     10  C9  <0> d          -0.263   1.946   1.463  0.00  0.00     0.136 C 
ATOM     11  O1  <0> d          -0.849   2.904   1.906  0.00  0.00    -0.297 OA
ATOM     12  H9  <0> d          -1.324  -0.452   1.724  0.00  0.00     0.035 H 
ATOM     13  H10 <0> d           0.228  -1.367   1.739  0.00  0.00     0.035 H 
ATOM     14  H11 <0> d           2.358   1.810   1.701  0.00  0.00     0.034 H 
ATOM     15  H12 <0> d           2.473   0.013   1.725  0.00  0.00     0.034 H 
ENDROOT
BRANCH   1  16
ATOM     16  C2  <0> d          -0.473  -0.895  -1.147  0.00  0.00    -0.060 C 
ATOM     17  H7  <0> d          -0.660  -0.282  -2.029  0.00  0.00     0.033 H 
ATOM     18  H8  <0> d           0.294  -1.635  -1.375  0.00  0.00     0.033 H 
BRANCH  16  19
ATOM     19  C1  <0> d          -1.764  -1.609  -0.739  0.00  0.00    -0.076 C 
ATOM     20  H4  <0> d          -1.577  -2.222   0.142  0.00  0.00     0.027 H 
ATOM     21  H5  <0> d          -2.531  -0.869  -0.511  0.00  0.00     0.027 H 
ATOM     22  H6  <0> d          -2.103  -2.243  -1.558  0.00  0.00     0.027 H 
ENDBRANCH  16  19
ENDBRANCH   1  16
TORSDOF 2
