REMARK  1 active torsions:
REMARK  status: ('A' for Active; 'I' for Inactive)
REMARK    1  A    between atoms: C4_5  and  C8_11 
ROOT
ATOM      1  C1  <0> d           3.067   3.469   1.524  0.00  0.00    -0.051 C 
ATOM      2  C2  <0> d           1.888   4.413   1.960  0.00  0.00    -0.036 C 
ATOM      3  H1  <0> d           1.825   4.660   3.020  0.00  0.00     0.046 H 
ATOM      4  C3  <0> d           0.673   3.654   1.337  0.00  0.00    -0.045 C 
ATOM      5  C4  <0> d           1.235   3.094   0.007  0.00  0.00     0.038 C 
ATOM      6  H2  <0> d           0.689   3.502  -0.844  0.00  0.00     0.057 H 
ATOM      7  C5  <0> d           2.717   3.586  -0.005  0.00  0.00    -0.025 C 
ATOM      8  H3  <0> d           3.385   3.092  -0.710  0.00  0.00     0.047 H 
ATOM      9  C6  <0> d           2.603   5.111  -0.130  0.00  0.00    -0.101 C 
ATOM     10  C7  <0> d           2.126   5.587   1.002  0.00  0.00    -0.102 C 
ATOM     11  H4  <0> d           2.950   2.453   1.902  0.00  0.00     0.035 H 
ATOM     12  H5  <0> d           4.046   3.886   1.762  0.00  0.00     0.035 H 
ATOM     13  H6  <0> d          -0.151   4.341   1.146  0.00  0.00     0.035 H 
ATOM     14  H7  <0> d           0.353   2.842   1.990  0.00  0.00     0.035 H 
ATOM     15  H8  <0> d           2.870   5.694  -0.999  0.00  0.00     0.077 H 
ATOM     16  H9  <0> d           1.934   6.628   1.218  0.00  0.00     0.076 H 
ENDROOT
BRANCH   5  17
ATOM     17  C8  <0> d           1.177   1.588  -0.001  0.00  0.00     0.177 C 
ATOM     18  O1  <0> d           2.199   0.944  -0.014  0.00  0.00    -0.648 OA
ATOM     19  O2  <0> d          -0.011   0.963   0.007  0.00  0.00    -0.648 OA
ENDBRANCH   5  17
TORSDOF 1
