REMARK  1 active torsions:
REMARK  status: ('A' for Active; 'I' for Inactive)
REMARK    1  A    between atoms: C2_2  and  C3_3 
ROOT
ATOM      1  C1  <0> d           1.154   4.703   0.015  0.00  0.00    -0.149 C 
ATOM      2  C2  <0> d           1.165   3.529   0.009  0.00  0.00    -0.078 C 
ATOM      3  H1  <0> d           1.144   5.753   0.021  0.00  0.00     0.166 H 
ENDROOT
BRANCH   2   4
ATOM      4  C3  <0> d           1.178   2.097   0.002  0.00  0.00     0.019 A 
ATOM      5  C8  <0> d          -0.017   1.399   0.010  0.00  0.00    -0.035 A 
ATOM      6  C7  <0> d           0.002  -0.004   0.002  0.00  0.00     0.086 A 
ATOM      7  H4  <0> d          -0.957   1.931   0.017  0.00  0.00     0.089 H 
ATOM      8  C6  <0> d           1.247  -0.685  -0.013  0.00  0.00     0.085 A 
ATOM      9  N1  <0> d          -1.136  -0.708   0.009  0.00  0.00    -0.257 NA
ATOM     10  C5  <0> d           2.444   0.054  -0.021  0.00  0.00    -0.051 A 
ATOM     11  N2  <0> d           1.266  -2.022  -0.022  0.00  0.00    -0.257 NA
ATOM     12  C4  <0> d           2.406   1.411  -0.014  0.00  0.00    -0.062 A 
ATOM     13  H3  <0> d           3.395  -0.458  -0.033  0.00  0.00     0.087 H 
ATOM     14  H2  <0> d           3.329   1.970  -0.020  0.00  0.00     0.085 H 
ATOM     15  C10 <0> d           0.135  -2.690  -0.014  0.00  0.00     0.020 A 
ATOM     16  C9  <0> d          -1.090  -2.021   0.001  0.00  0.00     0.020 A 
ATOM     17  H6  <0> d           0.152  -3.770  -0.021  0.00  0.00     0.117 H 
ATOM     18  H5  <0> d          -2.009  -2.587   0.006  0.00  0.00     0.117 H 
ENDBRANCH   2   4
TORSDOF 1
