REMARK  1 active torsions:
REMARK  status: ('A' for Active; 'I' for Inactive)
REMARK    1  A    between atoms: C2_2  and  C5_8 
ROOT
ATOM      1  C1  <0> d           3.010   2.346   1.188  0.00  0.00     0.024 A 
ATOM      2  C2  <0> d           3.651   2.654  -0.019  0.00  0.00     0.073 A 
ATOM      3  C3  <0> d           2.987   2.359  -1.216  0.00  0.00    -0.001 A 
ATOM      4  N1  <0> d           1.790   1.805  -1.164  0.00  0.00    -0.328 N 
ATOM      5  C4  <0> d           1.217   1.530  -0.001  0.00  0.00     0.277 A 
ATOM      6  N2  <0> d           1.809   1.798   1.153  0.00  0.00    -0.218 NA
ATOM      7  O1  <0> d          -0.011   0.963   0.007  0.00  0.00    -0.149 OA
ATOM      8  H1  <0> d           3.488   2.557   2.133  0.00  0.00     0.116 H 
ATOM      9  H2  <0> d           3.447   2.581  -2.168  0.00  0.00     0.113 H 
ATOM     10  H3  <0> d           1.253   1.567  -2.094  0.00  0.00     0.169 HD
ENDROOT
BRANCH   2  11
ATOM     11  C5  <0> d           4.990   3.272  -0.028  0.00  0.00     0.212 C 
ATOM     12  O2  <0> d           5.532   3.533  -1.084  0.00  0.00    -0.644 OA
ATOM     13  O3  <0> d           5.613   3.548   1.135  0.00  0.00    -0.644 OA
ENDBRANCH   2  11
TORSDOF 1
