REMARK  1 active torsions:
REMARK  status: ('A' for Active; 'I' for Inactive)
REMARK    1  A    between atoms: C1_1  and  C2_2 
ROOT
ATOM      1  C2  <0> d           0.002  -0.004   0.002  0.00  0.00     0.036 A 
ATOM      2  C3  <0> d          -0.006  -0.669  -1.175  0.00  0.00    -0.059 A 
ATOM      3  C4  <0> d           0.020  -2.072  -1.195  0.00  0.00    -0.077 A 
ATOM      4  C5  <0> d           0.040  -2.763  -0.022  0.00  0.00    -0.035 A 
ATOM      5  C6  <0> d           0.041  -2.053   1.192  0.00  0.00     0.176 A 
ATOM      6  N1  <0> d           0.022  -0.685   1.178  0.00  0.00    -0.199 N 
ATOM      7  N2  <0> d           0.030  -0.300   2.526  0.00  0.00    -0.039 NA
ATOM      8  N3  <0> d           0.051  -1.383   3.227  0.00  0.00    -0.022 NA
ATOM      9  N4  <0> d           0.058  -2.420   2.466  0.00  0.00    -0.109 NA
ATOM     10  H4  <0> d          -0.026  -0.118  -2.104  0.00  0.00     0.086 H 
ATOM     11  H5  <0> d           0.019  -2.601  -2.136  0.00  0.00     0.083 H 
ATOM     12  H6  <0> d           0.054  -3.842  -0.024  0.00  0.00     0.089 H 
ENDROOT
BRANCH   1  13
ATOM     13  C1  <0> d          -0.018   1.503   0.010  0.00  0.00    -0.035 C 
ATOM     14  H1  <0> d           1.004   1.880   0.003  0.00  0.00     0.035 H 
ATOM     15  H2  <0> d          -0.545   1.864  -0.873  0.00  0.00     0.035 H 
ATOM     16  H3  <0> d          -0.529   1.854   0.907  0.00  0.00     0.035 H 
ENDBRANCH   1  13
TORSDOF 1
