REMARK  3 active torsions:
REMARK  status: ('A' for Active; 'I' for Inactive)
REMARK    1  A    between atoms: C1_1  and  C2_2 
REMARK    2  A    between atoms: C2_2  and  C3_4 
REMARK    3  A    between atoms: C2_2  and  O1_12 
ROOT
ATOM      1  C3  <0> d           0.002  -0.004   0.002  0.00  0.00     0.009 A 
ATOM      2  C4  <0> d           1.208  -0.679  -0.013  0.00  0.00    -0.069 A 
ATOM      3  C5  <0> d           2.396   0.026  -0.020  0.00  0.00    -0.045 A 
ATOM      4  C6  <0> d           2.380   1.411  -0.012  0.00  0.00     0.119 A 
ATOM      5  C7  <0> d           1.173   2.088   0.002  0.00  0.00    -0.008 A 
ATOM      6  C8  <0> d          -0.017   1.380   0.010  0.00  0.00     0.128 A 
ATOM      7  F1  <0> d          -1.196   2.040   0.019  0.00  0.00    -0.205 F 
ATOM      8  F2  <0> d           3.542   2.101  -0.018  0.00  0.00    -0.206 F 
ATOM      9  H5  <0> d           1.222  -1.759  -0.019  0.00  0.00     0.084 H 
ATOM     10  H6  <0> d           3.338  -0.502  -0.032  0.00  0.00     0.088 H 
ATOM     11  H7  <0> d           1.159   3.168   0.008  0.00  0.00     0.093 H 
ENDROOT
BRANCH   1  12
ATOM     12  C2  <0> d          -1.293  -0.775   0.010  0.00  0.00     0.060 C 
ATOM     13  H1  <0> d          -2.030  -0.241   0.609  0.00  0.00     0.090 H 
BRANCH  12  14
ATOM     14  C1  <0> d          -1.808  -0.920  -1.423  0.00  0.00    -0.049 C 
ATOM     15  H2  <0> d          -1.071  -1.454  -2.022  0.00  0.00     0.031 H 
ATOM     16  H3  <0> d          -2.745  -1.478  -1.418  0.00  0.00     0.031 H 
ATOM     17  H4  <0> d          -1.977   0.068  -1.851  0.00  0.00     0.031 H 
ENDBRANCH  12  14
BRANCH  12  18
ATOM     18  O1  <0> d          -1.072  -2.071   0.570  0.00  0.00    -0.391 OA
ATOM     19  H8  <0> d          -0.426  -2.604   0.087  0.00  0.00     0.210 HD
ENDBRANCH  12  18
ENDBRANCH   1  12
TORSDOF 3
