REMARK  4 active torsions:
REMARK  status: ('A' for Active; 'I' for Inactive)
REMARK    1  A    between atoms: C1_1  and  C2_2 
REMARK    2  A    between atoms: C2_2  and  C3_3 
REMARK    3  A    between atoms: C2_2  and  N1_4 
REMARK    4  A    between atoms: C6_7  and  N3_9 
ROOT
ATOM      1  N1  <0> d           0.688  -0.476  -1.203  0.00  0.00    -0.273 N 
ATOM      2  C4  <0> d           2.022  -0.632  -1.348  0.00  0.00     0.024 A 
ATOM      3  C5  <0> d           2.253  -1.085  -2.601  0.00  0.00     0.098 A 
ATOM      4  C6  <0> d           1.013  -1.212  -3.249  0.00  0.00     0.164 A 
ATOM      5  N2  <0> d           0.074  -0.851  -2.405  0.00  0.00    -0.153 NA
ATOM      6 Cl1  <0> d           3.806  -1.447  -3.288  0.00  0.00    -0.079 Cl
ATOM      7  H8  <0> d           2.771  -0.431  -0.596  0.00  0.00     0.117 H 
ENDROOT
BRANCH   1   8
ATOM      8  C2  <0> d           0.002  -0.004   0.002  0.00  0.00     0.027 C 
ATOM      9  H4  <0> d          -1.022  -0.405  -0.029  0.00  0.00     0.074 H 
BRANCH   8  10
ATOM     10  C1  <0> d          -0.019   1.526   0.010  0.00  0.00    -0.056 C 
ATOM     11  H1  <0> d          -0.551   1.890  -0.881  0.00  0.00     0.030 H 
ATOM     12  H2  <0> d           1.013   1.907   0.003  0.00  0.00     0.030 H 
ATOM     13  H3  <0> d          -0.534   1.881   0.915  0.00  0.00     0.030 H 
ENDBRANCH   8  10
BRANCH   8  14
ATOM     14  C3  <0> d           0.742  -0.511   1.242  0.00  0.00    -0.056 C 
ATOM     15  H5  <0> d           0.757  -1.611   1.235  0.00  0.00     0.030 H 
ATOM     16  H6  <0> d           0.227  -0.156   2.147  0.00  0.00     0.030 H 
ATOM     17  H7  <0> d           1.774  -0.130   1.234  0.00  0.00     0.030 H 
ENDBRANCH   8  14
ENDBRANCH   1   8
BRANCH   4  18
ATOM     18  N3  <0> d           0.812  -1.653  -4.563  0.00  0.00    -0.381 N 
ATOM     19  H9  <0> d          -0.207  -1.714  -4.973  0.00  0.00     0.157 HD
ATOM     20  H10 <0> d           1.673  -1.937  -5.185  0.00  0.00     0.157 HD
ENDBRANCH   4  18
TORSDOF 4
