REMARK  2 active torsions:
REMARK  status: ('A' for Active; 'I' for Inactive)
REMARK    1  A    between atoms: C1_1  and  C2_2 
REMARK    2  A    between atoms: C7_7  and  C10_12 
ROOT
ATOM      1  C2  <0> d          -0.718   1.572   1.248  0.00  0.00     0.033 A 
ATOM      2  C3  <0> d          -2.094   1.784   1.205  0.00  0.00    -0.059 A 
ATOM      3  C4  <0> d          -2.749   2.220   2.322  0.00  0.00    -0.067 A 
ATOM      4  C5  <0> d          -1.994   2.450   3.486  0.00  0.00     0.012 A 
ATOM      5  C6  <0> d          -2.595   2.905   4.673  0.00  0.00    -0.062 A 
ATOM      6  C7  <0> d          -1.796   3.107   5.763  0.00  0.00    -0.043 A 
ATOM      7  C8  <0> d          -0.428   2.861   5.674  0.00  0.00     0.010 A 
ATOM      8  N1  <0> d           0.127   2.437   4.565  0.00  0.00    -0.240 NA
ATOM      9  C9  <0> d          -0.597   2.220   3.462  0.00  0.00     0.159 A 
ATOM     10  N2  <0> d          -0.019   1.788   2.336  0.00  0.00    -0.234 NA
ATOM     11  H4  <0> d          -2.642   1.601   0.292  0.00  0.00     0.086 H 
ATOM     12  H5  <0> d          -3.816   2.387   2.310  0.00  0.00     0.085 H 
ATOM     13  H6  <0> d          -3.658   3.090   4.722  0.00  0.00     0.085 H 
ATOM     14  H7  <0> d           0.192   3.025   6.543  0.00  0.00     0.115 H 
ENDROOT
BRANCH   1  15
ATOM     15  C1  <0> d          -0.013   1.086   0.008  0.00  0.00    -0.035 C 
ATOM     16  H1  <0> d          -0.744   0.958  -0.804  0.00  0.00     0.035 H 
ATOM     17  H2  <0> d           0.475   0.122   0.217  0.00  0.00     0.035 H 
ATOM     18  H3  <0> d           0.746   1.822  -0.295  0.00  0.00     0.035 H 
ENDBRANCH   1  15
BRANCH   6  19
ATOM     19  C10 <0> d          -2.393   3.595   7.058  0.00  0.00    -0.050 C 
ATOM     20  H8  <0> d          -1.600   3.696   7.813  0.00  0.00     0.033 H 
ATOM     21  H9  <0> d          -3.145   2.872   7.410  0.00  0.00     0.033 H 
ATOM     22  H10 <0> d          -2.872   4.572   6.896  0.00  0.00     0.033 H 
ENDBRANCH   6  19
TORSDOF 2
