REMARK  1 active torsions:
REMARK  status: ('A' for Active; 'I' for Inactive)
REMARK    1  A    between atoms: C1_1  and  C2_2 
ROOT
ATOM      1  C2  <0> d          -0.718   1.572   1.248  0.00  0.00     0.041 A 
ATOM      2  C3  <0> d          -0.014   1.808   2.407  0.00  0.00    -0.030 A 
ATOM      3  C4  <0> d          -0.734   2.246   3.477  0.00  0.00     0.095 A 
ATOM      4  S1  <0> d          -2.341   2.309   2.832  0.00  0.00     0.023 SA
ATOM      5  N1  <0> d          -2.012   1.782   1.240  0.00  0.00    -0.215 NA
ATOM      6 Cl1  <0> d          -0.184   2.639   5.076  0.00  0.00    -0.075 Cl
ATOM      7  H4  <0> d           1.054   1.655   2.465  0.00  0.00     0.090 H 
ENDROOT
BRANCH   1   8
ATOM      8  C1  <0> d          -0.013   1.086   0.008  0.00  0.00    -0.035 C 
ATOM      9  H1  <0> d           0.002  -0.004   0.002  0.00  0.00     0.035 H 
ATOM     10  H2  <0> d           1.010   1.463   0.000  0.00  0.00     0.035 H 
ATOM     11  H3  <0> d          -0.540   1.447  -0.875  0.00  0.00     0.035 H 
ENDBRANCH   1   8
TORSDOF 1
