REMARK  3 active torsions:
REMARK  status: ('A' for Active; 'I' for Inactive)
REMARK    1  A    between atoms: C1_1  and  N1_2 
REMARK       I    between atoms: N1_2  and  C2_3 
REMARK    2  A    between atoms: C2_3  and  C3_5 
REMARK    3  A    between atoms: N2_7  and  C6_10 
ROOT
ATOM      1  C3  <0> d           0.624  -2.148   0.995  0.00  0.00     0.141 A 
ATOM      2  C4  <0> d           1.190  -2.953   1.942  0.00  0.00     0.013 A 
ATOM      3  N2  <0> d           0.980  -4.231   1.547  0.00  0.00    -0.353 N 
ATOM      4  C5  <0> d           0.295  -4.195   0.375  0.00  0.00     0.066 A 
ATOM      5  N3  <0> d           0.078  -2.953   0.048  0.00  0.00    -0.237 NA
ATOM      6  H5  <0> d           1.706  -2.631   2.834  0.00  0.00     0.115 H 
ATOM      7  H6  <0> d          -0.022  -5.057  -0.193  0.00  0.00     0.143 H 
ENDROOT
BRANCH   1   8
ATOM      8  C2  <0> d           0.604  -0.675   1.004  0.00  0.00     0.271 C 
ATOM      9  N1  <0> d           0.002  -0.004   0.002  0.00  0.00    -0.360 N 
ATOM     10  H4  <0> d          -0.418  -0.491  -0.724  0.00  0.00     0.162 HD
ATOM     11  O1  <0> d           1.131  -0.065   1.914  0.00  0.00    -0.266 OA
BRANCH   9  12
ATOM     12  C1  <0> d          -0.018   1.461   0.010  0.00  0.00    -0.018 C 
ATOM     13  H1  <0> d           1.005   1.838   0.002  0.00  0.00     0.056 H 
ATOM     14  H2  <0> d          -0.545   1.822  -0.873  0.00  0.00     0.056 H 
ATOM     15  H3  <0> d          -0.528   1.812   0.907  0.00  0.00     0.056 H 
ENDBRANCH   9  12
ENDBRANCH   1   8
BRANCH   3  16
ATOM     16  C6  <0> d           1.415  -5.436   2.257  0.00  0.00    -0.014 C 
ATOM     17  H7  <0> d           0.635  -5.749   2.952  0.00  0.00     0.057 H 
ATOM     18  H8  <0> d           1.603  -6.233   1.538  0.00  0.00     0.057 H 
ATOM     19  H9  <0> d           2.329  -5.222   2.810  0.00  0.00     0.057 H 
ENDBRANCH   3  16
TORSDOF 3
