REMARK  5 active torsions:
REMARK  status: ('A' for Active; 'I' for Inactive)
REMARK    1  A    between atoms: C1_1  and  N1_2 
REMARK    2  A    between atoms: C3_4  and  C5_7 
REMARK    3  A    between atoms: C5_7  and  C6_8 
REMARK    4  A    between atoms: C6_8  and  C7_9 
REMARK    5  A    between atoms: C7_9  and  O1_10 
ROOT
ATOM      1  N1  <0> d          -1.113   1.857   0.017  0.00  0.00    -0.285 N 
ATOM      2  C2  <0> d          -0.013   1.076   0.008  0.00  0.00     0.005 A 
ATOM      3  C3  <0> d           1.069   1.888   0.002  0.00  0.00    -0.022 A 
ATOM      4  C4  <0> d           0.614   3.211   0.013  0.00  0.00     0.029 A 
ATOM      5  N2  <0> d          -0.694   3.193   0.025  0.00  0.00    -0.185 NA
ATOM      6  H4  <0> d           0.002  -0.004   0.002  0.00  0.00     0.115 H 
ATOM      7  H5  <0> d           1.236   4.094   0.011  0.00  0.00     0.118 H 
ENDROOT
BRANCH   3   8
ATOM      8  C5  <0> d           2.510   1.446  -0.013  0.00  0.00    -0.036 C 
ATOM      9  H6  <0> d           3.123   2.188   0.499  0.00  0.00     0.040 H 
ATOM     10  H7  <0> d           2.601   0.487   0.496  0.00  0.00     0.040 H 
BRANCH   8  11
ATOM     11  C6  <0> d           2.985   1.304  -1.460  0.00  0.00    -0.042 C 
ATOM     12  H8  <0> d           2.372   0.561  -1.972  0.00  0.00     0.036 H 
ATOM     13  H9  <0> d           2.894   2.263  -1.969  0.00  0.00     0.036 H 
BRANCH  11  14
ATOM     14  C7  <0> d           4.447   0.855  -1.476  0.00  0.00     0.017 C 
ATOM     15  H10 <0> d           5.060   1.597  -0.964  0.00  0.00     0.073 H 
ATOM     16  H11 <0> d           4.538  -0.105  -0.967  0.00  0.00     0.073 H 
BRANCH  14  17
ATOM     17  O1  <0> d           4.891   0.721  -2.827  0.00  0.00    -0.401 OA
ATOM     18  H12 <0> d           5.812   0.439  -2.913  0.00  0.00     0.209 HD
ENDBRANCH  14  17
ENDBRANCH  11  14
ENDBRANCH   8  11
ENDBRANCH   3   8
BRANCH   1  19
ATOM     19  C1  <0> d          -2.502   1.389   0.021  0.00  0.00     0.002 C 
ATOM     20  H1  <0> d          -2.841   1.268   1.049  0.00  0.00     0.059 H 
ATOM     21  H2  <0> d          -3.132   2.119  -0.487  0.00  0.00     0.059 H 
ATOM     22  H3  <0> d          -2.564   0.432  -0.498  0.00  0.00     0.059 H 
ENDBRANCH   1  19
TORSDOF 5
