REMARK  4 active torsions:
REMARK  status: ('A' for Active; 'I' for Inactive)
REMARK    1  A    between atoms: C1_1  and  C2_2 
REMARK    2  A    between atoms: C2_2  and  N1_3 
REMARK    3  A    between atoms: C4_7  and  S1_8 
REMARK    4  A    between atoms: S1_8  and  C5_9 
ROOT
ATOM      1  N1  <0> d           1.078   1.901   0.002  0.00  0.00    -0.318 N 
ATOM      2  C3  <0> d          -0.013   1.076   0.008  0.00  0.00     0.089 A 
ATOM      3  N2  <0> d          -1.073   1.834   0.017  0.00  0.00    -0.143 NA
ATOM      4  N3  <0> d          -0.729   3.072   0.025  0.00  0.00    -0.123 NA
ATOM      5  C4  <0> d           0.580   3.172   0.014  0.00  0.00     0.190 A 
ATOM      6  H6  <0> d           0.002  -0.004   0.002  0.00  0.00     0.146 H 
ENDROOT
BRANCH   1   7
ATOM      7  C2  <0> d           2.488   1.504  -0.014  0.00  0.00    -0.001 C 
ATOM      8  H4  <0> d           3.066   2.225  -0.611  0.00  0.00     0.064 H 
ATOM      9  H5  <0> d           2.582   0.502  -0.458  0.00  0.00     0.064 H 
BRANCH   7  10
ATOM     10  C1  <0> d           3.027   1.479   1.418  0.00  0.00    -0.061 C 
ATOM     11  H1  <0> d           4.085   1.181   1.406  0.00  0.00     0.029 H 
ATOM     12  H2  <0> d           2.449   0.758   2.015  0.00  0.00     0.029 H 
ATOM     13  H3  <0> d           2.933   2.481   1.862  0.00  0.00     0.029 H 
ENDBRANCH   7  10
ENDBRANCH   1   7
BRANCH   5  14
ATOM     14  S1  <0> d           1.516   4.665   0.013  0.00  0.00    -0.095 SA
BRANCH  14  15
ATOM     15  C5  <0> d           0.174   5.878   0.032  0.00  0.00    -0.027 C 
ATOM     16  H7  <0> d           0.597   6.894   0.034  0.00  0.00     0.042 H 
ATOM     17  H8  <0> d          -0.438   5.735   0.935  0.00  0.00     0.042 H 
ATOM     18  H9  <0> d          -0.454   5.745  -0.861  0.00  0.00     0.042 H 
ENDBRANCH  14  15
ENDBRANCH   5  14
TORSDOF 4
