REMARK  1 active torsions:
REMARK  status: ('A' for Active; 'I' for Inactive)
REMARK    1  A    between atoms: C2_2  and  C6_8 
ROOT
ATOM      1  C1  <0> d           1.169   2.064   0.002  0.00  0.00    -0.026 A 
ATOM      2  C2  <0> d           1.099   3.462   0.010  0.00  0.00     0.061 A 
ATOM      3  C3  <0> d          -0.155   4.074   0.025  0.00  0.00     0.018 A 
ATOM      4  N1  <0> d          -1.255   3.350   0.031  0.00  0.00    -0.269 NA
ATOM      5  C4  <0> d          -1.221   2.031   0.019  0.00  0.00     0.039 A 
ATOM      6  C5  <0> d          -0.016   1.347   0.009  0.00  0.00     0.134 A 
ATOM      7  F1  <0> d           0.002  -0.004   0.002  0.00  0.00    -0.205 F 
ATOM      8  H1  <0> d           2.123   1.557  -0.009  0.00  0.00     0.090 H 
ATOM      9  H2  <0> d          -0.225   5.152   0.030  0.00  0.00     0.116 H 
ATOM     10  H3  <0> d          -2.148   1.476   0.021  0.00  0.00     0.119 H 
ENDROOT
BRANCH   2  11
ATOM     11  C6  <0> d           2.332   4.276   0.002  0.00  0.00     0.210 C 
ATOM     12  O1  <0> d           3.418   3.733  -0.011  0.00  0.00    -0.644 OA
ATOM     13  O2  <0> d           2.251   5.621   0.009  0.00  0.00    -0.644 OA
ENDBRANCH   2  11
TORSDOF 1
