REMARK  3 active torsions:
REMARK  status: ('A' for Active; 'I' for Inactive)
REMARK    1  A    between atoms: C1_1  and  C2_2 
REMARK    2  A    between atoms: C3_3  and  O1_9 
REMARK    3  A    between atoms: O1_9  and  C8_10 
ROOT
ATOM      1  C2  <0> d           2.379   1.416  -0.013  0.00  0.00    -0.007 A 
ATOM      2  C3  <0> d           2.399   0.029  -0.021  0.00  0.00     0.075 A 
ATOM      3  C4  <0> d           1.207  -0.680  -0.013  0.00  0.00    -0.050 A 
ATOM      4  C5  <0> d           0.002  -0.004   0.002  0.00  0.00    -0.079 A 
ATOM      5  C6  <0> d          -0.017   1.378   0.010  0.00  0.00    -0.061 A 
ATOM      6  C7  <0> d           1.171   2.088   0.002  0.00  0.00     0.042 A 
ATOM      7 Cl1  <0> d           1.144   3.824   0.011  0.00  0.00    -0.084 Cl
ATOM      8  H4  <0> d           1.221  -1.760  -0.019  0.00  0.00     0.087 H 
ATOM      9  H5  <0> d          -0.926  -0.556   0.008  0.00  0.00     0.083 H 
ATOM     10  H6  <0> d          -0.960   1.904   0.017  0.00  0.00     0.086 H 
ENDROOT
BRANCH   2  11
ATOM     11  O1  <0> d           3.585  -0.634  -0.035  0.00  0.00    -0.355 OA
BRANCH  11  12
ATOM     12  C8  <0> d           3.530  -2.062  -0.042  0.00  0.00     0.010 C 
ATOM     13  H7  <0> d           3.011  -2.410   0.851  0.00  0.00     0.066 H 
ATOM     14  H8  <0> d           2.994  -2.401  -0.929  0.00  0.00     0.066 H 
ATOM     15  H9  <0> d           4.543  -2.465  -0.053  0.00  0.00     0.066 H 
ENDBRANCH  11  12
ENDBRANCH   2  11
BRANCH   1  16
ATOM     16  C1  <0> d           3.672   2.189  -0.021  0.00  0.00    -0.047 C 
ATOM     17  H1  <0> d           3.975   2.381  -1.050  0.00  0.00     0.033 H 
ATOM     18  H2  <0> d           3.533   3.137   0.499  0.00  0.00     0.033 H 
ATOM     19  H3  <0> d           4.446   1.609   0.483  0.00  0.00     0.033 H 
ENDBRANCH   1  16
TORSDOF 3
