REMARK  2 active torsions:
REMARK  status: ('A' for Active; 'I' for Inactive)
REMARK    1  A    between atoms: C1_1  and  C2_2 
REMARK    2  A    between atoms: N2_6  and  C5_7 
ROOT
ATOM      1  C2  <0> d           0.002  -0.004   0.002  0.00  0.00     0.049 A 
ATOM      2  C3  <0> d           0.008  -0.796  -1.096  0.00  0.00     0.077 A 
ATOM      3  C4  <0> d           0.028  -2.128  -0.665  0.00  0.00     0.045 A 
ATOM      4  N1  <0> d           0.034  -2.134   0.643  0.00  0.00    -0.183 NA
ATOM      5  N2  <0> d           0.023  -0.806   1.088  0.00  0.00    -0.277 N 
ATOM      6 Cl1  <0> d          -0.007  -0.256  -2.745  0.00  0.00    -0.081 Cl
ATOM      7  H4  <0> d           0.037  -2.999  -1.303  0.00  0.00     0.120 H 
ENDROOT
BRANCH   1   8
ATOM      8  C1  <0> d          -0.018   1.503   0.010  0.00  0.00    -0.034 C 
ATOM      9  H1  <0> d           1.004   1.880   0.003  0.00  0.00     0.035 H 
ATOM     10  H2  <0> d          -0.545   1.864  -0.873  0.00  0.00     0.035 H 
ATOM     11  H3  <0> d          -0.529   1.854   0.907  0.00  0.00     0.035 H 
ENDBRANCH   1   8
BRANCH   5  12
ATOM     12  C5  <0> d           0.031  -0.365   2.485  0.00  0.00     0.003 C 
ATOM     13  H5  <0> d          -0.994  -0.269   2.842  0.00  0.00     0.059 H 
ATOM     14  H6  <0> d           0.561  -1.098   3.095  0.00  0.00     0.059 H 
ATOM     15  H7  <0> d           0.533   0.600   2.559  0.00  0.00     0.059 H 
ENDBRANCH   5  12
TORSDOF 2
