REMARK  0 active torsions:
REMARK  status: ('A' for Active; 'I' for Inactive)
ROOT
ATOM      1  C1  <0> d          -1.221   1.742   0.017  0.00  0.00    -0.042 A 
ATOM      2  C2  <0> d          -0.013   1.076   0.008  0.00  0.00    -0.021 A 
ATOM      3  N1  <0> d           1.126   1.744   0.001  0.00  0.00    -0.375 N 
ATOM      4  C3  <0> d           1.163   3.063   0.009  0.00  0.00    -0.015 A 
ATOM      5  C4  <0> d          -0.002   3.804   0.025  0.00  0.00    -0.016 A 
ATOM      6  C5  <0> d          -1.221   3.135   0.030  0.00  0.00     0.036 A 
ATOM      7  N2  <0> d          -2.424   3.834   0.038  0.00  0.00    -0.389 N 
ATOM      8  C6  <0> d          -2.405   5.271   0.346  0.00  0.00    -0.007 C 
ATOM      9  C7  <0> d          -1.252   5.907  -0.441  0.00  0.00    -0.046 C 
ATOM     10  C8  <0> d           0.069   5.306   0.041  0.00  0.00    -0.036 C 
ATOM     11  H1  <0> d          -2.151   1.193   0.018  0.00  0.00     0.089 H 
ATOM     12  H2  <0> d           0.002  -0.004   0.002  0.00  0.00     0.111 H 
ATOM     13  H3  <0> d           2.117   3.570   0.002  0.00  0.00     0.112 H 
ATOM     14  H4  <0> d          -3.377   3.331  -0.181  0.00  0.00     0.159 HD
ATOM     15  H5  <0> d          -3.363   5.723   0.048  0.00  0.00     0.064 H 
ATOM     16  H6  <0> d          -2.253   5.413   1.426  0.00  0.00     0.064 H 
ATOM     17  H7  <0> d          -1.383   5.703  -1.514  0.00  0.00     0.035 H 
ATOM     18  H8  <0> d          -1.248   6.994  -0.273  0.00  0.00     0.035 H 
ATOM     19  H9  <0> d           0.268   5.653   1.066  0.00  0.00     0.040 H 
ATOM     20  H10 <0> d           0.879   5.642  -0.623  0.00  0.00     0.040 H 
ATOM     21  H11 <0> d           2.082   1.201  -0.012  0.00  0.00     0.164 HD
ENDROOT
TORSDOF 0
