REMARK  1 active torsions:
REMARK  status: ('A' for Active; 'I' for Inactive)
REMARK    1  A    between atoms: C5_6  and  N3_10 
ROOT
ATOM      1  C1  <0> d          -0.016   1.357   0.009  0.00  0.00    -0.078 A 
ATOM      2  C2  <0> d           1.194   2.068   0.002  0.00  0.00    -0.067 A 
ATOM      3  C3  <0> d           2.372   1.408  -0.013  0.00  0.00    -0.014 A 
ATOM      4  N1  <0> d           2.404   0.045  -0.021  0.00  0.00    -0.314 N 
ATOM      5  C4  <0> d           3.436  -0.857  -0.036  0.00  0.00     0.030 A 
ATOM      6  C5  <0> d           2.883  -2.097  -0.037  0.00  0.00     0.139 A 
ATOM      7  N2  <0> d           1.552  -1.967  -0.024  0.00  0.00    -0.212 NA
ATOM      8  C6  <0> d           1.239  -0.677  -0.013  0.00  0.00     0.136 A 
ATOM      9  C7  <0> d           0.002  -0.004   0.002  0.00  0.00    -0.038 A 
ATOM     10  H1  <0> d          -0.957   1.887   0.026  0.00  0.00     0.083 H 
ATOM     11  H2  <0> d           1.183   3.148   0.008  0.00  0.00     0.085 H 
ATOM     12  H3  <0> d           3.297   1.965  -0.020  0.00  0.00     0.112 H 
ATOM     13  H4  <0> d           4.491  -0.625  -0.046  0.00  0.00     0.118 H 
ATOM     14  H5  <0> d          -0.923  -0.562   0.008  0.00  0.00     0.089 H 
ENDROOT
BRANCH   6  15
ATOM     15  N3  <0> d           3.587  -3.308  -0.051  0.00  0.00    -0.383 N 
ATOM     16  H6  <0> d           4.557  -3.305  -0.060  0.00  0.00     0.157 HD
ATOM     17  H7  <0> d           3.105  -4.149  -0.051  0.00  0.00     0.157 HD
ENDBRANCH   6  15
TORSDOF 1
