REMARK  2 active torsions:
REMARK  status: ('A' for Active; 'I' for Inactive)
REMARK    1  A    between atoms: C1_1  and  C2_2 
REMARK    2  A    between atoms: C7_7  and  N1_8 
ROOT
ATOM      1  C2  <0> d           1.157   3.175   0.008  0.00  0.00    -0.035 A 
ATOM      2  C3  <0> d          -0.051   3.844   0.023  0.00  0.00    -0.075 A 
ATOM      3  C4  <0> d          -1.237   3.134   0.031  0.00  0.00    -0.082 A 
ATOM      4  C5  <0> d          -1.217   1.751   0.017  0.00  0.00    -0.081 A 
ATOM      5  C6  <0> d          -0.013   1.076   0.008  0.00  0.00    -0.056 A 
ATOM      6  C7  <0> d           1.180   1.787   0.000  0.00  0.00     0.045 A 
ATOM      7  H4  <0> d          -0.070   4.924   0.030  0.00  0.00     0.084 H 
ATOM      8  H5  <0> d          -2.180   3.659   0.043  0.00  0.00     0.083 H 
ATOM      9  H6  <0> d          -2.145   1.198   0.018  0.00  0.00     0.083 H 
ATOM     10  H7  <0> d           0.002  -0.004   0.002  0.00  0.00     0.087 H 
ENDROOT
BRANCH   6  11
ATOM     11  N1  <0> d           2.405   1.105  -0.015  0.00  0.00    -0.315 N 
ATOM     12  C10 <0> d           3.444   1.330  -0.861  0.00  0.00     0.070 A 
ATOM     13  N2  <0> d           4.406   0.499  -0.567  0.00  0.00    -0.254 NA
ATOM     14  H10 <0> d           3.470   2.073  -1.644  0.00  0.00     0.144 H 
ATOM     15  C9  <0> d           4.026  -0.277   0.459  0.00  0.00     0.019 A 
ATOM     16  C8  <0> d           2.782   0.088   0.823  0.00  0.00     0.003 A 
ATOM     17  H9  <0> d           4.618  -1.056   0.917  0.00  0.00     0.117 H 
ATOM     18  H8  <0> d           2.194  -0.340   1.621  0.00  0.00     0.114 H 
ENDBRANCH   6  11
BRANCH   1  19
ATOM     19  C1  <0> d           2.449   3.950   0.000  0.00  0.00    -0.049 C 
ATOM     20  H1  <0> d           2.230   5.028   0.008  0.00  0.00     0.033 H 
ATOM     21  H2  <0> d           3.022   3.699  -0.904  0.00  0.00     0.033 H 
ATOM     22  H3  <0> d           3.039   3.690   0.892  0.00  0.00     0.033 H 
ENDBRANCH   1  19
TORSDOF 2
