REMARK  3 active torsions:
REMARK  status: ('A' for Active; 'I' for Inactive)
REMARK    1  A    between atoms: C1_1  and  C2_2 
REMARK    2  A    between atoms: C2_2  and  C7_9 
REMARK    3  A    between atoms: C6_6  and  O1_8 
ROOT
ATOM      1  C2  <0> d           0.002  -0.004   0.002  0.00  0.00    -0.022 C 
ATOM      2  C3  <0> d           0.783  -0.515  -1.226  0.00  0.00    -0.056 C 
ATOM      3  C4  <0> d           2.213  -0.768  -0.688  0.00  0.00    -0.062 C 
ATOM      4  C5  <0> d           1.950  -1.339   0.728  0.00  0.00    -0.040 C 
ATOM      5  C6  <0> d           0.744  -0.528   1.244  0.00  0.00     0.042 C 
ATOM      6  H1  <0> d           0.085  -1.170   1.829  0.00  0.00     0.084 H 
ATOM      7  H5  <0> d           0.346  -1.442  -1.598  0.00  0.00     0.034 H 
ATOM      8  H6  <0> d           0.799   0.242  -2.010  0.00  0.00     0.034 H 
ATOM      9  H7  <0> d           2.736  -1.498  -1.308  0.00  0.00     0.033 H 
ATOM     10  H8  <0> d           2.775   0.164  -0.630  0.00  0.00     0.033 H 
ATOM     11  H9  <0> d           1.701  -2.399   0.671  0.00  0.00     0.036 H 
ATOM     12  H10 <0> d           2.817  -1.184   1.369  0.00  0.00     0.036 H 
ENDROOT
BRANCH   1  13
ATOM     13  C1  <0> d          -0.019   1.526   0.010  0.00  0.00    -0.067 C 
ATOM     14  H2  <0> d           1.004   1.903   0.003  0.00  0.00     0.028 H 
ATOM     15  H3  <0> d          -0.546   1.887  -0.873  0.00  0.00     0.028 H 
ATOM     16  H4  <0> d          -0.529   1.877   0.907  0.00  0.00     0.028 H 
ENDBRANCH   1  13
BRANCH   1  17
ATOM     17  C7  <0> d          -1.428  -0.547  -0.022  0.00  0.00    -0.067 C 
ATOM     18  H12 <0> d          -1.941  -0.180  -0.911  0.00  0.00     0.028 H 
ATOM     19  H13 <0> d          -1.403  -1.637  -0.041  0.00  0.00     0.028 H 
ATOM     20  H14 <0> d          -1.960  -0.211   0.868  0.00  0.00     0.028 H 
ENDBRANCH   1  17
BRANCH   5  21
ATOM     21  O1  <0> d           1.196   0.568   2.042  0.00  0.00    -0.395 OA
ATOM     22  H11 <0> d           1.672   0.302   2.841  0.00  0.00     0.210 HD
ENDBRANCH   5  21
TORSDOF 3
