REMARK  2 active torsions:
REMARK  status: ('A' for Active; 'I' for Inactive)
REMARK    1  A    between atoms: C3_3  and  C5_6 
REMARK    2  A    between atoms: C3_3  and  C8_9 
ROOT
ATOM      1  C1  <0> d           1.462   0.847   3.592  0.00  0.00    -0.042 C 
ATOM      2  C2  <0> d           1.143   0.126   2.254  0.00  0.00    -0.034 C 
ATOM      3  C3  <0> d           2.144   0.783   1.280  0.00  0.00     0.068 C 
ATOM      4  O1  <0> d           2.536   2.040   1.845  0.00  0.00    -0.379 OA
ATOM      5  C4  <0> d           1.839   2.261   3.081  0.00  0.00     0.021 C 
ATOM      6  H1  <0> d           2.303   0.377   4.101  0.00  0.00     0.036 H 
ATOM      7  H2  <0> d           0.585   0.884   4.238  0.00  0.00     0.036 H 
ATOM      8  H3  <0> d           0.116   0.320   1.944  0.00  0.00     0.037 H 
ATOM      9  H4  <0> d           1.328  -0.945   2.337  0.00  0.00     0.037 H 
ATOM     10  H5  <0> d           2.489   2.761   3.798  0.00  0.00     0.074 H 
ATOM     11  H6  <0> d           0.940   2.852   2.908  0.00  0.00     0.074 H 
ENDROOT
BRANCH   3  12
ATOM     12  C5  <0> d           1.476   1.010  -0.077  0.00  0.00    -0.024 A 
ATOM     13  C7  <0> d           1.070   2.441  -0.434  0.00  0.00    -0.059 A 
ATOM     14  C6  <0> d           2.265   1.789  -1.132  0.00  0.00    -0.059 A 
ATOM     15  H10 <0> d           1.279   3.221   0.298  0.00  0.00     0.033 H 
ATOM     16  H11 <0> d           0.158   2.575  -1.017  0.00  0.00     0.033 H 
ATOM     17  H8  <0> d           2.140   1.494  -2.173  0.00  0.00     0.033 H 
ATOM     18  H9  <0> d           3.260   2.139  -0.859  0.00  0.00     0.033 H 
ATOM     19  H7  <0> d           0.832   0.203  -0.425  0.00  0.00     0.044 H 
ENDBRANCH   3  12
BRANCH   3  20
ATOM     20  C8  <0> d           3.372  -0.115   1.111  0.00  0.00    -0.024 A 
ATOM     21  C10 <0> d           3.132  -1.565   0.683  0.00  0.00    -0.059 A 
ATOM     22  C9  <0> d           3.728  -0.563  -0.308  0.00  0.00    -0.059 A 
ATOM     23  H15 <0> d           3.798  -2.326   1.091  0.00  0.00     0.033 H 
ATOM     24  H16 <0> d           2.101  -1.878   0.523  0.00  0.00     0.033 H 
ATOM     25  H13 <0> d           3.089  -0.218  -1.121  0.00  0.00     0.033 H 
ATOM     26  H14 <0> d           4.786  -0.665  -0.553  0.00  0.00     0.033 H 
ATOM     27  H12 <0> d           4.194   0.077   1.800  0.00  0.00     0.044 H 
ENDBRANCH   3  20
TORSDOF 2
