REMARK  3 active torsions:
REMARK  status: ('A' for Active; 'I' for Inactive)
REMARK    1  A    between atoms: C1_1  and  O1_2 
REMARK    2  A    between atoms: O1_2  and  C2_3 
REMARK    3  A    between atoms: C5_6  and  C8_9 
ROOT
ATOM      1  C2  <0> d           1.177   2.086   0.002  0.00  0.00     0.068 A 
ATOM      2  C3  <0> d          -0.017   1.373   0.010  0.00  0.00    -0.050 A 
ATOM      3  C4  <0> d           0.002  -0.004   0.002  0.00  0.00    -0.064 A 
ATOM      4  C5  <0> d           1.223  -0.684  -0.013  0.00  0.00     0.041 A 
ATOM      5  C6  <0> d           2.421   0.037  -0.021  0.00  0.00    -0.064 A 
ATOM      6  C7  <0> d           2.393   1.413  -0.013  0.00  0.00    -0.050 A 
ATOM      7  H4  <0> d          -0.960   1.899   0.017  0.00  0.00     0.087 H 
ATOM      8  H5  <0> d          -0.925  -0.557   0.008  0.00  0.00     0.085 H 
ATOM      9  H6  <0> d           3.366  -0.485  -0.033  0.00  0.00     0.085 H 
ATOM     10  H7  <0> d           3.318   1.971  -0.019  0.00  0.00     0.087 H 
ENDROOT
BRANCH   1  11
ATOM     11  O1  <0> d           1.154   3.443   0.010  0.00  0.00    -0.356 OA
BRANCH  11  12
ATOM     12  C1  <0> d           2.416   4.113   0.001  0.00  0.00     0.010 C 
ATOM     13  H1  <0> d           2.986   3.825   0.884  0.00  0.00     0.066 H 
ATOM     14  H2  <0> d           2.969   3.834  -0.896  0.00  0.00     0.066 H 
ATOM     15  H3  <0> d           2.255   5.191   0.009  0.00  0.00     0.066 H 
ENDBRANCH  11  12
ENDBRANCH   1  11
BRANCH   4  16
ATOM     16  C8  <0> d           1.248  -2.159  -0.021  0.00  0.00     0.209 C 
ATOM     17  O2  <0> d           0.206  -2.784  -0.014  0.00  0.00    -0.644 OA
ATOM     18  O3  <0> d           2.426  -2.813  -0.036  0.00  0.00    -0.644 OA
ENDBRANCH   4  16
TORSDOF 3
