REMARK  3 active torsions:
REMARK  status: ('A' for Active; 'I' for Inactive)
REMARK    1  A    between atoms: C1_1  and  C2_2 
REMARK    2  A    between atoms: C2_2  and  C3_3 
REMARK    3  A    between atoms: C5_6  and  C7_10 
ROOT
ATOM      1  C3  <0> d           0.002  -0.004   0.002  0.00  0.00    -0.000 A 
ATOM      2  C4  <0> d          -0.017   1.381   0.010  0.00  0.00     0.013 A 
ATOM      3  N1  <0> d           1.131   2.041   0.002  0.00  0.00    -0.245 NA
ATOM      4  C5  <0> d           2.281   1.397  -0.012  0.00  0.00     0.123 A 
ATOM      5  N2  <0> d           2.339   0.080  -0.020  0.00  0.00    -0.221 NA
ATOM      6  C6  <0> d           1.232  -0.647  -0.013  0.00  0.00     0.135 A 
ATOM      7 Cl1  <0> d           1.318  -2.381  -0.024  0.00  0.00    -0.062 Cl
ATOM      8  H6  <0> d          -0.955   1.915   0.017  0.00  0.00     0.115 H 
ENDROOT
BRANCH   1   9
ATOM      9  C2  <0> d          -1.282  -0.793   0.011  0.00  0.00    -0.040 C 
ATOM     10  H4  <0> d          -1.172  -1.658   0.665  0.00  0.00     0.039 H 
ATOM     11  H5  <0> d          -2.093  -0.163   0.373  0.00  0.00     0.039 H 
BRANCH   9  12
ATOM     12  C1  <0> d          -1.599  -1.266  -1.409  0.00  0.00    -0.072 C 
ATOM     13  H1  <0> d          -2.527  -1.837  -1.403  0.00  0.00     0.028 H 
ATOM     14  H2  <0> d          -1.708  -0.402  -2.064  0.00  0.00     0.028 H 
ATOM     15  H3  <0> d          -0.787  -1.897  -1.772  0.00  0.00     0.028 H 
ENDBRANCH   9  12
ENDBRANCH   1   9
BRANCH   4  16
ATOM     16  C7  <0> d           3.564   2.187  -0.020  0.00  0.00    -0.019 C 
ATOM     17  H7  <0> d           3.863   2.384  -1.050  0.00  0.00     0.037 H 
ATOM     18  H8  <0> d           3.411   3.133   0.500  0.00  0.00     0.037 H 
ATOM     19  H9  <0> d           4.345   1.618   0.483  0.00  0.00     0.037 H 
ENDBRANCH   4  16
TORSDOF 3
