REMARK  3 active torsions:
REMARK  status: ('A' for Active; 'I' for Inactive)
REMARK    1  A    between atoms: C1_1  and  C2_2 
REMARK    2  A    between atoms: C2_2  and  C3_3 
REMARK    3  A    between atoms: C3_3  and  N1_4 
ROOT
ATOM      1  C3  <0> d          -0.735   2.019   1.269  0.00  0.00    -0.002 C 
ATOM      2  H6  <0> d          -1.757   1.642   1.277  0.00  0.00     0.064 H 
ATOM      3  H7  <0> d          -0.208   1.658   2.152  0.00  0.00     0.064 H 
ENDROOT
BRANCH   1   4
ATOM      4  C2  <0> d          -0.019   1.526   0.010  0.00  0.00    -0.053 C 
ATOM      5  H4  <0> d           1.004   1.903   0.003  0.00  0.00     0.034 H 
ATOM      6  H5  <0> d          -0.546   1.887  -0.873  0.00  0.00     0.034 H 
BRANCH   4   7
ATOM      7  C1  <0> d           0.002  -0.004   0.002  0.00  0.00    -0.075 C 
ATOM      8  H1  <0> d          -1.020  -0.381   0.010  0.00  0.00     0.027 H 
ATOM      9  H2  <0> d           0.512  -0.356  -0.895  0.00  0.00     0.027 H 
ATOM     10  H3  <0> d           0.529  -0.365   0.885  0.00  0.00     0.027 H 
ENDBRANCH   4   7
ENDBRANCH   1   4
BRANCH   1  11
ATOM     11  N1  <0> d          -0.755   3.484   1.277  0.00  0.00    -0.366 N 
ATOM     12  C7  <0> d          -1.730   4.268   0.737  0.00  0.00    -0.021 A 
ATOM     13  C6  <0> d          -1.396   5.558   0.942  0.00  0.00    -0.067 A 
ATOM     14  H11 <0> d          -2.617   3.917   0.231  0.00  0.00     0.111 H 
ATOM     15  C5  <0> d          -0.170   5.571   1.635  0.00  0.00    -0.067 A 
ATOM     16  H10 <0> d          -1.965   6.423   0.633  0.00  0.00     0.085 H 
ATOM     17  C4  <0> d           0.196   4.288   1.832  0.00  0.00    -0.021 A 
ATOM     18  H9  <0> d           0.375   6.447   1.954  0.00  0.00     0.085 H 
ATOM     19  H8  <0> d           1.090   3.955   2.339  0.00  0.00     0.111 H 
ENDBRANCH   1  11
TORSDOF 3
