REMARK  2 active torsions:
REMARK  status: ('A' for Active; 'I' for Inactive)
REMARK    1  A    between atoms: C4_5  and  C5_6 
REMARK    2  A    between atoms: C5_6  and  O1_7 
ROOT
ATOM      1  C1  <0> d          -0.368   2.777   1.827  0.00  0.00    -0.068 A 
ATOM      2  C2  <0> d          -1.027   3.188   2.938  0.00  0.00    -0.044 A 
ATOM      3  S1  <0> d          -2.172   1.845   3.207  0.00  0.00    -0.113 SA
ATOM      4  C3  <0> d          -1.701   0.831   1.815  0.00  0.00    -0.037 A 
ATOM      5  C4  <0> d          -0.718   1.572   1.248  0.00  0.00    -0.028 A 
ATOM      6  H1  <0> d           0.414   3.385   1.397  0.00  0.00     0.085 H 
ATOM      7  H2  <0> d          -0.890   4.091   3.515  0.00  0.00     0.095 H 
ATOM      8  H3  <0> d          -2.096  -0.126   1.506  0.00  0.00     0.095 H 
ENDROOT
BRANCH   5   9
ATOM      9  C5  <0> d          -0.013   1.086   0.008  0.00  0.00     0.041 C 
ATOM     10  H4  <0> d           0.002  -0.004   0.002  0.00  0.00     0.081 H 
ATOM     11  H5  <0> d           1.010   1.463   0.000  0.00  0.00     0.081 H 
BRANCH   9  12
ATOM     12  O1  <0> d          -0.704   1.559  -1.150  0.00  0.00    -0.396 OA
ATOM     13  H6  <0> d          -0.304   1.284  -1.986  0.00  0.00     0.209 HD
ENDBRANCH   9  12
ENDBRANCH   5   9
TORSDOF 2
