REMARK  1 active torsions:
REMARK  status: ('A' for Active; 'I' for Inactive)
REMARK    1  A    between atoms: C8_9  and  O2_10 
ROOT
ATOM      1  C1  <0> d          -1.082   2.401   0.019  0.00  0.00    -0.049 A 
ATOM      2  C2  <0> d          -0.467   3.592   0.026  0.00  0.00     0.020 A 
ATOM      3  O1  <0> d           0.867   3.425   0.012  0.00  0.00    -0.319 OA
ATOM      4  C3  <0> d           1.186   2.114   0.002  0.00  0.00     0.118 A 
ATOM      5  C4  <0> d          -0.017   1.391   0.010  0.00  0.00     0.005 A 
ATOM      6  C5  <0> d           0.002  -0.004   0.002  0.00  0.00    -0.033 A 
ATOM      7  C6  <0> d           1.210  -0.671  -0.013  0.00  0.00     0.120 A 
ATOM      8  C7  <0> d           2.402   0.041  -0.020  0.00  0.00    -0.011 A 
ATOM      9  C8  <0> d           2.397   1.424  -0.013  0.00  0.00     0.103 A 
ATOM     10  F1  <0> d           1.232  -2.022  -0.021  0.00  0.00    -0.206 F 
ATOM     11  H1  <0> d          -2.147   2.221   0.023  0.00  0.00     0.087 H 
ATOM     12  H2  <0> d          -0.970   4.548   0.036  0.00  0.00     0.123 H 
ATOM     13  H3  <0> d          -0.924  -0.559   0.007  0.00  0.00     0.089 H 
ATOM     14  H4  <0> d           3.342  -0.490  -0.032  0.00  0.00     0.092 H 
ENDROOT
BRANCH   9  15
ATOM     15  O2  <0> d           3.571   2.109  -0.019  0.00  0.00    -0.358 OA
ATOM     16  H5  <0> d           4.526   1.564  -0.030  0.00  0.00     0.217 HD
ENDBRANCH   9  15
TORSDOF 1
