REMARK  1 active torsions:
REMARK  status: ('A' for Active; 'I' for Inactive)
REMARK    1  A    between atoms: C2_2  and  C3_3 
ROOT
ATOM      1  C1  <0> d           3.269   5.280  -0.002  0.00  0.00    -0.149 C 
ATOM      2  C2  <0> d           2.289   4.634   0.005  0.00  0.00    -0.076 C 
ATOM      3  H1  <0> d           4.188   5.886  -0.007  0.00  0.00     0.166 H 
ENDROOT
BRANCH   2   4
ATOM      4  C3  <0> d           1.094   3.845   0.012  0.00  0.00     0.036 A 
ATOM      5  C7  <0> d          -0.159   4.458   0.028  0.00  0.00     0.020 A 
ATOM      6  N1  <0> d          -1.259   3.734   0.034  0.00  0.00    -0.270 NA
ATOM      7  H4  <0> d          -0.228   5.536   0.034  0.00  0.00     0.117 H 
ATOM      8  C6  <0> d          -1.226   2.415   0.021  0.00  0.00     0.023 A 
ATOM      9  C5  <0> d          -0.021   1.732   0.012  0.00  0.00     0.052 A 
ATOM     10  H3  <0> d          -2.152   1.860   0.022  0.00  0.00     0.117 H 
ATOM     11  C4  <0> d           1.164   2.448   0.004  0.00  0.00    -0.041 A 
ATOM     12 Cl1  <0> d           0.002  -0.004   0.002  0.00  0.00    -0.083 Cl
ATOM     13  H2  <0> d           2.117   1.941  -0.007  0.00  0.00     0.088 H 
ENDBRANCH   2   4
TORSDOF 1
