REMARK  4 active torsions:
REMARK  status: ('A' for Active; 'I' for Inactive)
REMARK    1  A    between atoms: C1_1  and  C2_2 
REMARK    2  A    between atoms: C8_9  and  C9_11 
REMARK    3  A    between atoms: C9_11  and  C10_12 
REMARK    4  A    between atoms: C10_12  and  O1_13 
ROOT
ATOM      1  C2  <0> d          -2.724   1.810  -0.009  0.00  0.00    -0.051 C 
ATOM      2  H1  <0> d          -3.796   1.619  -0.062  0.00  0.00     0.040 H 
ATOM      3  C3  <0> d          -2.021   1.092  -1.162  0.00  0.00    -0.061 C 
ATOM      4  C4  <0> d          -0.529   1.427  -1.148  0.00  0.00    -0.061 C 
ATOM      5  C5  <0> d           0.101   0.892   0.142  0.00  0.00    -0.045 C 
ATOM      6  C6  <0> d          -0.668   1.443   1.322  0.00  0.00    -0.085 C 
ATOM      7  C7  <0> d          -0.047   2.038   2.310  0.00  0.00    -0.119 C 
ATOM      8  C8  <0> d          -2.177   1.289   1.324  0.00  0.00    -0.028 C 
ATOM      9  H2  <0> d          -2.437   0.237   1.441  0.00  0.00     0.047 H 
ATOM     10  H6  <0> d          -2.456   1.414  -2.108  0.00  0.00     0.033 H 
ATOM     11  H7  <0> d          -2.152   0.015  -1.052  0.00  0.00     0.033 H 
ATOM     12  H8  <0> d          -0.398   2.508  -1.196  0.00  0.00     0.033 H 
ATOM     13  H9  <0> d          -0.044   0.964  -2.008  0.00  0.00     0.033 H 
ATOM     14  H10 <0> d           0.052  -0.197   0.149  0.00  0.00     0.039 H 
ATOM     15  H11 <0> d           1.141   1.212   0.202  0.00  0.00     0.039 H 
ATOM     16  H12 <0> d           1.015   2.224   2.247  0.00  0.00     0.067 H 
ATOM     17  H13 <0> d          -0.597   2.343   3.188  0.00  0.00     0.067 H 
ENDROOT
BRANCH   8  18
ATOM     18  C9  <0> d          -2.777   2.098   2.476  0.00  0.00    -0.038 C 
ATOM     19  H14 <0> d          -2.330   1.776   3.417  0.00  0.00     0.037 H 
ATOM     20  H15 <0> d          -2.573   3.157   2.321  0.00  0.00     0.037 H 
BRANCH  18  21
ATOM     21  C10 <0> d          -4.289   1.871   2.526  0.00  0.00     0.017 C 
ATOM     22  H16 <0> d          -4.729   2.147   1.568  0.00  0.00     0.074 H 
ATOM     23  H17 <0> d          -4.492   0.820   2.730  0.00  0.00     0.074 H 
BRANCH  21  24
ATOM     24  O1  <0> d          -4.858   2.676   3.561  0.00  0.00    -0.401 OA
ATOM     25  H18 <0> d          -5.816   2.583   3.650  0.00  0.00     0.209 HD
ENDBRANCH  21  24
ENDBRANCH  18  21
ENDBRANCH   8  18
BRANCH   1  26
ATOM     26  C1  <0> d          -2.468   3.315  -0.113  0.00  0.00    -0.072 C 
ATOM     27  H3  <0> d          -2.857   3.684  -1.062  0.00  0.00     0.028 H 
ATOM     28  H4  <0> d          -2.970   3.826   0.708  0.00  0.00     0.028 H 
ATOM     29  H5  <0> d          -1.396   3.505  -0.060  0.00  0.00     0.028 H 
ENDBRANCH   1  26
TORSDOF 4
