REMARK  5 active torsions:
REMARK  status: ('A' for Active; 'I' for Inactive)
REMARK    1  A    between atoms: C1_1  and  C2_2 
REMARK    2  A    between atoms: C2_2  and  C3_3 
REMARK    3  A    between atoms: C3_3  and  C4_4 
REMARK    4  A    between atoms: C4_4  and  C5_6 
REMARK    5  A    between atoms: C5_6  and  C6_7 
ROOT
ATOM      1  C3  <0> d           1.280   1.975   0.000  0.00  0.00    -0.010 C 
ATOM      2  H6  <0> d           1.318   2.554  -0.813  0.00  0.00     0.044 H 
ATOM      3  H7  <0> d           1.338   2.597   0.893  0.00  0.00     0.044 H 
ENDROOT
BRANCH   1   4
ATOM      4  C2  <0> d           2.457   0.996  -0.016  0.00  0.00    -0.062 C 
ATOM      5  H4  <0> d           2.416   0.364   0.871  0.00  0.00     0.033 H 
ATOM      6  H5  <0> d           2.399   0.374  -0.909  0.00  0.00     0.033 H 
BRANCH   4   7
ATOM      7  C1  <0> d           3.771   1.779  -0.024  0.00  0.00    -0.076 C 
ATOM      8  H1  <0> d           3.812   2.411  -0.911  0.00  0.00     0.027 H 
ATOM      9  H2  <0> d           3.829   2.402   0.868  0.00  0.00     0.027 H 
ATOM     10  H3  <0> d           4.609   1.082  -0.036  0.00  0.00     0.027 H 
ENDBRANCH   4   7
ENDBRANCH   1   4
BRANCH   1  11
ATOM     11  C4  <0> d          -0.014   1.203   0.009  0.00  0.00     0.126 C 
ATOM     12  O1  <0> d           0.002  -0.004   0.002  0.00  0.00    -0.298 OA
BRANCH  11  13
ATOM     13  C5  <0> d          -1.329   1.939   0.019  0.00  0.00    -0.013 C 
ATOM     14  H8  <0> d          -1.386   2.509   0.839  0.00  0.00     0.043 H 
ATOM     15  H9  <0> d          -1.400   2.570  -0.867  0.00  0.00     0.043 H 
BRANCH  13  16
ATOM     16  C6  <0> d          -2.479   0.929   0.019  0.00  0.00    -0.070 C 
ATOM     17  H10 <0> d          -2.408   0.298   0.905  0.00  0.00     0.028 H 
ATOM     18  H11 <0> d          -3.430   1.461   0.026  0.00  0.00     0.028 H 
ATOM     19  H12 <0> d          -2.417   0.308  -0.875  0.00  0.00     0.028 H 
ENDBRANCH  13  16
ENDBRANCH  11  13
ENDBRANCH   1  11
TORSDOF 5
