REMARK  2 active torsions:
REMARK  status: ('A' for Active; 'I' for Inactive)
REMARK    1  A    between atoms: N2_4  and  C3_6 
REMARK    2  A    between atoms: C3_6  and  C4_7 
ROOT
ATOM      1  C1  <0> d          -3.931  -0.340  -0.680  0.00  0.00     0.042 A 
ATOM      2  C2  <0> d          -3.925  -0.347   0.717  0.00  0.00     0.042 A 
ATOM      3  N1  <0> d          -2.974   0.485   1.077  0.00  0.00    -0.166 NA
ATOM      4  N2  <0> d          -2.430   0.973   0.019  0.00  0.00    -0.179 N 
ATOM      5  N3  <0> d          -2.987   0.500  -1.039  0.00  0.00    -0.166 NA
ATOM      6  H1  <0> d          -4.582  -0.905  -1.330  0.00  0.00     0.119 H 
ATOM      7  H2  <0> d          -4.569  -0.920   1.368  0.00  0.00     0.119 H 
ENDROOT
BRANCH   4   8
ATOM      8  C3  <0> d          -1.329   1.940   0.019  0.00  0.00     0.114 C 
ATOM      9  H3  <0> d          -1.401   2.576  -0.875  0.00  0.00     0.086 H 
ATOM     10  H4  <0> d          -1.392   2.566   0.921  0.00  0.00     0.086 H 
BRANCH   8  11
ATOM     11  C4  <0> d          -0.014   1.204   0.009  0.00  0.00     0.195 C 
ATOM     12  O1  <0> d           0.002  -0.004   0.002  0.00  0.00    -0.647 OA
ATOM     13  O2  <0> d           1.139   1.891   0.001  0.00  0.00    -0.647 OA
ENDBRANCH   8  11
ENDBRANCH   4   8
TORSDOF 2
