REMARK  2 active torsions:
REMARK  status: ('A' for Active; 'I' for Inactive)
REMARK    1  A    between atoms: C1_1  and  C2_2 
REMARK    2  A    between atoms: N1_6  and  C6_10 
ROOT
ATOM      1  C2  <0> d           0.002  -0.004   0.002  0.00  0.00     0.060 A 
ATOM      2  C3  <0> d           1.177  -0.661  -0.013  0.00  0.00     0.011 A 
ATOM      3  C4  <0> d           2.384   0.084  -0.020  0.00  0.00     0.253 A 
ATOM      4  O1  <0> d           3.461  -0.484  -0.033  0.00  0.00    -0.268 OA
ATOM      5  N1  <0> d           2.322   1.432  -0.012  0.00  0.00    -0.264 N 
ATOM      6  C5  <0> d           1.126   2.050   0.002  0.00  0.00     0.374 A 
ATOM      7  O2  <0> d           1.078   3.264   0.009  0.00  0.00    -0.237 OA
ATOM      8  O3  <0> d          -0.016   1.342   0.009  0.00  0.00    -0.266 OA
ATOM      9  H4  <0> d           1.200  -1.741  -0.018  0.00  0.00     0.096 H 
ENDROOT
BRANCH   1  10
ATOM     10  C1  <0> d          -1.293  -0.775   0.010  0.00  0.00    -0.031 C 
ATOM     11  H1  <0> d          -2.131  -0.078   0.021  0.00  0.00     0.036 H 
ATOM     12  H2  <0> d          -1.350  -1.398  -0.883  0.00  0.00     0.036 H 
ATOM     13  H3  <0> d          -1.334  -1.407   0.897  0.00  0.00     0.036 H 
ENDBRANCH   1  10
BRANCH   5  14
ATOM     14  C6  <0> d           3.555   2.223  -0.019  0.00  0.00    -0.006 C 
ATOM     15  H5  <0> d           3.852   2.425  -1.049  0.00  0.00     0.057 H 
ATOM     16  H6  <0> d           3.385   3.166   0.501  0.00  0.00     0.057 H 
ATOM     17  H7  <0> d           4.346   1.668   0.484  0.00  0.00     0.057 H 
ENDBRANCH   5  14
TORSDOF 2
