REMARK  2 active torsions:
REMARK  status: ('A' for Active; 'I' for Inactive)
REMARK    1  A    between atoms: C1_1  and  C2_2 
REMARK       I    between atoms: C2_2  and  N1_4 
REMARK    2  A    between atoms: N1_4  and  C3_5 
ROOT
ATOM      1  C3  <0> d           0.020  -2.136  -1.177  0.00  0.00     0.013 C 
ATOM      2  C4  <0> d           1.464  -2.626  -1.059  0.00  0.00    -0.040 C 
ATOM      3  C5  <0> d           1.478  -4.156  -0.974  0.00  0.00    -0.008 C 
ATOM      4  C6  <0> d           0.727  -4.710  -2.165  0.00  0.00     0.127 C 
ATOM      5  O2  <0> d           1.222  -5.556  -2.869  0.00  0.00    -0.298 OA
ATOM      6  C7  <0> d          -0.659  -4.177  -2.450  0.00  0.00    -0.008 C 
ATOM      7  C8  <0> d          -0.595  -2.646  -2.481  0.00  0.00    -0.040 C 
ATOM      8  H5  <0> d          -0.559  -2.511  -0.333  0.00  0.00     0.072 H 
ATOM      9  H6  <0> d           2.030  -2.305  -1.934  0.00  0.00     0.036 H 
ATOM     10  H7  <0> d           1.917  -2.208  -0.160  0.00  0.00     0.036 H 
ATOM     11  H8  <0> d           1.037  -4.447  -0.125  0.00  0.00     0.044 H 
ATOM     12  H9  <0> d           2.507  -4.514  -0.991  0.00  0.00     0.044 H 
ATOM     13  H10 <0> d          -1.287  -4.479  -1.733  0.00  0.00     0.044 H 
ATOM     14  H11 <0> d          -1.003  -4.549  -3.415  0.00  0.00     0.044 H 
ATOM     15  H12 <0> d          -1.602  -2.242  -2.591  0.00  0.00     0.036 H 
ATOM     16  H13 <0> d           0.019  -2.325  -3.323  0.00  0.00     0.036 H 
ENDROOT
BRANCH   1  17
ATOM     17  N1  <0> d           0.000  -0.672  -1.169  0.00  0.00    -0.357 N 
ATOM     18  C2  <0> d           0.002  -0.004   0.002  0.00  0.00     0.213 C 
ATOM     19  O1  <0> d           0.020  -0.616   1.049  0.00  0.00    -0.274 OA
ATOM     20  H4  <0> d          -0.015  -0.182  -2.006  0.00  0.00     0.162 HD
BRANCH  18  21
ATOM     21  C1  <0> d          -0.018   1.503   0.010  0.00  0.00    -0.003 C 
ATOM     22  H1  <0> d           1.004   1.880   0.003  0.00  0.00     0.040 H 
ATOM     23  H2  <0> d          -0.545   1.864  -0.873  0.00  0.00     0.040 H 
ATOM     24  H3  <0> d          -0.529   1.854   0.907  0.00  0.00     0.040 H 
ENDBRANCH  18  21
ENDBRANCH   1  17
TORSDOF 2
