REMARK  4 active torsions:
REMARK  status: ('A' for Active; 'I' for Inactive)
REMARK    1  A    between atoms: C1_1  and  C2_2 
REMARK    2  A    between atoms: C2_2  and  O1_3 
REMARK    3  A    between atoms: O1_3  and  C3_4 
REMARK    4  A    between atoms: C7_9  and  N2_10 
ROOT
ATOM      1  C3  <0> d          -0.017   1.383   0.010  0.00  0.00     0.114 A 
ATOM      2  C4  <0> d           0.002  -0.004   0.002  0.00  0.00    -0.046 A 
ATOM      3  C5  <0> d           1.232  -0.649  -0.013  0.00  0.00    -0.063 A 
ATOM      4  C6  <0> d           2.390   0.102  -0.020  0.00  0.00     0.005 A 
ATOM      5  N1  <0> d           2.344   1.421  -0.013  0.00  0.00    -0.241 NA
ATOM      6  C7  <0> d           1.194   2.076   0.002  0.00  0.00     0.154 A 
ATOM      7  H6  <0> d          -0.918  -0.569   0.007  0.00  0.00     0.088 H 
ATOM      8  H7  <0> d           1.281  -1.728  -0.020  0.00  0.00     0.085 H 
ATOM      9  H8  <0> d           3.347  -0.397  -0.032  0.00  0.00     0.114 H 
ENDROOT
BRANCH   1  10
ATOM     10  O1  <0> d          -1.198   2.057   0.019  0.00  0.00    -0.348 OA
BRANCH  10  11
ATOM     11  C2  <0> d          -2.393   1.273   0.020  0.00  0.00     0.023 C 
ATOM     12  H4  <0> d          -2.419   0.649  -0.873  0.00  0.00     0.074 H 
ATOM     13  H5  <0> d          -2.410   0.639   0.907  0.00  0.00     0.074 H 
BRANCH  11  14
ATOM     14  C1  <0> d          -3.611   2.199   0.031  0.00  0.00    -0.056 C 
ATOM     15  H1  <0> d          -3.593   2.833  -0.855  0.00  0.00     0.030 H 
ATOM     16  H2  <0> d          -4.522   1.601   0.032  0.00  0.00     0.030 H 
ATOM     17  H3  <0> d          -3.584   2.823   0.924  0.00  0.00     0.030 H 
ENDBRANCH  11  14
ENDBRANCH  10  11
ENDBRANCH   1  10
BRANCH   6  18
ATOM     18  N2  <0> d           1.193   3.469   0.009  0.00  0.00    -0.382 N 
ATOM     19  H9  <0> d           0.353   3.953   0.020  0.00  0.00     0.157 HD
ATOM     20  H10 <0> d           2.033   3.954   0.004  0.00  0.00     0.157 HD
ENDBRANCH   6  18
TORSDOF 4
