REMARK  1 active torsions:
REMARK  status: ('A' for Active; 'I' for Inactive)
REMARK    1  A    between atoms: C1_1  and  C2_2 
ROOT
ATOM      1  C2  <0> d           1.792   3.140   0.001  0.00  0.00    -0.034 A 
ATOM      2  C3  <0> d           3.156   3.330  -0.011  0.00  0.00    -0.075 A 
ATOM      3  C4  <0> d           4.021   2.245  -0.025  0.00  0.00    -0.082 A 
ATOM      4  C5  <0> d           3.523   0.960  -0.027  0.00  0.00    -0.069 A 
ATOM      5  C6  <0> d           2.146   0.754  -0.014  0.00  0.00     0.013 A 
ATOM      6  C7  <0> d           1.270   1.851  -0.000  0.00  0.00     0.050 A 
ATOM      7  N1  <0> d          -0.016   1.353   0.009  0.00  0.00    -0.363 N 
ATOM      8  H1  <0> d          -0.873   2.043   0.021  0.00  0.00     0.165 HD
ATOM      9  C8  <0> d           0.002  -0.004   0.002  0.00  0.00    -0.002 A 
ATOM     10  C9  <0> d           1.291  -0.447  -0.013  0.00  0.00     0.072 A 
ATOM     11  C10 <0> d           1.728  -1.811  -0.025  0.00  0.00     0.102 C 
ATOM     12  N2  <0> d           2.075  -2.892  -0.035  0.00  0.00    -0.191 NA
ATOM     13  H5  <0> d           3.557   4.333  -0.010  0.00  0.00     0.084 H 
ATOM     14  H6  <0> d           5.088   2.408  -0.035  0.00  0.00     0.083 H 
ATOM     15  H7  <0> d           4.199   0.117  -0.038  0.00  0.00     0.085 H 
ATOM     16  H8  <0> d          -0.873  -0.637   0.007  0.00  0.00     0.113 H 
ENDROOT
BRANCH   1  17
ATOM     17  C1  <0> d           0.865   4.329   0.016  0.00  0.00    -0.049 C 
ATOM     18  H2  <0> d           1.458   5.256   0.015  0.00  0.00     0.033 H 
ATOM     19  H3  <0> d           0.239   4.295   0.920  0.00  0.00     0.033 H 
ATOM     20  H4  <0> d           0.222   4.304  -0.876  0.00  0.00     0.033 H 
ENDBRANCH   1  17
TORSDOF 1
