REMARK  3 active torsions:
REMARK  status: ('A' for Active; 'I' for Inactive)
REMARK    1  A    between atoms: C1_1  and  C2_2 
REMARK    2  A    between atoms: C2_2  and  C3_3 
REMARK    3  A    between atoms: C4_5  and  C7_11 
ROOT
ATOM      1  C3  <0> d           2.144   0.675  -0.664  0.00  0.00     0.028 C 
ATOM      2  H1  <0> d           2.242   0.830  -1.739  0.00  0.00     0.055 H 
ATOM      3  C4  <0> d           1.465   1.896  -0.002  0.00  0.00    -0.030 C 
ATOM      4  H2  <0> d           1.836   2.046   1.012  0.00  0.00     0.043 H 
ATOM      5  C5  <0> d          -0.018   1.463   0.010  0.00  0.00    -0.001 C 
ATOM      6  N1  <0> d           0.002  -0.004   0.002  0.00  0.00    -0.360 N 
ATOM      7  C6  <0> d           1.203  -0.474  -0.379  0.00  0.00     0.222 C 
ATOM      8  O1  <0> d           1.489  -1.648  -0.478  0.00  0.00    -0.273 OA
ATOM      9  H8  <0> d          -0.527   1.839  -0.877  0.00  0.00     0.064 H 
ATOM     10  H9  <0> d          -0.510   1.829   0.911  0.00  0.00     0.064 H 
ATOM     11  H10 <0> d          -0.754  -0.563   0.240  0.00  0.00     0.162 HD
ENDROOT
BRANCH   1  12
ATOM     12  C2  <0> d           3.513   0.415  -0.033  0.00  0.00    -0.057 C 
ATOM     13  H6  <0> d           4.141   1.299  -0.149  0.00  0.00     0.033 H 
ATOM     14  H7  <0> d           3.388   0.196   1.028  0.00  0.00     0.033 H 
BRANCH  12  15
ATOM     15  C1  <0> d           4.177  -0.777  -0.725  0.00  0.00    -0.076 C 
ATOM     16  H3  <0> d           5.152  -0.962  -0.275  0.00  0.00     0.027 H 
ATOM     17  H4  <0> d           3.549  -1.660  -0.609  0.00  0.00     0.027 H 
ATOM     18  H5  <0> d           4.302  -0.557  -1.786  0.00  0.00     0.027 H 
ENDBRANCH  12  15
ENDBRANCH   1  12
BRANCH   3  19
ATOM     19  C7  <0> d           1.661   3.157  -0.846  0.00  0.00    -0.071 C 
ATOM     20  H11 <0> d           1.084   3.975  -0.416  0.00  0.00     0.028 H 
ATOM     21  H12 <0> d           2.718   3.425  -0.859  0.00  0.00     0.028 H 
ATOM     22  H13 <0> d           1.322   2.968  -1.865  0.00  0.00     0.028 H 
ENDBRANCH   3  19
TORSDOF 3
