REMARK  3 active torsions:
REMARK  status: ('A' for Active; 'I' for Inactive)
REMARK    1  A    between atoms: C1_1  and  C2_2 
REMARK    2  A    between atoms: C2_2  and  C3_3 
REMARK    3  A    between atoms: C6_6  and  C9_9 
REMARK       I    between atoms: C9_9  and  N1_11 
ROOT
ATOM      1  C3  <0> d          -0.718   1.572   1.248  0.00  0.00    -0.059 A 
ATOM      2  C4  <0> d          -0.357   2.780   1.817  0.00  0.00    -0.076 A 
ATOM      3  C5  <0> d          -1.002   3.233   2.949  0.00  0.00    -0.067 A 
ATOM      4  C6  <0> d          -2.014   2.464   3.527  0.00  0.00     0.031 A 
ATOM      5  C7  <0> d          -2.369   1.244   2.951  0.00  0.00    -0.067 A 
ATOM      6  C8  <0> d          -1.720   0.805   1.816  0.00  0.00    -0.076 A 
ATOM      7  H6  <0> d           0.428   3.372   1.371  0.00  0.00     0.084 H 
ATOM      8  H7  <0> d          -0.722   4.179   3.389  0.00  0.00     0.085 H 
ATOM      9  H8  <0> d          -3.151   0.644   3.393  0.00  0.00     0.085 H 
ATOM     10  H9  <0> d          -1.994  -0.139   1.369  0.00  0.00     0.084 H 
ENDROOT
BRANCH   1  11
ATOM     11  C2  <0> d          -0.013   1.086   0.008  0.00  0.00    -0.044 C 
ATOM     12  H4  <0> d           0.002  -0.004   0.002  0.00  0.00     0.039 H 
ATOM     13  H5  <0> d           1.010   1.463   0.000  0.00  0.00     0.039 H 
BRANCH  11  14
ATOM     14  C1  <0> d          -0.753   1.593  -1.232  0.00  0.00    -0.073 C 
ATOM     15  H1  <0> d          -0.767   2.683  -1.226  0.00  0.00     0.028 H 
ATOM     16  H2  <0> d          -0.242   1.241  -2.128  0.00  0.00     0.028 H 
ATOM     17  H3  <0> d          -1.775   1.215  -1.224  0.00  0.00     0.028 H 
ENDBRANCH  11  14
ENDBRANCH   1  11
BRANCH   4  18
ATOM     18  C9  <0> d          -2.706   2.941   4.743  0.00  0.00     0.249 C 
ATOM     19  O1  <0> d          -3.586   2.270   5.244  0.00  0.00    -0.268 OA
ATOM     20  N1  <0> d          -2.360   4.120   5.297  0.00  0.00    -0.366 N 
ATOM     21  H10 <0> d          -1.657   4.656   4.897  0.00  0.00     0.159 HD
ATOM     22  H11 <0> d          -2.814   4.433   6.095  0.00  0.00     0.159 HD
ENDBRANCH   4  18
TORSDOF 3
