REMARK  7 active torsions:
REMARK  status: ('A' for Active; 'I' for Inactive)
REMARK    1  A    between atoms: C1_1  and  C2_2 
REMARK    2  A    between atoms: C2_2  and  C3_4 
REMARK    3  A    between atoms: C2_2  and  O2_11 
REMARK       I    between atoms: C3_4  and  N1_6 
REMARK    4  A    between atoms: N1_6  and  C4_7 
REMARK    5  A    between atoms: C4_7  and  C5_8 
REMARK    6  A    between atoms: C5_8  and  C6_9 
REMARK    7  A    between atoms: C5_8  and  C7_10 
ROOT
ATOM      1  C4  <0> d           2.704  -0.703  -2.618  0.00  0.00    -0.002 C 
ATOM      2  H6  <0> d           2.642  -1.790  -2.669  0.00  0.00     0.064 H 
ATOM      3  H7  <0> d           2.230  -0.270  -3.499  0.00  0.00     0.064 H 
ENDROOT
BRANCH   1   4
ATOM      4  N1  <0> d           2.018  -0.231  -1.413  0.00  0.00    -0.359 N 
ATOM      5  C3  <0> d           0.707  -0.490  -1.238  0.00  0.00     0.246 C 
ATOM      6  O1  <0> d           0.095  -1.114  -2.078  0.00  0.00    -0.271 OA
ATOM      7  H5  <0> d           2.508   0.269  -0.741  0.00  0.00     0.162 HD
BRANCH   5   8
ATOM      8  C2  <0> d           0.002  -0.004   0.002  0.00  0.00     0.108 C 
ATOM      9  H1  <0> d           0.529  -0.365   0.885  0.00  0.00     0.097 H 
BRANCH   8  10
ATOM     10  C1  <0> d          -0.019   1.526   0.010  0.00  0.00    -0.044 C 
ATOM     11  H2  <0> d           1.004   1.903   0.003  0.00  0.00     0.031 H 
ATOM     12  H3  <0> d          -0.546   1.887  -0.873  0.00  0.00     0.031 H 
ATOM     13  H4  <0> d          -0.529   1.877   0.907  0.00  0.00     0.031 H 
ENDBRANCH   8  10
BRANCH   8  14
ATOM     14  O2  <0> d          -1.339  -0.499   0.012  0.00  0.00    -0.387 OA
ATOM     15  H15 <0> d          -1.853  -0.225   0.784  0.00  0.00     0.210 HD
ENDBRANCH   8  14
ENDBRANCH   5   8
ENDBRANCH   1   4
BRANCH   1  16
ATOM     16  C5  <0> d           4.173  -0.279  -2.568  0.00  0.00    -0.046 C 
ATOM     17  H8  <0> d           4.235   0.800  -2.428  0.00  0.00     0.041 H 
BRANCH  16  18
ATOM     18  C6  <0> d           4.869  -0.986  -1.404  0.00  0.00    -0.072 C 
ATOM     19  H9  <0> d           5.916  -0.683  -1.368  0.00  0.00     0.028 H 
ATOM     20  H10 <0> d           4.380  -0.712  -0.469  0.00  0.00     0.028 H 
ATOM     21  H11 <0> d           4.807  -2.065  -1.544  0.00  0.00     0.028 H 
ENDBRANCH  16  18
BRANCH  16  22
ATOM     22  C7  <0> d           4.859  -0.662  -3.881  0.00  0.00    -0.072 C 
ATOM     23  H12 <0> d           4.364  -0.159  -4.711  0.00  0.00     0.028 H 
ATOM     24  H13 <0> d           5.906  -0.360  -3.846  0.00  0.00     0.028 H 
ATOM     25  H14 <0> d           4.798  -1.742  -4.021  0.00  0.00     0.028 H 
ENDBRANCH  16  22
ENDBRANCH   1  16
TORSDOF 7
