REMARK  1 active torsions:
REMARK  status: ('A' for Active; 'I' for Inactive)
REMARK    1  A    between atoms: C1_1  and  C2_2 
ROOT
ATOM      1  C2  <0> d           0.002  -0.004   0.002  0.00  0.00    -0.060 A 
ATOM      2  C3  <0> d           0.006  -0.684  -1.215  0.00  0.00    -0.075 A 
ATOM      3  C4  <0> d           0.024  -2.044  -1.257  0.00  0.00    -0.052 A 
ATOM      4  C5  <0> d           0.040  -2.778  -0.058  0.00  0.00     0.085 A 
ATOM      5  C6  <0> d           0.037  -2.087   1.179  0.00  0.00     0.085 A 
ATOM      6  C7  <0> d           0.022  -0.681   1.182  0.00  0.00    -0.047 A 
ATOM      7  N1  <0> d           0.052  -2.780   2.323  0.00  0.00    -0.257 NA
ATOM      8  C8  <0> d           0.070  -4.093   2.288  0.00  0.00     0.020 A 
ATOM      9  C9  <0> d           0.074  -4.774   1.069  0.00  0.00     0.020 A 
ATOM     10  N2  <0> d           0.059  -4.115  -0.067  0.00  0.00    -0.257 NA
ATOM     11  H4  <0> d          -0.007  -0.123  -2.138  0.00  0.00     0.084 H 
ATOM     12  H5  <0> d           0.026  -2.557  -2.207  0.00  0.00     0.087 H 
ATOM     13  H6  <0> d           0.024  -0.140   2.117  0.00  0.00     0.088 H 
ATOM     14  H7  <0> d           0.083  -4.651   3.212  0.00  0.00     0.117 H 
ATOM     15  H8  <0> d           0.090  -5.854   1.061  0.00  0.00     0.117 H 
ENDROOT
BRANCH   1  16
ATOM     16  C1  <0> d          -0.018   1.503   0.010  0.00  0.00    -0.051 C 
ATOM     17  H1  <0> d           1.004   1.880   0.003  0.00  0.00     0.033 H 
ATOM     18  H2  <0> d          -0.545   1.864  -0.873  0.00  0.00     0.033 H 
ATOM     19  H3  <0> d          -0.529   1.854   0.907  0.00  0.00     0.033 H 
ENDBRANCH   1  16
TORSDOF 1
