REMARK  0 active torsions:
REMARK  status: ('A' for Active; 'I' for Inactive)
ROOT
ATOM      1  C1  <0> d          -0.013   1.086   0.008  0.00  0.00     0.173 C 
ATOM      2  C2  <0> d          -0.930   1.679   1.086  0.00  0.00     0.295 C 
ATOM      3  C3  <0> d          -1.274   2.696  -0.012  0.00  0.00     0.173 C 
ATOM      4  N1  <0> d          -0.914   1.667  -1.005  0.00  0.00     0.095 N 
ATOM      5  F1  <0> d          -1.995   0.849   1.452  0.00  0.00    -0.203 F 
ATOM      6  F2  <0> d          -0.250   2.225   2.180  0.00  0.00    -0.203 F 
ATOM      7  H1  <0> d           0.023  -0.006  -0.117  0.00  0.00     0.089 H 
ATOM      8  H2  <0> d           0.998   1.502  -0.118  0.00  0.00     0.089 H 
ATOM      9  H3  <0> d          -2.328   2.996   0.083  0.00  0.00     0.089 H 
ATOM     10  H4  <0> d          -0.630   3.582   0.093  0.00  0.00     0.089 H 
ATOM     11  H5  <0> d          -0.330   1.962  -1.889  0.00  0.00     0.316 HD
ENDROOT
TORSDOF 0
