REMARK  6 active torsions:
REMARK  status: ('A' for Active; 'I' for Inactive)
REMARK    1  A    between atoms: C1_1  and  C2_2 
REMARK    2  A    between atoms: C2_2  and  C9_12 
REMARK    3  A    between atoms: C3_3  and  C4_4 
REMARK    4  A    between atoms: C5_6  and  O1_11 
REMARK    5  A    between atoms: C6_8  and  C7_9 
REMARK    6  A    between atoms: C6_8  and  C8_10 
ROOT
ATOM      1  C4  <0> d           0.024   0.081   2.442  0.00  0.00    -0.003 A 
ATOM      2  H1  <0> d          -0.414   1.079   2.415  0.00  0.00     0.051 H 
ATOM      3  C5  <0> d          -0.159  -0.737   3.722  0.00  0.00     0.050 A 
ATOM      4  H2  <0> d          -0.281  -1.815   3.617  0.00  0.00     0.085 H 
ATOM      5  C6  <0> d           1.210  -0.144   3.381  0.00  0.00    -0.012 A 
ENDROOT
BRANCH   1   6
ATOM      6  C3  <0> d           0.022  -0.665   1.133  0.00  0.00    -0.094 C 
ATOM      7  C2  <0> d           0.002  -0.004   0.002  0.00  0.00    -0.091 C 
ATOM      8  H6  <0> d           0.036  -1.745   1.127  0.00  0.00     0.077 H 
BRANCH   7   9
ATOM      9  C1  <0> d          -0.018   1.503   0.010  0.00  0.00    -0.055 C 
ATOM     10  H3  <0> d           1.004   1.880   0.003  0.00  0.00     0.033 H 
ATOM     11  H4  <0> d          -0.545   1.864  -0.873  0.00  0.00     0.033 H 
ATOM     12  H5  <0> d          -0.529   1.854   0.907  0.00  0.00     0.033 H 
ENDBRANCH   7   9
BRANCH   7  13
ATOM     13  C9  <0> d          -0.000  -0.750  -1.307  0.00  0.00    -0.055 C 
ATOM     14  H14 <0> d           1.027  -0.916  -1.633  0.00  0.00     0.033 H 
ATOM     15  H15 <0> d          -0.500  -1.710  -1.177  0.00  0.00     0.033 H 
ATOM     16  H16 <0> d          -0.529  -0.164  -2.059  0.00  0.00     0.033 H 
ENDBRANCH   7  13
ENDBRANCH   1   6
BRANCH   5  17
ATOM     17  C7  <0> d           1.690   1.048   4.212  0.00  0.00    -0.066 C 
ATOM     18  H7  <0> d           0.878   1.396   4.851  0.00  0.00     0.028 H 
ATOM     19  H8  <0> d           2.535   0.744   4.830  0.00  0.00     0.028 H 
ATOM     20  H9  <0> d           1.999   1.854   3.546  0.00  0.00     0.028 H 
ENDBRANCH   5  17
BRANCH   5  21
ATOM     21  C8  <0> d           2.304  -1.109   2.920  0.00  0.00    -0.066 C 
ATOM     22  H10 <0> d           2.739  -0.747   1.988  0.00  0.00     0.028 H 
ATOM     23  H11 <0> d           3.079  -1.172   3.683  0.00  0.00     0.028 H 
ATOM     24  H12 <0> d           1.872  -2.097   2.760  0.00  0.00     0.028 H 
ENDBRANCH   5  21
BRANCH   3  25
ATOM     25  O1  <0> d          -0.892  -0.135   4.791  0.00  0.00    -0.394 OA
ATOM     26  H13 <0> d          -1.749  -0.548   4.962  0.00  0.00     0.210 HD
ENDBRANCH   3  25
TORSDOF 6
