REMARK  2 active torsions:
REMARK  status: ('A' for Active; 'I' for Inactive)
REMARK    1  A    between atoms: C1_1  and  C2_2 
REMARK    2  A    between atoms: C5_8  and  C6_11 
ROOT
ATOM      1  C2  <0> d          -0.718   1.572   1.248  0.00  0.00     0.127 A 
ATOM      2  N1  <0> d          -0.162   1.829   2.394  0.00  0.00    -0.134 NA
ATOM      3  N2  <0> d          -1.049   2.224   3.236  0.00  0.00    -0.123 NA
ATOM      4  C3  <0> d          -2.219   2.236   2.658  0.00  0.00     0.192 A 
ATOM      5  N3  <0> d          -2.074   1.830   1.367  0.00  0.00    -0.310 N 
ATOM      6  C4  <0> d          -3.258   1.756   0.518  0.00  0.00     0.015 A 
ATOM      7  C5  <0> d          -4.561   2.175   1.219  0.00  0.00     0.011 A 
ATOM      8  H1  <0> d          -5.272   1.348   1.253  0.00  0.00     0.059 H 
ATOM      9  S1  <0> d          -3.944   2.582   2.896  0.00  0.00    -0.084 SA
ATOM     10  H5  <0> d          -3.370   0.733   0.161  0.00  0.00     0.066 H 
ATOM     11  H6  <0> d          -3.102   2.408  -0.342  0.00  0.00     0.066 H 
ENDROOT
BRANCH   7  12
ATOM     12  C6  <0> d          -5.179   3.402   0.547  0.00  0.00    -0.062 C 
ATOM     13  H7  <0> d          -4.434   4.195   0.483  0.00  0.00     0.029 H 
ATOM     14  H8  <0> d          -5.513   3.137  -0.456  0.00  0.00     0.029 H 
ATOM     15  H9  <0> d          -6.030   3.748   1.133  0.00  0.00     0.029 H 
ENDBRANCH   7  12
BRANCH   1  16
ATOM     16  C1  <0> d          -0.013   1.086   0.008  0.00  0.00    -0.019 C 
ATOM     17  H2  <0> d           0.002  -0.004   0.002  0.00  0.00     0.037 H 
ATOM     18  H3  <0> d           1.010   1.463   0.000  0.00  0.00     0.037 H 
ATOM     19  H4  <0> d          -0.540   1.447  -0.875  0.00  0.00     0.037 H 
ENDBRANCH   1  16
TORSDOF 2
