REMARK  5 active torsions:
REMARK  status: ('A' for Active; 'I' for Inactive)
REMARK    1  A    between atoms: C1_1  and  C2_2 
REMARK    2  A    between atoms: C2_2  and  C3_3 
REMARK    3  A    between atoms: C2_2  and  C4_4 
REMARK    4  A    between atoms: C2_2  and  N1_5 
REMARK       I    between atoms: N1_5  and  C5_6 
REMARK       I    between atoms: C5_6  and  N2_8 
REMARK    5  A    between atoms: N2_8  and  C6_9 
ROOT
ATOM      1  C2  <0> d          -1.290   1.681   0.017  0.00  0.00     0.023 C 
ENDROOT
BRANCH   1   2
ATOM      2  C1  <0> d          -1.389   2.566  -1.227  0.00  0.00    -0.054 C 
ATOM      3  H1  <0> d          -1.327   1.945  -2.120  0.00  0.00     0.030 H 
ATOM      4  H2  <0> d          -2.340   3.098  -1.219  0.00  0.00     0.030 H 
ATOM      5  H3  <0> d          -0.570   3.286  -1.227  0.00  0.00     0.030 H 
ENDBRANCH   1   2
BRANCH   1   6
ATOM      6  C3  <0> d          -2.439   0.671   0.017  0.00  0.00    -0.054 C 
ATOM      7  H4  <0> d          -2.369   0.040   0.903  0.00  0.00     0.030 H 
ATOM      8  H5  <0> d          -3.390   1.203   0.025  0.00  0.00     0.030 H 
ATOM      9  H6  <0> d          -2.377   0.050  -0.876  0.00  0.00     0.030 H 
ENDBRANCH   1   6
BRANCH   1  10
ATOM     10  C4  <0> d          -1.377   2.553   1.272  0.00  0.00    -0.054 C 
ATOM     11  H7  <0> d          -0.558   3.272   1.272  0.00  0.00     0.030 H 
ATOM     12  H8  <0> d          -2.328   3.085   1.279  0.00  0.00     0.030 H 
ATOM     13  H9  <0> d          -1.306   1.922   2.158  0.00  0.00     0.030 H 
ENDBRANCH   1  10
BRANCH   1  14
ATOM     14  N1  <0> d          -0.011   0.966   0.007  0.00  0.00    -0.335 N 
ATOM     15  C5  <0> d           1.147   1.655  -0.000  0.00  0.00     0.316 C 
ATOM     16  O1  <0> d           1.130   2.871   0.007  0.00  0.00    -0.247 OA
ATOM     17  N2  <0> d           2.323   0.998  -0.015  0.00  0.00    -0.347 N 
ATOM     18  H11 <0> d           2.336   0.028  -0.020  0.00  0.00     0.163 HD
ATOM     19  H10 <0> d           0.002  -0.004   0.002  0.00  0.00     0.165 HD
BRANCH  17  20
ATOM     20  C6  <0> d           3.582   1.747  -0.023  0.00  0.00    -0.017 C 
ATOM     21  H12 <0> d           4.420   1.050  -0.035  0.00  0.00     0.056 H 
ATOM     22  H13 <0> d           3.622   2.380  -0.910  0.00  0.00     0.056 H 
ATOM     23  H14 <0> d           3.639   2.370   0.870  0.00  0.00     0.056 H 
ENDBRANCH  17  20
ENDBRANCH   1  14
TORSDOF 5
