REMARK  3 active torsions:
REMARK  status: ('A' for Active; 'I' for Inactive)
REMARK    1  A    between atoms: C1_1  and  C2_2 
REMARK    2  A    between atoms: C2_2  and  C3_3 
REMARK    3  A    between atoms: C8_8  and  N1_9 
ROOT
ATOM      1  C3  <0> d           1.213  -0.684  -0.013  0.00  0.00    -0.032 A 
ATOM      2  C4  <0> d           1.228  -2.065  -0.020  0.00  0.00    -0.075 A 
ATOM      3  C5  <0> d           0.040  -2.771  -0.012  0.00  0.00    -0.082 A 
ATOM      4  C6  <0> d          -1.168  -2.097   0.003  0.00  0.00    -0.081 A 
ATOM      5  C7  <0> d          -1.190  -0.717   0.015  0.00  0.00    -0.057 A 
ATOM      6  C8  <0> d           0.002  -0.004   0.002  0.00  0.00     0.032 A 
ATOM      7  H6  <0> d           2.170  -2.594  -0.032  0.00  0.00     0.084 H 
ATOM      8  H7  <0> d           0.054  -3.851  -0.017  0.00  0.00     0.083 H 
ATOM      9  H8  <0> d          -2.095  -2.652   0.010  0.00  0.00     0.083 H 
ATOM     10  H9  <0> d          -2.134  -0.191   0.032  0.00  0.00     0.086 H 
ENDROOT
BRANCH   1  11
ATOM     11  C2  <0> d           2.510   0.085  -0.021  0.00  0.00    -0.042 C 
ATOM     12  H4  <0> d           3.293  -0.528  -0.467  0.00  0.00     0.039 H 
ATOM     13  H5  <0> d           2.387   0.998  -0.605  0.00  0.00     0.039 H 
BRANCH  11  14
ATOM     14  C1  <0> d           2.898   0.446   1.414  0.00  0.00    -0.073 C 
ATOM     15  H1  <0> d           3.835   1.002   1.408  0.00  0.00     0.028 H 
ATOM     16  H2  <0> d           2.114   1.059   1.859  0.00  0.00     0.028 H 
ATOM     17  H3  <0> d           3.020  -0.467   1.997  0.00  0.00     0.028 H 
ENDBRANCH  11  14
ENDBRANCH   1  11
BRANCH   6  18
ATOM     18  N1  <0> d          -0.017   1.393   0.010  0.00  0.00    -0.399 N 
ATOM     19  H10 <0> d           0.817   1.889   0.004  0.00  0.00     0.156 HD
ATOM     20  H11 <0> d          -0.863   1.866   0.016  0.00  0.00     0.156 HD
ENDBRANCH   6  18
TORSDOF 3
