REMARK  6 active torsions:
REMARK  status: ('A' for Active; 'I' for Inactive)
REMARK    1  A    between atoms: C1_1  and  C2_2 
REMARK    2  A    between atoms: C2_2  and  C3_3 
REMARK    3  A    between atoms: C3_3  and  C4_4 
REMARK    4  A    between atoms: C3_3  and  C5_5 
REMARK    5  A    between atoms: C3_3  and  C6_6 
REMARK    6  A    between atoms: C8_8  and  N2_11 
ROOT
ATOM      1  C3  <0> d          -2.582   1.513   0.021  0.00  0.00    -0.001 C 
ENDROOT
BRANCH   1   2
ATOM      2  C2  <0> d          -3.455   2.709   0.404  0.00  0.00    -0.057 C 
ATOM      3  H4  <0> d          -3.175   3.060   1.397  0.00  0.00     0.034 H 
ATOM      4  H5  <0> d          -3.309   3.512  -0.319  0.00  0.00     0.034 H 
BRANCH   2   5
ATOM      5  C1  <0> d          -4.926   2.288   0.407  0.00  0.00    -0.075 C 
ATOM      6  H1  <0> d          -5.548   3.140   0.680  0.00  0.00     0.027 H 
ATOM      7  H2  <0> d          -5.205   1.937  -0.586  0.00  0.00     0.027 H 
ATOM      8  H3  <0> d          -5.072   1.485   1.130  0.00  0.00     0.027 H 
ENDBRANCH   2   5
ENDBRANCH   1   2
BRANCH   1   9
ATOM      9  C4  <0> d          -2.975   1.021  -1.374  0.00  0.00    -0.064 C 
ATOM     10  H6  <0> d          -2.353   0.169  -1.647  0.00  0.00     0.028 H 
ATOM     11  H7  <0> d          -4.022   0.720  -1.372  0.00  0.00     0.028 H 
ATOM     12  H8  <0> d          -2.829   1.824  -2.097  0.00  0.00     0.028 H 
ENDBRANCH   1   9
BRANCH   1  13
ATOM     13  C5  <0> d          -2.787   0.386   1.035  0.00  0.00    -0.064 C 
ATOM     14  H9  <0> d          -2.507   0.737   2.029  0.00  0.00     0.028 H 
ATOM     15  H10 <0> d          -3.835   0.086   1.038  0.00  0.00     0.028 H 
ATOM     16  H11 <0> d          -2.165  -0.466   0.762  0.00  0.00     0.028 H 
ENDBRANCH   1  13
BRANCH   1  17
ATOM     17  C6  <0> d          -1.133   1.929   0.017  0.00  0.00     0.074 A 
ATOM     18  N1  <0> d          -0.672   3.148   0.025  0.00  0.00    -0.130 NA
ATOM     19  O1  <0> d           0.536   3.172   0.014  0.00  0.00    -0.196 OA
ATOM     20  C8  <0> d           1.052   1.933   0.002  0.00  0.00     0.168 A 
ATOM     21  C7  <0> d          -0.013   1.076   0.008  0.00  0.00    -0.005 A 
ATOM     22  H12 <0> d           0.002  -0.004   0.002  0.00  0.00     0.093 H 
BRANCH  20  23
ATOM     23  N2  <0> d           2.392   1.591  -0.013  0.00  0.00    -0.378 N 
ATOM     24  H13 <0> d           2.655   0.658  -0.021  0.00  0.00     0.158 HD
ATOM     25  H14 <0> d           3.069   2.286  -0.016  0.00  0.00     0.158 HD
ENDBRANCH  20  23
ENDBRANCH   1  17
TORSDOF 6
