REMARK  0 active torsions:
REMARK  status: ('A' for Active; 'I' for Inactive)
ROOT
ATOM      1  C1  <0> d          -1.126   1.765   0.016  0.00  0.00    -0.002 A 
ATOM      2  C2  <0> d          -0.693   3.039   0.024  0.00  0.00     0.021 A 
ATOM      3  N1  <0> d           0.650   3.022   0.011  0.00  0.00    -0.216 NA
ATOM      4  C3  <0> d           1.065   1.783   0.002  0.00  0.00     0.287 A 
ATOM      5  N2  <0> d          -0.011   0.966   0.007  0.00  0.00    -0.326 N 
ATOM      6  H1  <0> d          -0.119  -0.129   0.006  0.00  0.00     0.169 HD
ATOM      7  F1  <0> d           2.357   1.385  -0.012  0.00  0.00    -0.163 F 
ATOM      8  H2  <0> d          -2.155   1.435   0.019  0.00  0.00     0.113 H 
ATOM      9  H3  <0> d          -1.316   3.921   0.034  0.00  0.00     0.117 H 
ENDROOT
TORSDOF 0
