REMARK  0 active torsions:
REMARK  status: ('A' for Active; 'I' for Inactive)
ROOT
ATOM      1  C1  <0> d           1.184   1.931   0.001  0.00  0.00     0.000 A 
ATOM      2  C2  <0> d           1.158   3.310   0.008  0.00  0.00     0.010 A 
ATOM      3  N1  <0> d          -0.019   3.930   0.022  0.00  0.00    -0.236 NA
ATOM      4  C3  <0> d          -1.140   3.252   0.029  0.00  0.00     0.179 A 
ATOM      5  N2  <0> d          -1.207   1.885   0.018  0.00  0.00    -0.267 N 
ATOM      6  C4  <0> d          -0.015   1.217   0.009  0.00  0.00     0.254 A 
ATOM      7  O1  <0> d           0.002  -0.004   0.002  0.00  0.00    -0.268 OA
ATOM      8  C5  <0> d          -2.462   1.325   0.021  0.00  0.00    -0.003 A 
ATOM      9  C6  <0> d          -3.555   2.088   0.030  0.00  0.00    -0.026 A 
ATOM     10  S1  <0> d          -2.854   3.731   0.048  0.00  0.00    -0.062 SA
ATOM     11  H1  <0> d           2.128   1.407  -0.010  0.00  0.00     0.094 H 
ATOM     12  H2  <0> d           2.078   3.877   0.003  0.00  0.00     0.115 H 
ATOM     13  H3  <0> d          -2.565   0.250   0.016  0.00  0.00     0.113 H 
ATOM     14  H4  <0> d          -4.593   1.791   0.034  0.00  0.00     0.097 H 
ENDROOT
TORSDOF 0
