REMARK  1 active torsions:
REMARK  status: ('A' for Active; 'I' for Inactive)
REMARK    1  A    between atoms: C1_1  and  C2_2 
ROOT
ATOM      1  C2  <0> d          -1.208   1.738   0.017  0.00  0.00    -0.047 A 
ATOM      2  C3  <0> d          -0.013   1.076   0.008  0.00  0.00    -0.039 A 
ATOM      3  C4  <0> d           1.185   1.782   0.000  0.00  0.00     0.119 A 
ATOM      4  C5  <0> d           1.187   3.162   0.007  0.00  0.00    -0.019 A 
ATOM      5  C6  <0> d          -0.020   3.854   0.022  0.00  0.00     0.045 A 
ATOM      6  C7  <0> d          -1.228   3.133   0.031  0.00  0.00    -0.002 A 
ATOM      7  C8  <0> d          -2.297   4.136   0.046  0.00  0.00    -0.056 A 
ATOM      8  C9  <0> d          -1.705   5.340   0.046  0.00  0.00    -0.022 A 
ATOM      9  N1  <0> d          -0.344   5.192   0.032  0.00  0.00    -0.365 N 
ATOM     10  H1  <0> d           0.296   5.920   0.030  0.00  0.00     0.165 HD
ATOM     11  F1  <0> d           2.357   1.111  -0.015  0.00  0.00    -0.206 F 
ATOM     12  H5  <0> d           0.002  -0.004   0.002  0.00  0.00     0.089 H 
ATOM     13  H6  <0> d           2.122   3.702   0.001  0.00  0.00     0.091 H 
ATOM     14  H7  <0> d          -3.359   3.942   0.055  0.00  0.00     0.087 H 
ATOM     15  H8  <0> d          -2.225   6.287   0.056  0.00  0.00     0.111 H 
ENDROOT
BRANCH   1  16
ATOM     16  C1  <0> d          -2.501   0.963   0.019  0.00  0.00    -0.050 C 
ATOM     17  H2  <0> d          -2.808   0.771   1.047  0.00  0.00     0.033 H 
ATOM     18  H3  <0> d          -3.272   1.542  -0.488  0.00  0.00     0.033 H 
ATOM     19  H4  <0> d          -2.357   0.016  -0.500  0.00  0.00     0.033 H 
ENDBRANCH   1  16
TORSDOF 1
