REMARK  2 active torsions:
REMARK  status: ('A' for Active; 'I' for Inactive)
REMARK    1  A    between atoms: C1_1  and  C2_2 
REMARK    2  A    between atoms: C2_2  and  C3_3 
ROOT
ATOM      1  C3  <0> d           0.707  -0.490  -1.238  0.00  0.00    -0.043 A 
ATOM      2  C4  <0> d           0.000  -0.622  -2.441  0.00  0.00    -0.070 A 
ATOM      3  C5  <0> d           0.654  -1.062  -3.554  0.00  0.00    -0.017 A 
ATOM      4  C6  <0> d           2.022  -1.375  -3.470  0.00  0.00     0.245 A 
ATOM      5  N1  <0> d           2.673  -1.238  -2.299  0.00  0.00    -0.333 N 
ATOM      6  C7  <0> d           2.025  -0.794  -1.192  0.00  0.00    -0.014 A 
ATOM      7  O1  <0> d           2.619  -1.771  -4.458  0.00  0.00    -0.268 OA
ATOM      8  H6  <0> d          -1.051  -0.377  -2.486  0.00  0.00     0.084 H 
ATOM      9  H7  <0> d           0.127  -1.171  -4.490  0.00  0.00     0.092 H 
ATOM     10  H8  <0> d           2.566  -0.688  -0.263  0.00  0.00     0.112 H 
ATOM     11  H9  <0> d           3.617  -1.456  -2.248  0.00  0.00     0.168 HD
ENDROOT
BRANCH   1  12
ATOM     12  C2  <0> d           0.002  -0.004   0.002  0.00  0.00    -0.043 C 
ATOM     13  H4  <0> d           0.529  -0.365   0.885  0.00  0.00     0.039 H 
ATOM     14  H5  <0> d          -1.020  -0.381   0.010  0.00  0.00     0.039 H 
BRANCH  12  15
ATOM     15  C1  <0> d          -0.019   1.526   0.010  0.00  0.00    -0.073 C 
ATOM     16  H1  <0> d           1.004   1.903   0.003  0.00  0.00     0.028 H 
ATOM     17  H2  <0> d          -0.546   1.887  -0.873  0.00  0.00     0.028 H 
ATOM     18  H3  <0> d          -0.529   1.877   0.907  0.00  0.00     0.028 H 
ENDBRANCH  12  15
ENDBRANCH   1  12
TORSDOF 2
