REMARK  1 active torsions:
REMARK  status: ('A' for Active; 'I' for Inactive)
REMARK    1  A    between atoms: C5_6  and  O3_12 
ROOT
ATOM      1  C1  <0> d           0.719   3.657  -1.450  0.00  0.00     0.050 C 
ATOM      2  C2  <0> d           1.120   3.240  -0.010  0.00  0.00     0.078 C 
ATOM      3  H1  <0> d           2.058   3.674   0.337  0.00  0.00     0.093 H 
ATOM      4  C3  <0> d           1.120   1.724   0.001  0.00  0.00    -0.075 C 
ATOM      5  C4  <0> d          -0.013   1.076   0.008  0.00  0.00    -0.072 C 
ATOM      6  C5  <0> d          -1.339   1.787   0.018  0.00  0.00     0.099 C 
ATOM      7  H2  <0> d          -1.945   1.433  -0.816  0.00  0.00     0.097 H 
ATOM      8  C6  <0> d          -1.130   3.299  -0.107  0.00  0.00     0.159 C 
ATOM      9  H3  <0> d          -2.037   3.835   0.174  0.00  0.00     0.133 H 
ATOM     10  O1  <0> d          -0.721   3.629  -1.442  0.00  0.00    -0.355 OA
ATOM     11  O2  <0> d          -0.034   3.665   0.760  0.00  0.00    -0.347 OA
ATOM     12  H4  <0> d           1.079   4.662  -1.670  0.00  0.00     0.079 H 
ATOM     13  H5  <0> d           1.109   2.944  -2.176  0.00  0.00     0.079 H 
ATOM     14  H6  <0> d           2.055   1.182   0.003  0.00  0.00     0.080 H 
ATOM     15  H7  <0> d           0.002  -0.004   0.002  0.00  0.00     0.080 H 
ENDROOT
BRANCH   6  16
ATOM     16  O3  <0> d          -2.017   1.507   1.244  0.00  0.00    -0.387 OA
ATOM     17  H8  <0> d          -2.194   0.568   1.390  0.00  0.00     0.210 HD
ENDBRANCH   6  16
TORSDOF 1
