REMARK  2 active torsions:
REMARK  status: ('A' for Active; 'I' for Inactive)
REMARK    1  A    between atoms: C1_1  and  C2_2 
REMARK    2  A    between atoms: C1_1  and  O1_6 
ROOT
ATOM      1  C1  <0> d           1.286   1.562  -0.002  0.00  0.00     0.062 C 
ATOM      2  H1  <0> d           1.840   1.243   0.881  0.00  0.00     0.080 H 
ATOM      3  H2  <0> d           1.823   1.252  -0.899  0.00  0.00     0.080 H 
ENDROOT
BRANCH   1   4
ATOM      4  C2  <0> d           1.145   3.085   0.008  0.00  0.00     0.209 C 
ATOM      5 Cl1  <0> d           0.257   3.597   1.491  0.00  0.00    -0.081 Cl
ATOM      6 Cl2  <0> d           2.782   3.841  -0.004  0.00  0.00    -0.081 Cl
ATOM      7 Cl3  <0> d           0.229   3.613  -1.453  0.00  0.00    -0.081 Cl
ENDBRANCH   1   4
BRANCH   1   8
ATOM      8  O1  <0> d          -0.011   0.963   0.007  0.00  0.00    -0.397 OA
ATOM      9  H3  <0> d           0.002  -0.004   0.002  0.00  0.00     0.209 HD
ENDBRANCH   1   8
TORSDOF 2
