REMARK  4 active torsions:
REMARK  status: ('A' for Active; 'I' for Inactive)
REMARK    1  A    between atoms: C1_1  and  O1_2 
REMARK    2  A    between atoms: O1_2  and  C2_3 
REMARK    3  A    between atoms: C5_6  and  N1_10 
REMARK    4  A    between atoms: C6_7  and  O2_9 
ROOT
ATOM      1  C2  <0> d           0.040  -2.776  -0.012  0.00  0.00     0.070 A 
ATOM      2  C3  <0> d           1.231  -2.064  -0.020  0.00  0.00    -0.049 A 
ATOM      3  C4  <0> d           1.212  -0.682  -0.013  0.00  0.00    -0.052 A 
ATOM      4  C5  <0> d           0.002  -0.004   0.002  0.00  0.00     0.059 A 
ATOM      5  C6  <0> d          -1.194  -0.718   0.015  0.00  0.00     0.094 A 
ATOM      6  C7  <0> d          -1.172  -2.102   0.003  0.00  0.00    -0.017 A 
ATOM      7  H4  <0> d           2.174  -2.590  -0.031  0.00  0.00     0.087 H 
ATOM      8  H5  <0> d           2.140  -0.129  -0.019  0.00  0.00     0.087 H 
ATOM      9  H6  <0> d          -2.098  -2.658   0.010  0.00  0.00     0.092 H 
ENDROOT
BRANCH   1  10
ATOM     10  O1  <0> d           0.062  -4.136  -0.018  0.00  0.00    -0.356 OA
BRANCH  10  11
ATOM     11  C1  <0> d           1.345  -4.764  -0.034  0.00  0.00     0.010 C 
ATOM     12  H1  <0> d           1.220  -5.846  -0.037  0.00  0.00     0.066 H 
ATOM     13  H2  <0> d           1.889  -4.458  -0.927  0.00  0.00     0.066 H 
ATOM     14  H3  <0> d           1.906  -4.466   0.853  0.00  0.00     0.066 H 
ENDBRANCH  10  11
ENDBRANCH   1  10
BRANCH   5  15
ATOM     15  O2  <0> d          -2.382  -0.056   0.036  0.00  0.00    -0.358 OA
ATOM     16  H7  <0> d          -2.738   0.141  -0.841  0.00  0.00     0.217 HD
ENDBRANCH   5  15
BRANCH   4  17
ATOM     17  N1  <0> d          -0.017   1.398   0.010  0.00  0.00    -0.397 N 
ATOM     18  H8  <0> d           0.816   1.895   0.004  0.00  0.00     0.156 HD
ATOM     19  H9  <0> d          -0.864   1.872   0.016  0.00  0.00     0.156 HD
ENDBRANCH   4  17
TORSDOF 4
