REMARK  0 active torsions:
REMARK  status: ('A' for Active; 'I' for Inactive)
ROOT
ATOM      1  C1  <0> d          -0.017   1.385   0.010  0.00  0.00    -0.083 C 
ATOM      2  C2  <0> d           1.041   2.251   0.004  0.00  0.00    -0.083 C 
ATOM      3  C3  <0> d           0.865   3.597  -0.446  0.00  0.00    -0.083 C 
ATOM      4  C4  <0> d           0.959   3.355  -1.913  0.00  0.00    -0.083 C 
ATOM      5  C5  <0> d           0.978   1.966  -1.920  0.00  0.00    -0.083 C 
ATOM      6  C6  <0> d          -0.081   1.101  -1.915  0.00  0.00    -0.083 C 
ATOM      7  C7  <0> d           0.096  -0.245  -1.465  0.00  0.00    -0.083 C 
ATOM      8  C8  <0> d           0.002  -0.004   0.002  0.00  0.00    -0.083 C 
ATOM      9  H1  <0> d          -0.997   1.848   0.040  0.00  0.00     0.083 H 
ATOM     10  H2  <0> d           2.026   1.919   0.346  0.00  0.00     0.083 H 
ATOM     11  H3  <0> d           0.712   4.507   0.086  0.00  0.00     0.083 H 
ATOM     12  H4  <0> d           0.998   4.078  -2.704  0.00  0.00     0.083 H 
ATOM     13  H5  <0> d           1.958   1.503  -1.951  0.00  0.00     0.083 H 
ATOM     14  H6  <0> d          -1.065   1.432  -2.257  0.00  0.00     0.083 H 
ATOM     15  H7  <0> d           0.250  -1.156  -1.996  0.00  0.00     0.083 H 
ATOM     16  H8  <0> d          -0.038  -0.727   0.793  0.00  0.00     0.083 H 
ENDROOT
TORSDOF 0
