REMARK  6 active torsions:
REMARK  status: ('A' for Active; 'I' for Inactive)
REMARK    1  A    between atoms: C1_1  and  C2_2 
REMARK    2  A    between atoms: C2_2  and  C3_3 
REMARK    3  A    between atoms: C3_3  and  C4_4 
REMARK    4  A    between atoms: C4_4  and  C5_5 
REMARK    5  A    between atoms: C5_5  and  O1_6 
REMARK    6  A    between atoms: O1_6  and  C6_7 
ROOT
ATOM      1  C6  <0> d          -0.018   1.468   0.010  0.00  0.00     0.097 C 
ATOM      2  C7  <0> d           0.002  -0.004   0.002  0.00  0.00     0.085 C 
ATOM      3  N1  <0> d           0.018  -1.140  -0.004  0.00  0.00    -0.195 NA
ATOM      4  H12 <0> d          -0.545   1.829  -0.873  0.00  0.00     0.097 H 
ATOM      5  H13 <0> d          -0.528   1.819   0.907  0.00  0.00     0.097 H 
ENDROOT
BRANCH   1   6
ATOM      6  O1  <0> d           1.323   1.962  -0.000  0.00  0.00    -0.377 OA
BRANCH   6   7
ATOM      7  C5  <0> d           1.416   3.388   0.007  0.00  0.00     0.021 C 
ATOM      8  H10 <0> d           0.919   3.789  -0.876  0.00  0.00     0.074 H 
ATOM      9  H11 <0> d           0.936   3.780   0.903  0.00  0.00     0.074 H 
BRANCH   7  10
ATOM     10  C4  <0> d           2.889   3.803  -0.005  0.00  0.00    -0.045 C 
ATOM     11  H8  <0> d           3.386   3.402   0.878  0.00  0.00     0.036 H 
ATOM     12  H9  <0> d           3.369   3.412  -0.902  0.00  0.00     0.036 H 
BRANCH  10  13
ATOM     13  C3  <0> d           2.989   5.330   0.002  0.00  0.00    -0.064 C 
ATOM     14  H6  <0> d           2.492   5.731  -0.881  0.00  0.00     0.033 H 
ATOM     15  H7  <0> d           2.509   5.721   0.899  0.00  0.00     0.033 H 
BRANCH  13  16
ATOM     16  C2  <0> d           4.462   5.744  -0.010  0.00  0.00    -0.068 C 
ATOM     17  H4  <0> d           4.959   5.343   0.873  0.00  0.00     0.032 H 
ATOM     18  H5  <0> d           4.942   5.353  -0.906  0.00  0.00     0.032 H 
BRANCH  16  19
ATOM     19  C1  <0> d           4.562   7.271  -0.003  0.00  0.00    -0.077 C 
ATOM     20  H1  <0> d           5.611   7.566  -0.011  0.00  0.00     0.027 H 
ATOM     21  H2  <0> d           4.064   7.672  -0.886  0.00  0.00     0.027 H 
ATOM     22  H3  <0> d           4.081   7.662   0.894  0.00  0.00     0.027 H 
ENDBRANCH  16  19
ENDBRANCH  13  16
ENDBRANCH  10  13
ENDBRANCH   7  10
ENDBRANCH   6   7
ENDBRANCH   1   6
TORSDOF 6
