REMARK  0 active torsions:
REMARK  status: ('A' for Active; 'I' for Inactive)
ROOT
ATOM      1  C1  <0> d          -0.013   1.076   0.008  0.00  0.00    -0.056 A 
ATOM      2  C2  <0> d           1.150   1.782   0.001  0.00  0.00    -0.016 A 
ATOM      3  C3  <0> d           1.107   3.188   0.009  0.00  0.00     0.245 A 
ATOM      4  O1  <0> d           2.147   3.826   0.002  0.00  0.00    -0.268 OA
ATOM      5  N1  <0> d          -0.073   3.835   0.023  0.00  0.00    -0.332 N 
ATOM      6  H1  <0> d          -0.097   4.935   0.029  0.00  0.00     0.168 HD
ATOM      7  C4  <0> d          -1.237   3.157   0.030  0.00  0.00     0.000 A 
ATOM      8  C5  <0> d          -1.242   1.778   0.018  0.00  0.00     0.060 A 
ATOM      9  C6  <0> d          -2.482   1.061   0.019  0.00  0.00     0.101 C 
ATOM     10  N2  <0> d          -3.466   0.492   0.021  0.00  0.00    -0.191 NA
ATOM     11  H2  <0> d           0.002  -0.004   0.002  0.00  0.00     0.086 H 
ATOM     12  H3  <0> d           2.099   1.267  -0.012  0.00  0.00     0.092 H 
ATOM     13  H4  <0> d          -2.172   3.697   0.042  0.00  0.00     0.113 H 
ENDROOT
TORSDOF 0
