REMARK  1 active torsions:
REMARK  status: ('A' for Active; 'I' for Inactive)
REMARK    1  A    between atoms: C1_1  and  N1_2 
ROOT
ATOM      1  N1  <0> d           0.002  -0.004   0.002  0.00  0.00    -0.262 N 
ATOM      2  C2  <0> d           0.008  -0.784  -1.094  0.00  0.00     0.143 A 
ATOM      3  C3  <0> d           0.028  -2.098  -0.664  0.00  0.00     0.103 A 
ATOM      4  C4  <0> d           0.034  -2.075   0.749  0.00  0.00     0.045 A 
ATOM      5  N2  <0> d           0.025  -0.828   1.133  0.00  0.00    -0.182 NA
ATOM      6  C5  <0> d           0.040  -3.264  -1.496  0.00  0.00     0.104 C 
ATOM      7  N3  <0> d           0.049  -4.189  -2.155  0.00  0.00    -0.191 NA
ATOM      8 Cl1  <0> d          -0.007  -0.241  -2.743  0.00  0.00    -0.061 Cl
ATOM      9  H4  <0> d           0.048  -2.938   1.397  0.00  0.00     0.119 H 
ENDROOT
BRANCH   1  10
ATOM     10  C1  <0> d          -0.018   1.461   0.010  0.00  0.00     0.004 C 
ATOM     11  H1  <0> d           1.005   1.838   0.002  0.00  0.00     0.059 H 
ATOM     12  H2  <0> d          -0.545   1.822  -0.873  0.00  0.00     0.059 H 
ATOM     13  H3  <0> d          -0.528   1.812   0.907  0.00  0.00     0.059 H 
ENDBRANCH   1  10
TORSDOF 1
