REMARK  5 active torsions:
REMARK  status: ('A' for Active; 'I' for Inactive)
REMARK    1  A    between atoms: C1_1  and  C2_2 
REMARK    2  A    between atoms: C2_2  and  C3_3 
REMARK    3  A    between atoms: C3_3  and  C4_5 
REMARK    4  A    between atoms: C3_3  and  C5_7 
REMARK    5  A    between atoms: C4_5  and  O1_6 
ROOT
ATOM      1  C3  <0> d          -2.491   3.915   0.046  0.00  0.00     0.008 C 
ATOM      2  H1  <0> d          -2.336   4.905  -0.384  0.00  0.00     0.052 H 
ENDROOT
BRANCH   1   3
ATOM      3  C2  <0> d          -2.981   4.058   1.489  0.00  0.00    -0.058 C 
ATOM      4  H5  <0> d          -3.962   4.532   1.494  0.00  0.00     0.033 H 
ATOM      5  H6  <0> d          -3.051   3.072   1.948  0.00  0.00     0.033 H 
BRANCH   3   6
ATOM      6  C1  <0> d          -1.994   4.920   2.280  0.00  0.00    -0.076 C 
ATOM      7  H2  <0> d          -1.924   5.906   1.821  0.00  0.00     0.027 H 
ATOM      8  H3  <0> d          -2.343   5.021   3.307  0.00  0.00     0.027 H 
ATOM      9  H4  <0> d          -1.013   4.446   2.274  0.00  0.00     0.027 H 
ENDBRANCH   3   6
ENDBRANCH   1   3
BRANCH   1  10
ATOM     10  C4  <0> d          -3.538   3.160  -0.775  0.00  0.00     0.025 C 
ATOM     11  H7  <0> d          -3.152   2.981  -1.779  0.00  0.00     0.075 H 
ATOM     12  H8  <0> d          -3.758   2.207  -0.295  0.00  0.00     0.075 H 
BRANCH  10  13
ATOM     13  O1  <0> d          -4.733   3.939  -0.857  0.00  0.00    -0.400 OA
ATOM     14  H9  <0> d          -5.441   3.521  -1.364  0.00  0.00     0.209 HD
ENDBRANCH  10  13
ENDBRANCH   1  10
BRANCH   1  15
ATOM     15  C5  <0> d          -1.192   3.151   0.030  0.00  0.00     0.040 A 
ATOM     16  N1  <0> d          -0.050   3.809   0.022  0.00  0.00    -0.265 NA
ATOM     17  C9  <0> d           1.111   3.182   0.008  0.00  0.00     0.003 A 
ATOM     18  C8  <0> d           1.169   1.802   0.001  0.00  0.00    -0.066 A 
ATOM     19  H13 <0> d           2.027   3.755   0.002  0.00  0.00     0.114 H 
ATOM     20  C7  <0> d          -0.013   1.076   0.008  0.00  0.00    -0.080 A 
ATOM     21  H12 <0> d           2.122   1.295  -0.011  0.00  0.00     0.085 H 
ATOM     22  C6  <0> d          -1.213   1.769   0.017  0.00  0.00    -0.059 A 
ATOM     23  H11 <0> d           0.002  -0.004   0.002  0.00  0.00     0.083 H 
ATOM     24  H10 <0> d          -2.152   1.236   0.019  0.00  0.00     0.086 H 
ENDBRANCH   1  15
TORSDOF 5
