REMARK  0 active torsions:
REMARK  status: ('A' for Active; 'I' for Inactive)
ROOT
ATOM      1  C1  <0> d          -0.018   1.456   0.010  0.00  0.00    -0.056 A 
ATOM      2  C2  <0> d           1.263   1.865   0.000  0.00  0.00    -0.022 A 
ATOM      3  N1  <0> d           2.098   0.783  -0.014  0.00  0.00    -0.364 N 
ATOM      4  H1  <0> d           3.067   0.828  -0.023  0.00  0.00     0.165 HD
ATOM      5  C3  <0> d           1.363  -0.377  -0.013  0.00  0.00     0.060 A 
ATOM      6  C4  <0> d           0.002  -0.004   0.002  0.00  0.00    -0.004 A 
ATOM      7  C5  <0> d          -0.969  -1.006   0.005  0.00  0.00    -0.033 A 
ATOM      8  C6  <0> d          -0.554  -2.333  -0.006  0.00  0.00     0.137 A 
ATOM      9  N2  <0> d           0.743  -2.644  -0.020  0.00  0.00    -0.248 NA
ATOM     10  C7  <0> d           1.687  -1.731  -0.023  0.00  0.00     0.030 A 
ATOM     11  C8  <0> d          -1.531  -3.380  -0.002  0.00  0.00     0.119 C 
ATOM     12  N3  <0> d          -2.306  -4.210   0.001  0.00  0.00    -0.190 NA
ATOM     13  H2  <0> d          -0.894   2.088   0.026  0.00  0.00     0.086 H 
ATOM     14  H3  <0> d           1.585   2.896   0.002  0.00  0.00     0.111 H 
ATOM     15  H4  <0> d          -2.020  -0.757   0.017  0.00  0.00     0.089 H 
ATOM     16  H5  <0> d           2.724  -2.033  -0.035  0.00  0.00     0.118 H 
ENDROOT
TORSDOF 0
