REMARK  2 active torsions:
REMARK  status: ('A' for Active; 'I' for Inactive)
REMARK    1  A    between atoms: C2_2  and  C3_3 
REMARK    2  A    between atoms: C3_3  and  N1_4 
ROOT
ATOM      1  C1  <0> d          -1.292   1.962  -2.136  0.00  0.00    -0.152 C 
ATOM      2  C2  <0> d          -0.725   1.573  -1.185  0.00  0.00    -0.097 C 
ATOM      3  H1  <0> d          -1.825   2.327  -3.027  0.00  0.00     0.166 H 
ENDROOT
BRANCH   2   4
ATOM      4  C3  <0> d          -0.013   1.086   0.008  0.00  0.00     0.052 C 
ATOM      5  H2  <0> d           0.002  -0.014   0.002  0.00  0.00     0.084 H 
ATOM      6  H3  <0> d           1.019   1.466   0.000  0.00  0.00     0.084 H 
BRANCH   4   7
ATOM      7  N1  <0> d          -0.698   1.558   1.213  0.00  0.00    -0.356 N 
ATOM      8  C7  <0> d          -1.698   0.901   1.868  0.00  0.00    -0.020 A 
ATOM      9  C6  <0> d          -2.071   1.649   2.926  0.00  0.00    -0.067 A 
ATOM     10  H7  <0> d          -2.118  -0.053   1.587  0.00  0.00     0.111 H 
ATOM     11  C5  <0> d          -1.274   2.810   2.925  0.00  0.00    -0.067 A 
ATOM     12  H6  <0> d          -2.841   1.403   3.643  0.00  0.00     0.085 H 
ATOM     13  C4  <0> d          -0.439   2.725   1.869  0.00  0.00    -0.020 A 
ATOM     14  H5  <0> d          -1.319   3.618   3.640  0.00  0.00     0.085 H 
ATOM     15  H4  <0> d           0.305   3.456   1.590  0.00  0.00     0.111 H 
ENDBRANCH   4   7
ENDBRANCH   2   4
TORSDOF 2
