REMARK  2 active torsions:
REMARK  status: ('A' for Active; 'I' for Inactive)
REMARK    1  A    between atoms: C2_2  and  S1_3 
REMARK    2  A    between atoms: S1_3  and  C3_4 
ROOT
ATOM      1  C1  <0> d           0.018  -1.178  -0.004  0.00  0.00    -0.142 C 
ATOM      2  C2  <0> d           0.002  -0.004   0.002  0.00  0.00    -0.040 C 
ATOM      3  H1  <0> d           0.032  -2.228  -0.010  0.00  0.00     0.167 H 
ENDROOT
BRANCH   2   4
ATOM      4  S1  <0> d          -0.022   1.775   0.012  0.00  0.00    -0.040 SA
BRANCH   4   5
ATOM      5  C3  <0> d           1.682   2.224  -0.002  0.00  0.00     0.013 A 
ATOM      6  C8  <0> d           2.048   3.565   0.002  0.00  0.00    -0.066 A 
ATOM      7  C7  <0> d           3.384   3.913  -0.004  0.00  0.00    -0.082 A 
ATOM      8  H6  <0> d           1.289   4.333   0.013  0.00  0.00     0.085 H 
ATOM      9  C6  <0> d           4.357   2.930  -0.025  0.00  0.00    -0.083 A 
ATOM     10  H5  <0> d           3.670   4.955   0.003  0.00  0.00     0.083 H 
ATOM     11  C5  <0> d           3.996   1.595  -0.034  0.00  0.00    -0.082 A 
ATOM     12  H4  <0> d           5.401   3.206  -0.034  0.00  0.00     0.083 H 
ATOM     13  C4  <0> d           2.662   1.239  -0.022  0.00  0.00    -0.066 A 
ATOM     14  H3  <0> d           4.758   0.830  -0.049  0.00  0.00     0.083 H 
ATOM     15  H2  <0> d           2.380   0.197  -0.029  0.00  0.00     0.085 H 
ENDBRANCH   4   5
ENDBRANCH   2   4
TORSDOF 2
