REMARK  4 active torsions:
REMARK  status: ('A' for Active; 'I' for Inactive)
REMARK    1  A    between atoms: C1_1  and  O1_2 
REMARK    2  A    between atoms: O1_2  and  C2_3 
REMARK    3  A    between atoms: C2_3  and  C3_5 
REMARK    4  A    between atoms: C3_5  and  C4_6 
ROOT
ATOM      1  C4  <0> d          -2.705  -2.589   0.014  0.00  0.00    -0.046 C 
ATOM      2  C5  <0> d          -3.360  -2.165   1.330  0.00  0.00    -0.061 C 
ATOM      3  C6  <0> d          -4.822  -2.619   1.341  0.00  0.00    -0.065 C 
ATOM      4  C7  <0> d          -4.884  -4.142   1.208  0.00  0.00    -0.065 C 
ATOM      5  C8  <0> d          -4.228  -4.566  -0.108  0.00  0.00    -0.065 C 
ATOM      6  C9  <0> d          -2.767  -4.112  -0.119  0.00  0.00    -0.061 C 
ATOM      7  H6  <0> d          -3.235  -2.130  -0.820  0.00  0.00     0.040 H 
ATOM      8  H7  <0> d          -2.831  -2.625   2.164  0.00  0.00     0.033 H 
ATOM      9  H8  <0> d          -3.316  -1.080   1.425  0.00  0.00     0.033 H 
ATOM     10  H9  <0> d          -5.288  -2.317   2.279  0.00  0.00     0.033 H 
ATOM     11  H10 <0> d          -5.351  -2.159   0.507  0.00  0.00     0.033 H 
ATOM     12  H11 <0> d          -4.354  -4.602   2.042  0.00  0.00     0.033 H 
ATOM     13  H12 <0> d          -5.925  -4.465   1.216  0.00  0.00     0.033 H 
ATOM     14  H13 <0> d          -4.273  -5.651  -0.203  0.00  0.00     0.033 H 
ATOM     15  H14 <0> d          -4.758  -4.106  -0.942  0.00  0.00     0.033 H 
ATOM     16  H15 <0> d          -2.300  -4.414  -1.057  0.00  0.00     0.033 H 
ATOM     17  H16 <0> d          -2.237  -4.572   0.715  0.00  0.00     0.033 H 
ENDROOT
BRANCH   1  18
ATOM     18  C3  <0> d          -1.244  -2.135   0.003  0.00  0.00     0.019 C 
ATOM     19  H4  <0> d          -0.753  -2.514  -0.894  0.00  0.00     0.048 H 
ATOM     20  H5  <0> d          -0.736  -2.523   0.886  0.00  0.00     0.048 H 
BRANCH  18  21
ATOM     21  C2  <0> d          -1.185  -0.630   0.010  0.00  0.00     0.258 C 
ATOM     22  O2  <0> d          -2.208   0.015   0.023  0.00  0.00    -0.265 OA
BRANCH  21  23
ATOM     23  O1  <0> d           0.002  -0.004   0.002  0.00  0.00    -0.326 OA
BRANCH  23  24
ATOM     24  C1  <0> d          -0.017   1.425   0.010  0.00  0.00     0.013 C 
ATOM     25  H1  <0> d           1.005   1.802   0.002  0.00  0.00     0.067 H 
ATOM     26  H2  <0> d          -0.544   1.786  -0.873  0.00  0.00     0.067 H 
ATOM     27  H3  <0> d          -0.527   1.776   0.907  0.00  0.00     0.067 H 
ENDBRANCH  23  24
ENDBRANCH  21  23
ENDBRANCH  18  21
ENDBRANCH   1  18
TORSDOF 4
