REMARK  4 active torsions:
REMARK  status: ('A' for Active; 'I' for Inactive)
REMARK    1  A    between atoms: C1_1  and  C2_2 
REMARK    2  A    between atoms: C2_2  and  C3_3 
REMARK    3  A    between atoms: C2_2  and  C4_4 
REMARK    4  A    between atoms: C4_4  and  C5_5 
ROOT
ATOM      1  C4  <0> d          -1.433  -0.534   0.013  0.00  0.00    -0.056 C 
ATOM      2  H9  <0> d          -1.916  -0.257   0.950  0.00  0.00     0.034 H 
ATOM      3  H10 <0> d          -1.986  -0.102  -0.821  0.00  0.00     0.034 H 
ENDROOT
BRANCH   1   4
ATOM      4  C2  <0> d           0.002  -0.004   0.002  0.00  0.00    -0.060 C 
ATOM      5  H5  <0> d           0.512  -0.356  -0.895  0.00  0.00     0.038 H 
BRANCH   4   6
ATOM      6  C1  <0> d          -0.019   1.526   0.010  0.00  0.00    -0.073 C 
ATOM      7  H2  <0> d           1.004   1.903   0.003  0.00  0.00     0.028 H 
ATOM      8  H3  <0> d          -0.546   1.887  -0.873  0.00  0.00     0.028 H 
ATOM      9  H4  <0> d          -0.529   1.877   0.907  0.00  0.00     0.028 H 
ENDBRANCH   4   6
BRANCH   4  10
ATOM     10  C3  <0> d           0.742  -0.511   1.242  0.00  0.00    -0.073 C 
ATOM     11  H6  <0> d           0.757  -1.601   1.236  0.00  0.00     0.028 H 
ATOM     12  H7  <0> d           1.765  -0.134   1.234  0.00  0.00     0.028 H 
ATOM     13  H8  <0> d           0.232  -0.159   2.138  0.00  0.00     0.028 H 
ENDBRANCH   4  10
ENDBRANCH   1   4
BRANCH   1  14
ATOM     14  C5  <0> d          -1.416  -2.058  -0.121  0.00  0.00    -0.037 C 
ATOM     15  H1  <0> d          -0.782  -2.498   0.649  0.00  0.00     0.045 H 
ATOM     16  C9  <0> d          -0.931  -2.460  -1.495  0.00  0.00    -0.102 C 
ATOM     17  C8  <0> d          -1.684  -3.402  -2.000  0.00  0.00    -0.106 C 
ATOM     18  H16 <0> d          -0.078  -2.024  -1.993  0.00  0.00     0.076 H 
ATOM     19  C7  <0> d          -2.790  -3.786  -1.045  0.00  0.00    -0.049 C 
ATOM     20  H15 <0> d          -1.533  -3.849  -2.971  0.00  0.00     0.076 H 
ATOM     21  C6  <0> d          -2.852  -2.623  -0.027  0.00  0.00    -0.056 C 
ATOM     22  H13 <0> d          -2.548  -4.721  -0.539  0.00  0.00     0.038 H 
ATOM     23  H14 <0> d          -3.737  -3.875  -1.577  0.00  0.00     0.038 H 
ATOM     24  H11 <0> d          -3.062  -2.993   0.977  0.00  0.00     0.034 H 
ATOM     25  H12 <0> d          -3.587  -1.877  -0.329  0.00  0.00     0.034 H 
ENDBRANCH   1  14
TORSDOF 4
