REMARK  3 active torsions:
REMARK  status: ('A' for Active; 'I' for Inactive)
REMARK    1  A    between atoms: C1_1  and  O1_2 
REMARK    2  A    between atoms: O1_2  and  C2_3 
REMARK    3  A    between atoms: C2_3  and  C3_4 
ROOT
ATOM      1  C3  <0> d           0.614  -2.074  -1.042  0.00  0.00     0.062 A 
ATOM      2  C4  <0> d           0.004  -2.693   0.036  0.00  0.00    -0.018 A 
ATOM      3  C5  <0> d          -0.007  -4.080   0.081  0.00  0.00     0.129 A 
ATOM      4  N1  <0> d           0.562  -4.760  -0.903  0.00  0.00    -0.230 NA
ATOM      5  C6  <0> d           1.133  -4.135  -1.914  0.00  0.00     0.088 A 
ATOM      6  N2  <0> d           1.157  -2.820  -1.991  0.00  0.00    -0.244 NA
ATOM      7 Cl1  <0> d          -0.755  -4.912   1.408  0.00  0.00    -0.062 Cl
ATOM      8  H6  <0> d          -0.451  -2.111   0.824  0.00  0.00     0.091 H 
ATOM      9  H7  <0> d           1.589  -4.717  -2.701  0.00  0.00     0.146 H 
ENDROOT
BRANCH   1  10
ATOM     10  C2  <0> d           0.652  -0.570  -1.138  0.00  0.00     0.059 C 
ATOM     11  H4  <0> d           0.139  -0.251  -2.045  0.00  0.00     0.084 H 
ATOM     12  H5  <0> d           1.688  -0.234  -1.169  0.00  0.00     0.084 H 
BRANCH  10  13
ATOM     13  O1  <0> d           0.002  -0.004   0.002  0.00  0.00    -0.390 OA
BRANCH  13  14
ATOM     14  C1  <0> d          -0.017   1.425   0.010  0.00  0.00     0.004 C 
ATOM     15  H1  <0> d           1.005   1.802   0.002  0.00  0.00     0.066 H 
ATOM     16  H2  <0> d          -0.544   1.786  -0.873  0.00  0.00     0.066 H 
ATOM     17  H3  <0> d          -0.527   1.776   0.907  0.00  0.00     0.066 H 
ENDBRANCH  13  14
ENDBRANCH  10  13
ENDBRANCH   1  10
TORSDOF 3
