REMARK  0 active torsions:
REMARK  status: ('A' for Active; 'I' for Inactive)
ROOT
ATOM      1  C1  <0> d          -0.015   1.294   0.009  0.00  0.00     0.046 A 
ATOM      2  C2  <0> d           1.375   1.748  -0.002  0.00  0.00     0.079 A 
ATOM      3  C3  <0> d           2.174   0.588  -0.015  0.00  0.00     0.210 A 
ATOM      4  N1  <0> d           3.494   0.726  -0.028  0.00  0.00    -0.215 NA
ATOM      5  C4  <0> d           4.043   1.923  -0.027  0.00  0.00     0.091 A 
ATOM      6  N2  <0> d           3.328   3.033  -0.014  0.00  0.00    -0.229 NA
ATOM      7  C5  <0> d           2.004   2.995  -0.001  0.00  0.00     0.143 A 
ATOM      8 Cl1  <0> d           1.074   4.460   0.015  0.00  0.00    -0.061 Cl
ATOM      9  O1  <0> d           1.339  -0.464  -0.013  0.00  0.00    -0.193 OA
ATOM     10  N3  <0> d           0.002  -0.004   0.002  0.00  0.00    -0.138 NA
ATOM     11  H1  <0> d          -0.894   1.922   0.025  0.00  0.00     0.119 H 
ATOM     12  H2  <0> d           5.120   2.000  -0.037  0.00  0.00     0.146 H 
ENDROOT
TORSDOF 0
