REMARK  3 active torsions:
REMARK  status: ('A' for Active; 'I' for Inactive)
REMARK    1  A    between atoms: C1_1  and  C2_2 
REMARK    2  A    between atoms: C4_5  and  C5_7 
REMARK    3  A    between atoms: C5_7  and  O1_8 
ROOT
ATOM      1  C2  <0> d           0.002  -0.004   0.002  0.00  0.00     0.071 A 
ATOM      2  N1  <0> d           0.009  -0.812  -1.029  0.00  0.00    -0.257 NA
ATOM      3  C3  <0> d           0.027  -2.121  -0.874  0.00  0.00     0.018 A 
ATOM      4  C4  <0> d           0.039  -2.590   0.400  0.00  0.00     0.025 A 
ATOM      5  S1  <0> d           0.029  -1.057   1.315  0.00  0.00    -0.076 SA
ATOM      6  H4  <0> d           0.033  -2.790  -1.722  0.00  0.00     0.116 H 
ENDROOT
BRANCH   4   7
ATOM      7  C5  <0> d           0.059  -4.011   0.902  0.00  0.00     0.048 C 
ATOM      8  H5  <0> d          -0.450  -4.063   1.865  0.00  0.00     0.082 H 
ATOM      9  H6  <0> d          -0.449  -4.657   0.186  0.00  0.00     0.082 H 
BRANCH   7  10
ATOM     10  O1  <0> d           1.413  -4.442   1.056  0.00  0.00    -0.396 OA
ATOM     11  H7  <0> d           1.502  -5.350   1.377  0.00  0.00     0.209 HD
ENDBRANCH   7  10
ENDBRANCH   4   7
BRANCH   1  12
ATOM     12  C1  <0> d          -0.018   1.503   0.010  0.00  0.00    -0.029 C 
ATOM     13  H1  <0> d           1.004   1.880   0.003  0.00  0.00     0.036 H 
ATOM     14  H2  <0> d          -0.545   1.864  -0.873  0.00  0.00     0.036 H 
ATOM     15  H3  <0> d          -0.529   1.854   0.907  0.00  0.00     0.036 H 
ENDBRANCH   1  12
TORSDOF 3
