REMARK  1 active torsions:
REMARK  status: ('A' for Active; 'I' for Inactive)
REMARK    1  A    between atoms: C1_1  and  N1_2 
ROOT
ATOM      1  N1  <0> d           0.002  -0.004   0.002  0.00  0.00    -0.353 N 
ATOM      2  C2  <0> d           0.008  -0.811  -1.105  0.00  0.00     0.019 A 
ATOM      3  C3  <0> d           0.028  -2.083  -0.660  0.00  0.00     0.142 A 
ATOM      4  N2  <0> d           0.034  -2.052   0.681  0.00  0.00    -0.230 NA
ATOM      5  C4  <0> d           0.024  -0.811   1.084  0.00  0.00     0.067 A 
ATOM      6 Cl1  <0> d           0.043  -3.510  -1.648  0.00  0.00    -0.061 Cl
ATOM      7  H4  <0> d          -0.001  -0.490  -2.136  0.00  0.00     0.116 H 
ATOM      8  H5  <0> d           0.029  -0.483   2.113  0.00  0.00     0.143 H 
ENDROOT
BRANCH   1   9
ATOM      9  C1  <0> d          -0.018   1.461   0.010  0.00  0.00    -0.014 C 
ATOM     10  H1  <0> d           1.005   1.838   0.002  0.00  0.00     0.057 H 
ATOM     11  H2  <0> d          -0.545   1.822  -0.873  0.00  0.00     0.057 H 
ATOM     12  H3  <0> d          -0.528   1.812   0.907  0.00  0.00     0.057 H 
ENDBRANCH   1   9
TORSDOF 1
