REMARK  5 active torsions:
REMARK  status: ('A' for Active; 'I' for Inactive)
REMARK    1  A    between atoms: C1_1  and  C2_2 
REMARK    2  A    between atoms: C2_2  and  C3_3 
REMARK    3  A    between atoms: C2_2  and  C4_4 
REMARK    4  A    between atoms: C2_2  and  O1_5 
REMARK    5  A    between atoms: O1_5  and  C5_6 
ROOT
ATOM      1  C2  <0> d           4.769   0.160  -0.155  0.00  0.00     0.057 C 
ENDROOT
BRANCH   1   2
ATOM      2  C1  <0> d           5.076   0.991   1.093  0.00  0.00    -0.048 C 
ATOM      3  H1  <0> d           5.226   0.326   1.944  0.00  0.00     0.031 H 
ATOM      4  H2  <0> d           5.980   1.577   0.926  0.00  0.00     0.031 H 
ATOM      5  H3  <0> d           4.241   1.661   1.298  0.00  0.00     0.031 H 
ENDBRANCH   1   2
BRANCH   1   6
ATOM      6  C3  <0> d           5.692  -1.059  -0.197  0.00  0.00    -0.048 C 
ATOM      7  H4  <0> d           5.473  -1.651  -1.085  0.00  0.00     0.031 H 
ATOM      8  H5  <0> d           6.730  -0.728  -0.227  0.00  0.00     0.031 H 
ATOM      9  H6  <0> d           5.531  -1.667   0.694  0.00  0.00     0.031 H 
ENDBRANCH   1   6
BRANCH   1  10
ATOM     10  C4  <0> d           4.995   1.014  -1.404  0.00  0.00    -0.048 C 
ATOM     11  H7  <0> d           4.203   1.759  -1.484  0.00  0.00     0.031 H 
ATOM     12  H8  <0> d           5.960   1.516  -1.331  0.00  0.00     0.031 H 
ATOM     13  H9  <0> d           4.984   0.376  -2.288  0.00  0.00     0.031 H 
ENDBRANCH   1  10
BRANCH   1  14
ATOM     14  O1  <0> d           3.408  -0.274  -0.115  0.00  0.00    -0.341 OA
BRANCH  14  15
ATOM     15  C5  <0> d           2.452   0.691  -0.136  0.00  0.00     0.069 A 
ATOM     16  C10 <0> d           2.814   2.030  -0.105  0.00  0.00    -0.051 A 
ATOM     17  C9  <0> d           1.840   3.009  -0.128  0.00  0.00    -0.080 A 
ATOM     18  H14 <0> d           3.858   2.306  -0.064  0.00  0.00     0.087 H 
ATOM     19  C8  <0> d           0.504   2.656  -0.181  0.00  0.00    -0.083 A 
ATOM     20  H13 <0> d           2.122   4.051  -0.105  0.00  0.00     0.083 H 
ATOM     21  C7  <0> d           0.140   1.322  -0.212  0.00  0.00    -0.080 A 
ATOM     22  H12 <0> d          -0.255   3.423  -0.203  0.00  0.00     0.083 H 
ATOM     23  C6  <0> d           1.111   0.339  -0.190  0.00  0.00    -0.051 A 
ATOM     24  H11 <0> d          -0.904   1.049  -0.253  0.00  0.00     0.083 H 
ATOM     25  H10 <0> d           0.826  -0.702  -0.213  0.00  0.00     0.087 H 
ENDBRANCH  14  15
ENDBRANCH   1  14
TORSDOF 5
