REMARK  3 active torsions:
REMARK  status: ('A' for Active; 'I' for Inactive)
REMARK    1  A    between atoms: C1_1  and  S1_2 
REMARK    2  A    between atoms: S1_2  and  C2_3 
REMARK    3  A    between atoms: C6_7  and  O1_9 
ROOT
ATOM      1  C2  <0> d          -0.049   3.846   0.021  0.00  0.00     0.002 A 
ATOM      2  C3  <0> d           1.161   3.163   0.007  0.00  0.00    -0.067 A 
ATOM      3  C4  <0> d           1.176   1.782   0.000  0.00  0.00    -0.079 A 
ATOM      4  C5  <0> d          -0.013   1.076   0.008  0.00  0.00    -0.051 A 
ATOM      5  C6  <0> d          -1.224   1.752   0.017  0.00  0.00     0.067 A 
ATOM      6  C7  <0> d          -1.244   3.138   0.029  0.00  0.00    -0.035 A 
ATOM      7  H4  <0> d           2.091   3.712   0.001  0.00  0.00     0.085 H 
ATOM      8  H5  <0> d           2.117   1.253  -0.011  0.00  0.00     0.083 H 
ATOM      9  H6  <0> d           0.002  -0.004   0.002  0.00  0.00     0.087 H 
ATOM     10  H7  <0> d          -2.186   3.666   0.041  0.00  0.00     0.089 H 
ENDROOT
BRANCH   1  11
ATOM     11  S1  <0> d          -0.068   5.608   0.029  0.00  0.00    -0.134 SA
BRANCH  11  12
ATOM     12  C1  <0> d           1.687   6.066   0.014  0.00  0.00    -0.030 C 
ATOM     13  H1  <0> d           1.780   7.162   0.017  0.00  0.00     0.042 H 
ATOM     14  H2  <0> d           2.164   5.660  -0.891  0.00  0.00     0.042 H 
ATOM     15  H3  <0> d           2.181   5.653   0.906  0.00  0.00     0.042 H 
ENDBRANCH  11  12
ENDBRANCH   1  11
BRANCH   5  16
ATOM     16  O1  <0> d          -2.392   1.056   0.019  0.00  0.00    -0.361 OA
ATOM     17  H8  <0> d          -3.352   1.593   0.027  0.00  0.00     0.217 HD
ENDBRANCH   5  16
TORSDOF 3
