REMARK  7 active torsions:
REMARK  status: ('A' for Active; 'I' for Inactive)
REMARK    1  A    between atoms: C1_1  and  C2_2 
REMARK    2  A    between atoms: C2_2  and  C3_4 
REMARK    3  A    between atoms: C2_2  and  C7_8 
REMARK    4  A    between atoms: C3_4  and  C4_5 
REMARK    5  A    between atoms: C4_5  and  C5_6 
REMARK    6  A    between atoms: C4_5  and  C6_7 
REMARK    7  A    between atoms: C7_8  and  C8_9 
ROOT
ATOM      1  C3  <0> d           0.847  -0.508   1.173  0.00  0.00    -0.059 C 
ATOM      2  H5  <0> d           0.453  -0.241   2.154  0.00  0.00     0.034 H 
ATOM      3  H6  <0> d           0.850  -1.593   1.066  0.00  0.00     0.034 H 
ENDROOT
BRANCH   1   4
ATOM      4  C2  <0> d          -0.032   0.110   0.085  0.00  0.00    -0.048 C 
ATOM      5  H1  <0> d           0.418  -0.069  -0.891  0.00  0.00     0.040 H 
BRANCH   4   6
ATOM      6  C1  <0> d          -0.154   1.617   0.322  0.00  0.00    -0.072 C 
ATOM      7  H2  <0> d           0.842   2.058   0.376  0.00  0.00     0.028 H 
ATOM      8  H3  <0> d          -0.708   2.070  -0.499  0.00  0.00     0.028 H 
ATOM      9  H4  <0> d          -0.681   1.796   1.259  0.00  0.00     0.028 H 
ENDBRANCH   4   6
BRANCH   4  10
ATOM     10  C7  <0> d          -1.423  -0.527   0.130  0.00  0.00     0.019 C 
ATOM     11  H14 <0> d          -1.329  -1.610   0.050  0.00  0.00     0.049 H 
ATOM     12  H15 <0> d          -1.909  -0.273   1.072  0.00  0.00     0.049 H 
BRANCH  10  13
ATOM     13  C8  <0> d          -2.250  -0.008  -1.018  0.00  0.00     0.172 C 
ATOM     14  O1  <0> d          -1.772   0.797  -1.799  0.00  0.00    -0.648 OA
ATOM     15  O2  <0> d          -3.397  -0.393  -1.165  0.00  0.00    -0.648 OA
ENDBRANCH  10  13
ENDBRANCH   4  10
ENDBRANCH   1   4
BRANCH   1  16
ATOM     16  C4  <0> d           2.276   0.021   1.036  0.00  0.00    -0.061 C 
ATOM     17  H7  <0> d           2.262   1.111   1.042  0.00  0.00     0.038 H 
BRANCH  16  18
ATOM     18  C5  <0> d           3.122  -0.484   2.207  0.00  0.00    -0.073 C 
ATOM     19  H8  <0> d           4.159  -0.181   2.064  0.00  0.00     0.028 H 
ATOM     20  H9  <0> d           2.744  -0.059   3.138  0.00  0.00     0.028 H 
ATOM     21  H10 <0> d           3.064  -1.571   2.255  0.00  0.00     0.028 H 
ENDBRANCH  16  18
BRANCH  16  22
ATOM     22  C6  <0> d           2.880  -0.474  -0.279  0.00  0.00    -0.073 C 
ATOM     23  H11 <0> d           2.277  -0.115  -1.114  0.00  0.00     0.028 H 
ATOM     24  H12 <0> d           3.898  -0.098  -0.377  0.00  0.00     0.028 H 
ATOM     25  H13 <0> d           2.894  -1.564  -0.285  0.00  0.00     0.028 H 
ENDBRANCH  16  22
ENDBRANCH   1  16
TORSDOF 7
