REMARK  2 active torsions:
REMARK  status: ('A' for Active; 'I' for Inactive)
REMARK    1  A    between atoms: C3_3  and  O2_9 
REMARK    2  A    between atoms: C4_4  and  C6_7 
ROOT
ATOM      1  C1  <0> d           1.190   2.064   0.002  0.00  0.00    -0.063 A 
ATOM      2  C2  <0> d          -0.017   1.389   0.010  0.00  0.00    -0.047 A 
ATOM      3  C3  <0> d           0.002  -0.004   0.002  0.00  0.00     0.101 A 
ATOM      4  C4  <0> d           1.236  -0.664  -0.013  0.00  0.00     0.165 A 
ATOM      5  N1  <0> d           2.370   0.029  -0.020  0.00  0.00    -0.251 NA
ATOM      6  C5  <0> d           2.376   1.343  -0.013  0.00  0.00     0.003 A 
ATOM      7  H1  <0> d           1.210   3.144   0.007  0.00  0.00     0.085 H 
ATOM      8  H2  <0> d          -0.952   1.929   0.017  0.00  0.00     0.087 H 
ATOM      9  H3  <0> d           3.318   1.870  -0.020  0.00  0.00     0.114 H 
ENDROOT
BRANCH   4  10
ATOM     10  C6  <0> d           1.279  -2.140  -0.021  0.00  0.00     0.231 C 
ATOM     11  O1  <0> d           0.245  -2.778  -0.014  0.00  0.00    -0.643 OA
ATOM     12  O3  <0> d           2.465  -2.780  -0.036  0.00  0.00    -0.643 OA
ENDBRANCH   4  10
BRANCH   3  13
ATOM     13  O2  <0> d          -1.157  -0.709   0.010  0.00  0.00    -0.358 OA
ATOM     14  H4  <0> d          -1.501  -0.909  -0.871  0.00  0.00     0.217 HD
ENDBRANCH   3  13
TORSDOF 2
