REMARK  1 active torsions:
REMARK  status: ('A' for Active; 'I' for Inactive)
REMARK    1  A    between atoms: C1_1  and  N1_2 
ROOT
ATOM      1  N1  <0> d           0.002  -0.004   0.002  0.00  0.00    -0.336 N 
ATOM      2  C2  <0> d           0.009  -0.808  -1.098  0.00  0.00    -0.002 A 
ATOM      3  C3  <0> d           0.028  -2.087  -0.655  0.00  0.00     0.020 A 
ATOM      4  N2  <0> d           0.034  -2.071   0.678  0.00  0.00    -0.232 NA
ATOM      5  C4  <0> d           0.024  -0.823   1.096  0.00  0.00     0.211 A 
ATOM      6  C5  <0> d           0.031  -0.396   2.463  0.00  0.00     0.139 C 
ATOM      7  N3  <0> d           0.037  -0.058   3.548  0.00  0.00    -0.188 NA
ATOM      8  H4  <0> d          -0.001  -0.486  -2.129  0.00  0.00     0.113 H 
ATOM      9  H5  <0> d           0.038  -2.971  -1.276  0.00  0.00     0.117 H 
ENDROOT
BRANCH   1  10
ATOM     10  C1  <0> d          -0.018   1.461   0.010  0.00  0.00    -0.012 C 
ATOM     11  H1  <0> d           1.005   1.838   0.002  0.00  0.00     0.057 H 
ATOM     12  H2  <0> d          -0.545   1.822  -0.873  0.00  0.00     0.057 H 
ATOM     13  H3  <0> d          -0.528   1.812   0.907  0.00  0.00     0.057 H 
ENDBRANCH   1  10
TORSDOF 1
