REMARK  0 active torsions:
REMARK  status: ('A' for Active; 'I' for Inactive)
ROOT
ATOM      1  C1  <0> d          -2.167   3.963  -1.091  0.00  0.00     0.020 A 
ATOM      2  C2  <0> d          -2.549   4.630   0.014  0.00  0.00     0.143 A 
ATOM      3  N1  <0> d          -2.144   3.928   1.082  0.00  0.00    -0.222 NA
ATOM      4  C3  <0> d          -1.522   2.848   0.681  0.00  0.00     0.107 A 
ATOM      5  N2  <0> d          -1.516   2.830  -0.667  0.00  0.00    -0.342 N 
ATOM      6  C4  <0> d          -0.833   1.634  -1.179  0.00  0.00     0.001 C 
ATOM      7  C5  <0> d          -0.013   1.086   0.008  0.00  0.00    -0.043 C 
ATOM      8  C6  <0> d          -0.811   1.621   1.218  0.00  0.00    -0.008 C 
ATOM      9 Cl1  <0> d          -3.414   6.135   0.050  0.00  0.00    -0.061 Cl
ATOM     10  H1  <0> d          -2.339   4.261  -2.115  0.00  0.00     0.116 H 
ATOM     11  H2  <0> d          -0.172   1.901  -2.003  0.00  0.00     0.065 H 
ATOM     12  H3  <0> d          -1.562   0.893  -1.508  0.00  0.00     0.065 H 
ATOM     13  H4  <0> d           0.002  -0.004   0.002  0.00  0.00     0.035 H 
ATOM     14  H5  <0> d           1.000   1.488   0.001  0.00  0.00     0.035 H 
ATOM     15  H6  <0> d          -1.534   0.879   1.556  0.00  0.00     0.044 H 
ATOM     16  H7  <0> d          -0.136   1.896   2.029  0.00  0.00     0.044 H 
ENDROOT
TORSDOF 0
