REMARK  4 active torsions:
REMARK  status: ('A' for Active; 'I' for Inactive)
REMARK    1  A    between atoms: C1_1  and  C2_2 
REMARK    2  A    between atoms: C2_2  and  C3_3 
REMARK    3  A    between atoms: C4_4  and  C5_5 
REMARK    4  A    between atoms: C8_9  and  N3_11 
ROOT
ATOM      1  C5  <0> d           1.974  -1.355   3.306  0.00  0.00     0.130 A 
ATOM      2  C6  <0> d           2.502  -0.453   4.237  0.00  0.00    -0.029 A 
ATOM      3  C7  <0> d           3.162  -0.959   5.342  0.00  0.00     0.024 A 
ATOM      4  N1  <0> d           3.275  -2.270   5.486  0.00  0.00    -0.075 NA
ATOM      5  C8  <0> d           2.766  -3.102   4.588  0.00  0.00     0.721 A 
ATOM      6  N2  <0> d           2.122  -2.662   3.519  0.00  0.00    -0.054 NA
ATOM      7  H6  <0> d           2.396   0.612   4.096  0.00  0.00     0.090 H 
ATOM      8  H7  <0> d           3.582  -0.291   6.080  0.00  0.00     0.115 H 
ENDROOT
BRANCH   1   9
ATOM      9  C4  <0> d           1.282  -0.881   2.146  0.00  0.00    -0.046 C 
ATOM     10  C3  <0> d           0.714  -0.492   1.195  0.00  0.00    -0.100 C 
BRANCH  10  11
ATOM     11  C2  <0> d           0.002  -0.004   0.002  0.00  0.00    -0.012 C 
ATOM     12  H4  <0> d          -1.020  -0.381   0.010  0.00  0.00     0.051 H 
ATOM     13  H5  <0> d           0.512  -0.356  -0.895  0.00  0.00     0.051 H 
BRANCH  11  14
ATOM     14  C1  <0> d          -0.019   1.526   0.010  0.00  0.00    -0.067 C 
ATOM     15  H1  <0> d           1.004   1.903   0.003  0.00  0.00     0.028 H 
ATOM     16  H2  <0> d          -0.546   1.887  -0.873  0.00  0.00     0.028 H 
ATOM     17  H3  <0> d          -0.529   1.877   0.907  0.00  0.00     0.028 H 
ENDBRANCH  11  14
ENDBRANCH  10  11
ENDBRANCH   1   9
BRANCH   5  18
ATOM     18  N3  <0> d           2.907  -4.466   4.777  0.00  0.00    -0.231 N 
ATOM     19  H8  <0> d           3.373  -4.802   5.558  0.00  0.00     0.174 HD
ATOM     20  H9  <0> d           2.539  -5.086   4.128  0.00  0.00     0.174 HD
ENDBRANCH   5  18
TORSDOF 4
