REMARK  2 active torsions:
REMARK  status: ('A' for Active; 'I' for Inactive)
REMARK    1  A    between atoms: C3_3  and  C7_10 
REMARK    2  A    between atoms: C5_6  and  C6_8 
ROOT
ATOM      1  C1  <0> d          -0.019   1.531   0.011  0.00  0.00    -0.060 C 
ATOM      2  C2  <0> d           1.466   1.985  -0.001  0.00  0.00    -0.059 C 
ATOM      3  C3  <0> d           2.212   0.628  -0.359  0.00  0.00    -0.033 C 
ATOM      4  H1  <0> d           3.300   0.611  -0.299  0.00  0.00     0.043 H 
ATOM      5  C4  <0> d           1.410  -0.280   0.664  0.00  0.00    -0.056 C 
ATOM      6  C5  <0> d           0.002  -0.004   0.002  0.00  0.00    -0.040 C 
ATOM      7  H2  <0> d          -0.850  -0.470   0.496  0.00  0.00     0.041 H 
ATOM      8  H5  <0> d          -0.514   1.894   0.911  0.00  0.00     0.033 H 
ATOM      9  H6  <0> d          -0.531   1.904  -0.876  0.00  0.00     0.033 H 
ATOM     10  H7  <0> d           1.639   2.740  -0.769  0.00  0.00     0.033 H 
ATOM     11  H8  <0> d           1.771   2.352   0.979  0.00  0.00     0.033 H 
ATOM     12  H9  <0> d           1.699  -1.329   0.600  0.00  0.00     0.034 H 
ATOM     13  H10 <0> d           1.468   0.098   1.685  0.00  0.00     0.034 H 
ENDROOT
BRANCH   6  14
ATOM     14  C6  <0> d           0.358  -0.588  -1.365  0.00  0.00     0.047 C 
ATOM     15  H3  <0> d           0.571  -1.657  -1.353  0.00  0.00     0.058 H 
ATOM     16  C8  <0> d          -0.077  -0.051  -2.683  0.00  0.00     0.224 C 
ATOM     17  N1  <0> d           1.336  -0.150  -2.928  0.00  0.00    -0.355 N 
ATOM     18  O1  <0> d          -1.089   0.301  -3.252  0.00  0.00    -0.273 OA
ATOM     19  C7  <0> d           1.597   0.373  -1.698  0.00  0.00     0.028 C 
ATOM     20  H11 <0> d           1.884  -0.484  -3.655  0.00  0.00     0.162 HD
ATOM     21  H4  <0> d           1.182   1.367  -1.865  0.00  0.00     0.074 H 
BRANCH  19  22
ENDBRANCH  19  22
ENDBRANCH   6  14
TORSDOF 2
