REMARK  0 active torsions:
REMARK  status: ('A' for Active; 'I' for Inactive)
ROOT
ATOM      1  C1  <0> d          -0.013   1.076   0.008  0.00  0.00    -0.053 A 
ATOM      2  C2  <0> d           1.057   1.891   0.002  0.00  0.00    -0.020 A 
ATOM      3  N1  <0> d           0.647   3.196   0.013  0.00  0.00    -0.350 N 
ATOM      4  H1  <0> d           1.238   3.965   0.012  0.00  0.00     0.166 HD
ATOM      5  C3  <0> d          -0.727   3.257   0.026  0.00  0.00     0.139 A 
ATOM      6  C4  <0> d          -1.197   1.929   0.018  0.00  0.00     0.032 A 
ATOM      7  C5  <0> d          -2.585   1.688   0.021  0.00  0.00     0.060 A 
ATOM      8  C6  <0> d          -3.437   2.796   0.031  0.00  0.00    -0.045 A 
ATOM      9  C7  <0> d          -2.891   4.067   0.035  0.00  0.00     0.006 A 
ATOM     10  N2  <0> d          -1.589   4.263   0.040  0.00  0.00    -0.242 NA
ATOM     11  C8  <0> d          -3.105   0.354   0.016  0.00  0.00     0.100 C 
ATOM     12  N3  <0> d          -3.518  -0.704   0.011  0.00  0.00    -0.191 NA
ATOM     13  H2  <0> d           0.002  -0.004   0.002  0.00  0.00     0.087 H 
ATOM     14  H3  <0> d           2.086   1.565  -0.009  0.00  0.00     0.111 H 
ATOM     15  H4  <0> d          -4.508   2.662   0.034  0.00  0.00     0.088 H 
ATOM     16  H5  <0> d          -3.551   4.922   0.043  0.00  0.00     0.114 H 
ENDROOT
TORSDOF 0
