REMARK  5 active torsions:
REMARK  status: ('A' for Active; 'I' for Inactive)
REMARK    1  A    between atoms: C1_1  and  C2_2 
REMARK    2  A    between atoms: C2_2  and  O1_3 
REMARK    3  A    between atoms: O1_3  and  C3_4 
REMARK    4  A    between atoms: C3_4  and  C4_6 
REMARK    5  A    between atoms: C4_6  and  C7_9 
ROOT
ATOM      1  C4  <0> d           1.317   0.779  -0.006  0.00  0.00     0.044 A 
ATOM      2  C5  <0> d          -0.019   1.526   0.010  0.00  0.00    -0.048 A 
ATOM      3  C6  <0> d           0.002  -0.004   0.002  0.00  0.00    -0.048 A 
ATOM      4  H6  <0> d          -0.325   2.030  -0.906  0.00  0.00     0.034 H 
ATOM      5  H7  <0> d          -0.307   2.020   0.938  0.00  0.00     0.034 H 
ATOM      6  H8  <0> d          -0.273  -0.516   0.924  0.00  0.00     0.034 H 
ATOM      7  H9  <0> d          -0.290  -0.506  -0.920  0.00  0.00     0.034 H 
ENDROOT
BRANCH   1   8
ATOM      8  C3  <0> d           2.132   0.783   1.261  0.00  0.00     0.267 C 
ATOM      9  O2  <0> d           1.724   1.362   2.240  0.00  0.00    -0.264 OA
BRANCH   8  10
ATOM     10  O1  <0> d           3.312   0.143   1.302  0.00  0.00    -0.321 OA
BRANCH  10  11
ATOM     11  C2  <0> d           4.043   0.189   2.556  0.00  0.00     0.025 C 
ATOM     12  H4  <0> d           4.263   1.226   2.810  0.00  0.00     0.074 H 
ATOM     13  H5  <0> d           3.439  -0.258   3.345  0.00  0.00     0.074 H 
BRANCH  11  14
ATOM     14  C1  <0> d           5.352  -0.589   2.411  0.00  0.00    -0.056 C 
ATOM     15  H1  <0> d           5.901  -0.555   3.352  0.00  0.00     0.030 H 
ATOM     16  H2  <0> d           5.132  -1.626   2.156  0.00  0.00     0.030 H 
ATOM     17  H3  <0> d           5.956  -0.141   1.622  0.00  0.00     0.030 H 
ENDBRANCH  11  14
ENDBRANCH  10  11
ENDBRANCH   8  10
ENDBRANCH   1   8
BRANCH   1  18
ATOM     18  C7  <0> d           2.120   0.797  -1.308  0.00  0.00    -0.060 C 
ATOM     19  H10 <0> d           2.362   1.827  -1.571  0.00  0.00     0.029 H 
ATOM     20  H11 <0> d           3.041   0.229  -1.175  0.00  0.00     0.029 H 
ATOM     21  H12 <0> d           1.528   0.348  -2.106  0.00  0.00     0.029 H 
ENDBRANCH   1  18
TORSDOF 5
