REMARK  5 active torsions:
REMARK  status: ('A' for Active; 'I' for Inactive)
REMARK    1  A    between atoms: C1_1  and  C2_2 
REMARK    2  A    between atoms: C2_2  and  C3_4 
REMARK    3  A    between atoms: C2_2  and  O2_11 
REMARK    4  A    between atoms: C3_4  and  C4_5 
REMARK    5  A    between atoms: C4_5  and  C5_6 
ROOT
ATOM      1  C3  <0> d           1.417   2.032  -0.001  0.00  0.00    -0.036 C 
ATOM      2  H5  <0> d           1.944   1.671   0.882  0.00  0.00     0.037 H 
ATOM      3  H6  <0> d           1.927   1.681  -0.897  0.00  0.00     0.037 H 
ENDROOT
BRANCH   1   4
ATOM      4  C2  <0> d           1.396   3.562   0.008  0.00  0.00     0.032 C 
ATOM      5  H1  <0> d           0.810   3.913   0.857  0.00  0.00     0.082 H 
BRANCH   4   6
ATOM      6  C1  <0> d           2.827   4.091   0.123  0.00  0.00    -0.052 C 
ATOM      7  H2  <0> d           2.813   5.181   0.129  0.00  0.00     0.030 H 
ATOM      8  H3  <0> d           3.275   3.729   1.048  0.00  0.00     0.030 H 
ATOM      9  H4  <0> d           3.414   3.740  -0.727  0.00  0.00     0.030 H 
ENDBRANCH   4   6
BRANCH   4  10
ATOM     10  O2  <0> d           0.809   4.037  -1.205  0.00  0.00    -0.396 OA
ATOM     11  H12 <0> d           0.763   5.001  -1.269  0.00  0.00     0.210 HD
ENDBRANCH   4  10
ENDBRANCH   1   4
BRANCH   1  12
ATOM     12  C4  <0> d          -0.018   1.503   0.010  0.00  0.00    -0.018 C 
ATOM     13  H7  <0> d          -0.545   1.864  -0.873  0.00  0.00     0.043 H 
ATOM     14  H8  <0> d          -0.529   1.854   0.907  0.00  0.00     0.043 H 
BRANCH  12  15
ATOM     15  C5  <0> d           0.002  -0.004   0.002  0.00  0.00     0.052 A 
ATOM     16  O1  <0> d          -0.004  -0.784  -1.092  0.00  0.00    -0.327 OA
ATOM     17  C8  <0> d           0.023  -2.074  -0.722  0.00  0.00     0.019 A 
ATOM     18  C7  <0> d           0.037  -2.131   0.622  0.00  0.00    -0.059 A 
ATOM     19  H11 <0> d           0.028  -2.923  -1.390  0.00  0.00     0.123 H 
ATOM     20  C6  <0> d           0.023  -0.796   1.089  0.00  0.00    -0.052 A 
ATOM     21  H10 <0> d           0.055  -3.025   1.229  0.00  0.00     0.086 H 
ATOM     22  H9  <0> d           0.029  -0.475   2.120  0.00  0.00     0.087 H 
ENDBRANCH  12  15
ENDBRANCH   1  12
TORSDOF 5
