REMARK  4 active torsions:
REMARK  status: ('A' for Active; 'I' for Inactive)
REMARK    1  A    between atoms: C1_1  and  C2_2 
REMARK    2  A    between atoms: C2_2  and  C3_4 
REMARK    3  A    between atoms: C2_2  and  N1_8 
REMARK    4  A    between atoms: C3_4  and  C4_5 
ROOT
ATOM      1  C2  <0> d           0.002  -0.004   0.002  0.00  0.00     0.021 C 
ATOM      2  H1  <0> d          -1.020  -0.381   0.010  0.00  0.00     0.073 H 
ENDROOT
BRANCH   1   3
ATOM      3  C1  <0> d          -0.019   1.526   0.010  0.00  0.00    -0.056 C 
ATOM      4  H2  <0> d           1.004   1.903   0.003  0.00  0.00     0.030 H 
ATOM      5  H3  <0> d          -0.546   1.887  -0.873  0.00  0.00     0.030 H 
ATOM      6  H4  <0> d          -0.529   1.877   0.907  0.00  0.00     0.030 H 
ENDBRANCH   1   3
BRANCH   1   7
ATOM      7  C3  <0> d           0.742  -0.511   1.242  0.00  0.00     0.034 C 
ATOM      8  H5  <0> d           0.835  -1.596   1.191  0.00  0.00     0.052 H 
ATOM      9  H6  <0> d           1.735  -0.063   1.280  0.00  0.00     0.052 H 
BRANCH   7  10
ATOM     10  C4  <0> d          -0.030  -0.130   2.478  0.00  0.00     0.174 C 
ATOM     11  O1  <0> d          -1.075   0.490   2.378  0.00  0.00    -0.648 OA
ATOM     12  O2  <0> d           0.391  -0.441   3.580  0.00  0.00    -0.648 OA
ENDBRANCH   7  10
ENDBRANCH   1   7
BRANCH   1  13
ATOM     13  N1  <0> d           0.688  -0.476  -1.203  0.00  0.00    -0.362 N 
ATOM     14  C8  <0> d           0.140  -1.266  -2.171  0.00  0.00    -0.020 A 
ATOM     15  C7  <0> d           1.076  -1.484  -3.117  0.00  0.00    -0.067 A 
ATOM     16  H10 <0> d          -0.869  -1.649  -2.179  0.00  0.00     0.111 H 
ATOM     17  C6  <0> d           2.247  -0.812  -2.714  0.00  0.00    -0.067 A 
ATOM     18  H9  <0> d           0.952  -2.069  -4.016  0.00  0.00     0.085 H 
ATOM     19  C5  <0> d           1.981  -0.204  -1.540  0.00  0.00    -0.020 A 
ATOM     20  H8  <0> d           3.186  -0.788  -3.247  0.00  0.00     0.085 H 
ATOM     21  H7  <0> d           2.672   0.395  -0.966  0.00  0.00     0.111 H 
ENDBRANCH   1  13
TORSDOF 4
