REMARK  4 active torsions:
REMARK  status: ('A' for Active; 'I' for Inactive)
REMARK    1  A    between atoms: C1_1  and  N1_2 
REMARK    2  A    between atoms: N1_2  and  C2_3 
REMARK       I    between atoms: N1_2  and  C3_4 
REMARK    3  A    between atoms: C3_4  and  C4_6 
REMARK    4  A    between atoms: C4_6  and  N2_7 
ROOT
ATOM      1  N1  <0> d           1.143   1.898   0.001  0.00  0.00    -0.359 N 
ATOM      2  C3  <0> d          -0.014   1.209   0.009  0.00  0.00     0.237 C 
ATOM      3  O1  <0> d           0.002  -0.004   0.002  0.00  0.00    -0.272 OA
ENDROOT
BRANCH   2   4
ATOM      4  C4  <0> d          -1.330   1.944   0.019  0.00  0.00     0.074 C 
ATOM      5  H7  <0> d          -1.392   2.565   0.913  0.00  0.00     0.079 H 
ATOM      6  H8  <0> d          -1.400   2.575  -0.867  0.00  0.00     0.079 H 
BRANCH   4   7
ATOM      7  N2  <0> d          -2.430   0.977   0.019  0.00  0.00    -0.341 N 
ATOM      8  C7  <0> d          -3.027   0.443   1.106  0.00  0.00     0.066 A 
ATOM      9  N3  <0> d          -3.963  -0.376   0.709  0.00  0.00    -0.255 NA
ATOM     10  H11 <0> d          -2.772   0.657   2.133  0.00  0.00     0.143 H 
ATOM     11  C6  <0> d          -3.996  -0.393  -0.632  0.00  0.00     0.018 A 
ATOM     12  C5  <0> d          -3.049   0.451  -1.083  0.00  0.00    -0.002 A 
ATOM     13  H10 <0> d          -4.668  -0.978  -1.242  0.00  0.00     0.117 H 
ATOM     14  H9  <0> d          -2.820   0.669  -2.115  0.00  0.00     0.113 H 
ENDBRANCH   4   7
ENDBRANCH   2   4
BRANCH   1  15
ATOM     15  C1  <0> d           2.422   1.183  -0.015  0.00  0.00    -0.017 C 
ATOM     16  H1  <0> d           2.729   1.011  -1.046  0.00  0.00     0.056 H 
ATOM     17  H2  <0> d           3.179   1.780   0.495  0.00  0.00     0.056 H 
ATOM     18  H3  <0> d           2.309   0.226   0.495  0.00  0.00     0.056 H 
ENDBRANCH   1  15
BRANCH   1  19
ATOM     19  C2  <0> d           1.124   3.363   0.009  0.00  0.00    -0.017 C 
ATOM     20  H4  <0> d           0.614   3.715   0.906  0.00  0.00     0.056 H 
ATOM     21  H5  <0> d           2.146   3.740   0.002  0.00  0.00     0.056 H 
ATOM     22  H6  <0> d           0.597   3.724  -0.874  0.00  0.00     0.056 H 
ENDBRANCH   1  19
TORSDOF 4
