REMARK  3 active torsions:
REMARK  status: ('A' for Active; 'I' for Inactive)
REMARK    1  A    between atoms: C1_1  and  O1_2 
REMARK    2  A    between atoms: O1_2  and  C2_3 
REMARK    3  A    between atoms: C5_7  and  N3_11 
ROOT
ATOM      1  C2  <0> d           0.605  -0.606  -1.054  0.00  0.00     0.108 A 
ATOM      2  C3  <0> d           1.175   0.151  -2.066  0.00  0.00     0.035 A 
ATOM      3  N1  <0> d           1.763  -0.423  -3.096  0.00  0.00    -0.268 NA
ATOM      4  C4  <0> d           1.842  -1.732  -3.220  0.00  0.00     0.029 A 
ATOM      5  C5  <0> d           1.300  -2.575  -2.258  0.00  0.00     0.067 A 
ATOM      6  C6  <0> d           0.667  -2.007  -1.137  0.00  0.00     0.106 A 
ATOM      7  C7  <0> d           0.097  -2.833  -0.115  0.00  0.00     0.104 C 
ATOM      8  N2  <0> d          -0.354  -3.488   0.696  0.00  0.00    -0.191 NA
ATOM      9  H4  <0> d           1.136   1.229  -2.009  0.00  0.00     0.119 H 
ATOM     10  H5  <0> d           2.334  -2.156  -4.083  0.00  0.00     0.118 H 
ENDROOT
BRANCH   1  11
ATOM     11  O1  <0> d           0.002  -0.004   0.002  0.00  0.00    -0.353 OA
BRANCH  11  12
ATOM     12  C1  <0> d          -0.017   1.425   0.010  0.00  0.00     0.010 C 
ATOM     13  H1  <0> d           1.005   1.802   0.002  0.00  0.00     0.066 H 
ATOM     14  H2  <0> d          -0.544   1.786  -0.873  0.00  0.00     0.066 H 
ATOM     15  H3  <0> d          -0.527   1.776   0.907  0.00  0.00     0.066 H 
ENDBRANCH  11  12
ENDBRANCH   1  11
BRANCH   5  16
ATOM     16  N3  <0> d           1.387  -3.956  -2.398  0.00  0.00    -0.397 N 
ATOM     17  H6  <0> d           1.829  -4.338  -3.172  0.00  0.00     0.156 HD
ATOM     18  H7  <0> d           1.006  -4.537  -1.721  0.00  0.00     0.156 HD
ENDBRANCH   5  16
TORSDOF 3
