REMARK  1 active torsions:
REMARK  status: ('A' for Active; 'I' for Inactive)
REMARK    1  A    between atoms: C3_4  and  C4_6 
ROOT
ATOM      1  C1  <0> d          -0.817   1.625   1.216  0.00  0.00     0.038 C 
ATOM      2  C2  <0> d          -0.013   1.086   0.008  0.00  0.00     0.044 C 
ATOM      3  O1  <0> d          -0.783   1.600  -1.098  0.00  0.00    -0.330 OA
ATOM      4  C3  <0> d          -1.446   2.692  -0.662  0.00  0.00     0.213 C 
ATOM      5  N1  <0> d          -1.518   2.782   0.626  0.00  0.00    -0.261 NA
ATOM      6  H1  <0> d          -1.528   0.880   1.574  0.00  0.00     0.070 H 
ATOM      7  H2  <0> d          -0.150   1.940   2.018  0.00  0.00     0.070 H 
ATOM      8  H3  <0> d           0.002  -0.004   0.002  0.00  0.00     0.077 H 
ATOM      9  H4  <0> d           1.000   1.489   0.001  0.00  0.00     0.077 H 
ENDROOT
BRANCH   4  10
ATOM     10  C4  <0> d          -2.040   3.697  -1.579  0.00  0.00     0.213 C 
ATOM     11  O2  <0> d          -2.708   4.786  -1.143  0.00  0.00    -0.330 OA
ATOM     12  C6  <0> d          -2.775   5.724  -2.240  0.00  0.00     0.044 C 
ATOM     13  C5  <0> d          -2.652   4.774  -3.457  0.00  0.00     0.038 C 
ATOM     14  H7  <0> d          -1.945   6.429  -2.208  0.00  0.00     0.077 H 
ATOM     15  H8  <0> d          -3.731   6.247  -2.247  0.00  0.00     0.077 H 
ATOM     16  N2  <0> d          -1.968   3.607  -2.867  0.00  0.00    -0.261 NA
ATOM     17  H5  <0> d          -2.045   5.225  -4.242  0.00  0.00     0.070 H 
ATOM     18  H6  <0> d          -3.635   4.498  -3.837  0.00  0.00     0.070 H 
ENDBRANCH   4  10
TORSDOF 1
