REMARK  3 active torsions:
REMARK  status: ('A' for Active; 'I' for Inactive)
REMARK    1  A    between atoms: C1_1  and  C2_2 
REMARK    2  A    between atoms: C2_2  and  C3_4 
REMARK    3  A    between atoms: C2_2  and  N1_6 
ROOT
ATOM      1  N1  <0> d          -1.508   2.817   0.727  0.00  0.00    -0.338 N 
ATOM      2  C4  <0> d          -0.811   1.621   1.217  0.00  0.00    -0.001 C 
ATOM      3  C5  <0> d          -0.013   1.086   0.008  0.00  0.00    -0.042 C 
ATOM      4  C6  <0> d          -0.835   1.635  -1.181  0.00  0.00     0.011 C 
ATOM      5  C7  <0> d          -1.541   2.847  -0.616  0.00  0.00     0.220 C 
ATOM      6  O2  <0> d          -2.060   3.720  -1.279  0.00  0.00    -0.273 OA
ATOM      7  H5  <0> d          -1.532   0.876   1.554  0.00  0.00     0.064 H 
ATOM      8  H6  <0> d          -0.133   1.885   2.030  0.00  0.00     0.064 H 
ATOM      9  H7  <0> d           0.002  -0.004   0.002  0.00  0.00     0.036 H 
ATOM     10  H8  <0> d           1.000   1.488   0.001  0.00  0.00     0.036 H 
ATOM     11  H9  <0> d          -0.175   1.924  -2.000  0.00  0.00     0.047 H 
ATOM     12  H10 <0> d          -1.558   0.893  -1.520  0.00  0.00     0.047 H 
ENDROOT
BRANCH   1  13
ATOM     13  C2  <0> d          -2.092   3.845   1.592  0.00  0.00     0.095 C 
ATOM     14  H1  <0> d          -1.927   3.579   2.636  0.00  0.00     0.089 H 
BRANCH  13  15
ATOM     15  C1  <0> d          -3.595   3.944   1.323  0.00  0.00    -0.048 C 
ATOM     16  H2  <0> d          -4.030   4.709   1.966  0.00  0.00     0.030 H 
ATOM     17  H3  <0> d          -3.761   4.210   0.279  0.00  0.00     0.030 H 
ATOM     18  H4  <0> d          -4.066   2.983   1.532  0.00  0.00     0.030 H 
ENDBRANCH  13  15
BRANCH  13  19
ATOM     19  C3  <0> d          -1.442   5.174   1.303  0.00  0.00     0.196 C 
ATOM     20  O1  <0> d          -0.579   5.253   0.461  0.00  0.00    -0.646 OA
ATOM     21  O3  <0> d          -1.822   6.268   1.980  0.00  0.00    -0.646 OA
ENDBRANCH  13  19
ENDBRANCH   1  13
TORSDOF 3
