REMARK  9 active torsions:
REMARK  status: ('A' for Active; 'I' for Inactive)
REMARK    1  A    between atoms: C1_1  and  C2_2 
REMARK    2  A    between atoms: C2_2  and  C3_3 
REMARK    3  A    between atoms: C2_2  and  C8_8 
REMARK    4  A    between atoms: C2_2  and  O2_10 
REMARK    5  A    between atoms: C3_3  and  C4_4 
REMARK    6  A    between atoms: C4_4  and  C5_5 
REMARK    7  A    between atoms: C4_4  and  C6_6 
REMARK    8  A    between atoms: C4_4  and  C7_7 
REMARK    9  A    between atoms: C8_8  and  O1_9 
ROOT
ATOM      1  C3  <0> d           0.914  -0.541   0.819  0.00  0.00    -0.029 C 
ATOM      2  H4  <0> d           0.072  -0.099   1.352  0.00  0.00     0.038 H 
ATOM      3  H5  <0> d           1.016  -1.588   1.105  0.00  0.00     0.038 H 
ENDROOT
BRANCH   1   4
ATOM      4  C2  <0> d           0.670  -0.446  -0.688  0.00  0.00     0.076 C 
BRANCH   4   5
ATOM      5  C1  <0> d           0.609   1.026  -1.103  0.00  0.00    -0.046 C 
ATOM      6  H1  <0> d           1.601   1.468  -1.020  0.00  0.00     0.031 H 
ATOM      7  H2  <0> d           0.263   1.098  -2.134  0.00  0.00     0.031 H 
ATOM      8  H3  <0> d          -0.082   1.559  -0.450  0.00  0.00     0.031 H 
ENDBRANCH   4   5
BRANCH   4   9
ATOM      9  C8  <0> d          -0.654  -1.129  -1.035  0.00  0.00     0.045 C 
ATOM     10  H15 <0> d          -0.610  -2.178  -0.740  0.00  0.00     0.078 H 
ATOM     11  H16 <0> d          -1.468  -0.636  -0.504  0.00  0.00     0.078 H 
BRANCH   9  12
ATOM     12  O1  <0> d          -0.881  -1.040  -2.443  0.00  0.00    -0.398 OA
ATOM     13  H17 <0> d          -1.705  -1.454  -2.735  0.00  0.00     0.209 HD
ENDBRANCH   9  12
ENDBRANCH   4   9
BRANCH   4  14
ATOM     14  O2  <0> d           1.737  -1.093  -1.385  0.00  0.00    -0.388 OA
ATOM     15  H18 <0> d           1.835  -2.030  -1.171  0.00  0.00     0.210 HD
ENDBRANCH   4  14
ENDBRANCH   1   4
BRANCH   1  16
ATOM     16  C4  <0> d           2.196   0.213   1.177  0.00  0.00    -0.049 C 
BRANCH  16  17
ATOM     17  C5  <0> d           1.904   1.714   1.242  0.00  0.00    -0.070 C 
ATOM     18  H6  <0> d           1.341   1.935   2.149  0.00  0.00     0.028 H 
ATOM     19  H7  <0> d           2.843   2.267   1.254  0.00  0.00     0.028 H 
ATOM     20  H8  <0> d           1.320   2.008   0.370  0.00  0.00     0.028 H 
ENDBRANCH  16  17
BRANCH  16  21
ATOM     21  C6  <0> d           2.707  -0.266   2.537  0.00  0.00    -0.070 C 
ATOM     22  H9  <0> d           2.915  -1.335   2.491  0.00  0.00     0.028 H 
ATOM     23  H10 <0> d           3.620   0.271   2.792  0.00  0.00     0.028 H 
ATOM     24  H11 <0> d           1.949  -0.076   3.298  0.00  0.00     0.028 H 
ENDBRANCH  16  21
BRANCH  16  25
ATOM     25  C7  <0> d           3.260  -0.053   0.110  0.00  0.00    -0.070 C 
ATOM     26  H12 <0> d           2.998   0.480  -0.804  0.00  0.00     0.028 H 
ATOM     27  H13 <0> d           4.229   0.293   0.468  0.00  0.00     0.028 H 
ATOM     28  H14 <0> d           3.309  -1.123  -0.094  0.00  0.00     0.028 H 
ENDBRANCH  16  25
ENDBRANCH   1  16
TORSDOF 9
