REMARK  2 active torsions:
REMARK  status: ('A' for Active; 'I' for Inactive)
REMARK    1  A    between atoms: C1_1  and  C2_2 
REMARK    2  A    between atoms: C4_5  and  N1_10 
ROOT
ATOM      1  C2  <0> d           0.002  -0.004   0.002  0.00  0.00     0.047 C 
ATOM      2  H1  <0> d           0.519  -0.377  -0.882  0.00  0.00     0.083 H 
ATOM      3  C3  <0> d          -1.440  -0.575   0.077  0.00  0.00    -0.003 C 
ATOM      4  C4  <0> d          -1.172  -1.948   0.744  0.00  0.00     0.215 C 
ATOM      5  H2  <0> d          -1.928  -2.159   1.501  0.00  0.00     0.104 H 
ATOM      6  C5  <0> d           0.192  -1.783   1.387  0.00  0.00     0.292 C 
ATOM      7  O1  <0> d           0.805  -2.649   1.965  0.00  0.00    -0.263 OA
ATOM      8  O2  <0> d           0.613  -0.514   1.206  0.00  0.00    -0.315 OA
ATOM      9  H6  <0> d          -2.078   0.049   0.704  0.00  0.00     0.040 H 
ATOM     10  H7  <0> d          -1.867  -0.697  -0.918  0.00  0.00     0.040 H 
ENDROOT
BRANCH   1  11
ATOM     11  C1  <0> d          -0.019   1.526   0.010  0.00  0.00    -0.051 C 
ATOM     12  H3  <0> d           1.004   1.903   0.003  0.00  0.00     0.030 H 
ATOM     13  H4  <0> d          -0.546   1.887  -0.873  0.00  0.00     0.030 H 
ATOM     14  H5  <0> d          -0.529   1.877   0.907  0.00  0.00     0.030 H 
ENDBRANCH   1  11
BRANCH   4  15
ATOM     15  N1  <0> d          -1.144  -3.014  -0.266  0.00  0.00     0.092 N 
ATOM     16  H8  <0> d          -0.970  -3.912   0.161  0.00  0.00     0.313 HD
ATOM     17  H9  <0> d          -1.999  -3.028  -0.801  0.00  0.00     0.313 HD
ENDBRANCH   4  15
TORSDOF 2
