REMARK  1 active torsions:
REMARK  status: ('A' for Active; 'I' for Inactive)
REMARK    1  A    between atoms: C1_1  and  C2_2 
ROOT
ATOM      1  C2  <0> d           1.579   3.162   0.005  0.00  0.00    -0.015 A 
ATOM      2  C3  <0> d           0.555   4.058   0.020  0.00  0.00    -0.072 A 
ATOM      3  C4  <0> d          -0.772   3.598   0.030  0.00  0.00    -0.067 A 
ATOM      4  C5  <0> d          -1.034   2.274   0.029  0.00  0.00    -0.014 A 
ATOM      5  N1  <0> d          -0.017   1.364   0.009  0.00  0.00    -0.316 N 
ATOM      6  C6  <0> d           1.289   1.783  -0.001  0.00  0.00     0.139 A 
ATOM      7  N2  <0> d           2.064   0.708  -0.014  0.00  0.00    -0.241 NA
ATOM      8  C7  <0> d           1.298  -0.386  -0.012  0.00  0.00     0.020 A 
ATOM      9  C8  <0> d           0.002  -0.004   0.002  0.00  0.00     0.003 A 
ATOM     10  H4  <0> d           0.762   5.118   0.024  0.00  0.00     0.084 H 
ATOM     11  H5  <0> d          -1.587   4.306   0.042  0.00  0.00     0.085 H 
ATOM     12  H6  <0> d          -2.058   1.931   0.042  0.00  0.00     0.112 H 
ATOM     13  H7  <0> d           1.655  -1.405  -0.022  0.00  0.00     0.117 H 
ATOM     14  H8  <0> d          -0.858  -0.657   0.006  0.00  0.00     0.114 H 
ENDROOT
BRANCH   1  15
ATOM     15  C1  <0> d           3.008   3.640  -0.006  0.00  0.00    -0.048 C 
ATOM     16  H1  <0> d           3.343   3.761  -1.036  0.00  0.00     0.033 H 
ATOM     17  H2  <0> d           3.075   4.596   0.513  0.00  0.00     0.033 H 
ATOM     18  H3  <0> d           3.639   2.908   0.498  0.00  0.00     0.033 H 
ENDBRANCH   1  15
TORSDOF 1
