REMARK  3 active torsions:
REMARK  status: ('A' for Active; 'I' for Inactive)
REMARK    1  A    between atoms: C1_1  and  C2_2 
REMARK    2  A    between atoms: C4_4  and  C8_9 
REMARK    3  A    between atoms: C7_7  and  O1_8 
ROOT
ATOM      1  C2  <0> d           1.169   3.176   0.007  0.00  0.00    -0.028 A 
ATOM      2  C3  <0> d          -0.029   3.855   0.023  0.00  0.00    -0.058 A 
ATOM      3  C4  <0> d          -1.232   3.145   0.031  0.00  0.00     0.041 A 
ATOM      4  C5  <0> d          -1.214   1.747   0.017  0.00  0.00    -0.064 A 
ATOM      5  C6  <0> d          -0.013   1.076   0.008  0.00  0.00    -0.050 A 
ATOM      6  C7  <0> d           1.183   1.786   0.000  0.00  0.00     0.071 A 
ATOM      7  H4  <0> d          -0.038   4.935   0.029  0.00  0.00     0.086 H 
ATOM      8  H5  <0> d          -2.142   1.194   0.018  0.00  0.00     0.085 H 
ATOM      9  H6  <0> d           0.002  -0.004   0.002  0.00  0.00     0.087 H 
ENDROOT
BRANCH   1  10
ATOM     10  C1  <0> d           2.468   3.941  -0.001  0.00  0.00    -0.049 C 
ATOM     11  H1  <0> d           2.771   4.131  -1.031  0.00  0.00     0.033 H 
ATOM     12  H2  <0> d           2.334   4.890   0.519  0.00  0.00     0.033 H 
ATOM     13  H3  <0> d           3.237   3.356   0.502  0.00  0.00     0.033 H 
ENDBRANCH   1  10
BRANCH   6  14
ATOM     14  O1  <0> d           2.365   1.121  -0.015  0.00  0.00    -0.360 OA
ATOM     15  H7  <0> d           2.699   0.933  -0.902  0.00  0.00     0.217 HD
ENDBRANCH   6  14
BRANCH   3  16
ATOM     16  C8  <0> d          -2.517   3.868   0.048  0.00  0.00     0.209 C 
ATOM     17  O2  <0> d          -2.531   5.083   0.054  0.00  0.00    -0.644 OA
ATOM     18  O3  <0> d          -3.677   3.181   0.056  0.00  0.00    -0.644 OA
ENDBRANCH   3  16
TORSDOF 3
