REMARK  5 active torsions:
REMARK  status: ('A' for Active; 'I' for Inactive)
REMARK    1  A    between atoms: C1_1  and  C2_2 
REMARK    2  A    between atoms: C2_2  and  O1_3 
REMARK    3  A    between atoms: O1_3  and  C3_4 
REMARK    4  A    between atoms: C3_4  and  C4_6 
REMARK    5  A    between atoms: C6_8  and  C7_11 
ROOT
ATOM      1  C4  <0> d          -1.101   1.905   0.017  0.00  0.00     0.178 A 
ATOM      2  C5  <0> d          -0.013   1.076   0.008  0.00  0.00    -0.017 A 
ATOM      3  C6  <0> d           1.087   1.962   0.002  0.00  0.00     0.061 A 
ATOM      4  N1  <0> d           0.595   3.166   0.013  0.00  0.00    -0.133 NA
ATOM      5  O3  <0> d          -0.614   3.161   0.025  0.00  0.00    -0.207 OA
ATOM      6  H6  <0> d           0.002  -0.004   0.002  0.00  0.00     0.091 H 
ENDROOT
BRANCH   1   7
ATOM      7  C3  <0> d          -2.520   1.505   0.020  0.00  0.00     0.319 C 
ATOM      8  O2  <0> d          -2.819   0.328   0.015  0.00  0.00    -0.257 OA
BRANCH   7   9
ATOM      9  O1  <0> d          -3.485   2.446   0.029  0.00  0.00    -0.316 OA
BRANCH   9  10
ATOM     10  C2  <0> d          -4.860   1.979   0.032  0.00  0.00     0.026 C 
ATOM     11  H4  <0> d          -5.037   1.365   0.928  0.00  0.00     0.074 H 
ATOM     12  H5  <0> d          -5.044   1.375  -0.869  0.00  0.00     0.074 H 
BRANCH  10  13
ATOM     13  C1  <0> d          -5.807   3.181   0.042  0.00  0.00    -0.056 C 
ATOM     14  H1  <0> d          -6.848   2.828   0.045  0.00  0.00     0.030 H 
ATOM     15  H2  <0> d          -5.630   3.795  -0.853  0.00  0.00     0.030 H 
ATOM     16  H3  <0> d          -5.622   3.785   0.943  0.00  0.00     0.030 H 
ENDBRANCH  10  13
ENDBRANCH   9  10
ENDBRANCH   7   9
ENDBRANCH   1   7
BRANCH   3  17
ATOM     17  C7  <0> d           2.547   1.586  -0.013  0.00  0.00    -0.033 C 
ATOM     18  H7  <0> d           3.160   2.499  -0.014  0.00  0.00     0.035 H 
ATOM     19  H8  <0> d           2.764   0.997  -0.916  0.00  0.00     0.035 H 
ATOM     20  H9  <0> d           2.781   0.988   0.880  0.00  0.00     0.035 H 
ENDBRANCH   3  17
TORSDOF 5
