REMARK  0 active torsions:
REMARK  status: ('A' for Active; 'I' for Inactive)
ROOT
ATOM      1  C1  <0> d          -0.013   1.086   0.008  0.00  0.00     0.085 A 
ATOM      2  C2  <0> d          -0.659   1.544   1.303  0.00  0.00     0.231 A 
ATOM      3  O1  <0> d          -0.209   1.225   2.382  0.00  0.00    -0.273 OA
ATOM      4  N1  <0> d          -1.755   2.322   1.205  0.00  0.00    -0.321 N 
ATOM      5  C3  <0> d          -2.263   2.678   0.002  0.00  0.00     0.070 A 
ATOM      6  N2  <0> d          -1.774   2.329  -1.150  0.00  0.00    -0.209 NA
ATOM      7  C4  <0> d          -0.683   1.557  -1.269  0.00  0.00     0.253 A 
ATOM      8  O2  <0> d          -0.249   1.246  -2.359  0.00  0.00    -0.271 OA
ATOM      9  H1  <0> d           0.002  -0.004   0.002  0.00  0.00     0.061 H 
ATOM     10  H2  <0> d           1.019   1.438   0.000  0.00  0.00     0.061 H 
ATOM     11  H3  <0> d          -2.191   2.633   2.014  0.00  0.00     0.169 HD
ATOM     12  H4  <0> d          -3.145   3.302  -0.000  0.00  0.00     0.143 H 
ENDROOT
TORSDOF 0
