REMARK  2 active torsions:
REMARK  status: ('A' for Active; 'I' for Inactive)
REMARK    1  A    between atoms: C4_4  and  C8_9 
REMARK    2  A    between atoms: C8_9  and  O1_10 
ROOT
ATOM      1  C1  <0> d          -0.017   1.393   0.010  0.00  0.00    -0.060 A 
ATOM      2  C2  <0> d           1.169   2.095   0.002  0.00  0.00    -0.044 A 
ATOM      3  C3  <0> d           2.379   1.419  -0.013  0.00  0.00     0.124 A 
ATOM      4  C4  <0> d           2.404   0.032  -0.022  0.00  0.00     0.005 A 
ATOM      5  C5  <0> d           1.224  -0.681  -0.014  0.00  0.00    -0.052 A 
ATOM      6  C6  <0> d           0.002  -0.004   0.002  0.00  0.00     0.045 A 
ATOM      7  C7  <0> d          -1.227  -0.740   0.010  0.00  0.00     0.099 C 
ATOM      8  N1  <0> d          -2.201  -1.323   0.017  0.00  0.00    -0.191 NA
ATOM      9  F1  <0> d           3.538   2.112  -0.021  0.00  0.00    -0.205 F 
ATOM     10  H1  <0> d          -0.959   1.921   0.026  0.00  0.00     0.086 H 
ATOM     11  H2  <0> d           1.156   3.175   0.008  0.00  0.00     0.088 H 
ATOM     12  H3  <0> d           1.245  -1.761  -0.021  0.00  0.00     0.086 H 
ENDROOT
BRANCH   4  13
ATOM     13  C8  <0> d           3.723  -0.696  -0.040  0.00  0.00     0.043 C 
ATOM     14  H4  <0> d           4.280  -0.417  -0.934  0.00  0.00     0.081 H 
ATOM     15  H5  <0> d           4.299  -0.427   0.846  0.00  0.00     0.081 H 
BRANCH  13  16
ATOM     16  O1  <0> d           3.489  -2.106  -0.045  0.00  0.00    -0.396 OA
ATOM     17  H6  <0> d           4.295  -2.639  -0.057  0.00  0.00     0.209 HD
ENDBRANCH  13  16
ENDBRANCH   4  13
TORSDOF 2
