REMARK  3 active torsions:
REMARK  status: ('A' for Active; 'I' for Inactive)
REMARK    1  A    between atoms: C1_1  and  C2_2 
REMARK    2  A    between atoms: C3_3  and  C7_8 
REMARK    3  A    between atoms: C7_8  and  O1_9 
ROOT
ATOM      1  C2  <0> d           0.033   3.795   0.021  0.00  0.00     0.038 A 
ATOM      2  C3  <0> d          -1.188   3.147   0.029  0.00  0.00    -0.011 A 
ATOM      3  C4  <0> d          -1.218   1.762   0.017  0.00  0.00    -0.071 A 
ATOM      4  C5  <0> d          -0.013   1.076   0.008  0.00  0.00    -0.065 A 
ATOM      5  C6  <0> d           1.169   1.792   0.001  0.00  0.00     0.003 A 
ATOM      6  N1  <0> d           1.159   3.110   0.007  0.00  0.00    -0.265 NA
ATOM      7  H4  <0> d          -2.157   1.229   0.019  0.00  0.00     0.084 H 
ATOM      8  H5  <0> d           0.002  -0.004   0.002  0.00  0.00     0.085 H 
ATOM      9  H6  <0> d           2.112   1.265  -0.011  0.00  0.00     0.114 H 
ENDROOT
BRANCH   2  10
ATOM     10  C7  <0> d          -2.471   3.938   0.045  0.00  0.00     0.042 C 
ATOM     11  H7  <0> d          -2.503   4.562   0.938  0.00  0.00     0.081 H 
ATOM     12  H8  <0> d          -2.519   4.570  -0.842  0.00  0.00     0.081 H 
BRANCH  10  13
ATOM     13  O1  <0> d          -3.583   3.041   0.051  0.00  0.00    -0.396 OA
ATOM     14  H9  <0> d          -4.444   3.481   0.061  0.00  0.00     0.209 HD
ENDBRANCH  10  13
ENDBRANCH   2  10
BRANCH   1  15
ATOM     15  C1  <0> d           0.077   5.302   0.027  0.00  0.00    -0.035 C 
ATOM     16  H1  <0> d           0.078   5.669  -0.999  0.00  0.00     0.035 H 
ATOM     17  H2  <0> d          -0.797   5.689   0.551  0.00  0.00     0.035 H 
ATOM     18  H3  <0> d           0.982   5.636   0.533  0.00  0.00     0.035 H 
ENDBRANCH   1  15
TORSDOF 3
