REMARK  5 active torsions:
REMARK  status: ('A' for Active; 'I' for Inactive)
REMARK    1  A    between atoms: C1_1  and  C2_2 
REMARK    2  A    between atoms: C2_2  and  C3_3 
REMARK    3  A    between atoms: C3_3  and  C4_4 
REMARK    4  A    between atoms: C4_4  and  C5_5 
REMARK    5  A    between atoms: C7_10  and  C8_11 
ROOT
ATOM      1  C4  <0> d           0.739  -2.027  -1.265  0.00  0.00    -0.023 C 
ATOM      2  H8  <0> d           1.266  -2.388  -0.382  0.00  0.00     0.042 H 
ATOM      3  H9  <0> d          -0.284  -2.405  -1.258  0.00  0.00     0.042 H 
ENDROOT
BRANCH   1   4
ATOM      4  C3  <0> d           0.718  -0.497  -1.257  0.00  0.00    -0.060 C 
ATOM      5  H6  <0> d           0.191  -0.136  -2.140  0.00  0.00     0.033 H 
ATOM      6  H7  <0> d           1.741  -0.120  -1.264  0.00  0.00     0.033 H 
BRANCH   4   7
ATOM      7  C2  <0> d           0.002  -0.004   0.002  0.00  0.00    -0.068 C 
ATOM      8  H4  <0> d           0.529  -0.365   0.885  0.00  0.00     0.032 H 
ATOM      9  H5  <0> d          -1.020  -0.381   0.010  0.00  0.00     0.032 H 
BRANCH   7  10
ATOM     10  C1  <0> d          -0.019   1.526   0.010  0.00  0.00    -0.077 C 
ATOM     11  H1  <0> d           1.004   1.903   0.003  0.00  0.00     0.027 H 
ATOM     12  H2  <0> d          -0.546   1.887  -0.873  0.00  0.00     0.027 H 
ATOM     13  H3  <0> d          -0.529   1.877   0.907  0.00  0.00     0.027 H 
ENDBRANCH   7  10
ENDBRANCH   4   7
ENDBRANCH   1   4
BRANCH   1  14
ATOM     14  C5  <0> d           1.444  -2.513  -2.505  0.00  0.00     0.064 A 
ATOM     15  C7  <0> d           1.684  -3.929  -2.904  0.00  0.00     0.061 A 
ATOM     16  N2  <0> d           2.321  -3.881  -4.038  0.00  0.00    -0.196 NA
ATOM     17  C6  <0> d           2.505  -2.592  -4.374  0.00  0.00     0.368 A 
ATOM     18  N1  <0> d           1.973  -1.782  -3.443  0.00  0.00    -0.195 NA
ATOM     19  O1  <0> d           3.073  -2.214  -5.376  0.00  0.00    -0.243 OA
BRANCH  15  20
ATOM     20  C8  <0> d           1.271  -5.166  -2.148  0.00  0.00    -0.033 C 
ATOM     21  H10 <0> d           0.276  -5.474  -2.471  0.00  0.00     0.035 H 
ATOM     22  H11 <0> d           1.982  -5.968  -2.347  0.00  0.00     0.035 H 
ATOM     23  H12 <0> d           1.256  -4.951  -1.080  0.00  0.00     0.035 H 
ENDBRANCH  15  20
ENDBRANCH   1  14
TORSDOF 5
