REMARK  5 active torsions:
REMARK  status: ('A' for Active; 'I' for Inactive)
REMARK    1  A    between atoms: C1_1  and  C2_2 
REMARK    2  A    between atoms: C2_2  and  C3_3 
REMARK    3  A    between atoms: C2_2  and  C4_4 
REMARK    4  A    between atoms: C2_2  and  C5_6 
REMARK    5  A    between atoms: C4_4  and  O1_5 
ROOT
ATOM      1  C2  <0> d          -0.729   1.579   1.267  0.00  0.00     0.001 C 
ENDROOT
BRANCH   1   2
ATOM      2  C1  <0> d          -0.750   3.109   1.275  0.00  0.00    -0.063 C 
ATOM      3  H1  <0> d          -1.277   3.470   0.392  0.00  0.00     0.029 H 
ATOM      4  H2  <0> d          -1.260   3.461   2.172  0.00  0.00     0.029 H 
ATOM      5  H3  <0> d           0.273   3.486   1.268  0.00  0.00     0.029 H 
ENDBRANCH   1   2
BRANCH   1   6
ATOM      6  C3  <0> d          -2.164   1.050   1.278  0.00  0.00    -0.063 C 
ATOM      7  H4  <0> d          -2.149  -0.040   1.272  0.00  0.00     0.029 H 
ATOM      8  H5  <0> d          -2.674   1.401   2.175  0.00  0.00     0.029 H 
ATOM      9  H6  <0> d          -2.691   1.411   0.395  0.00  0.00     0.029 H 
ENDBRANCH   1   6
BRANCH   1  10
ATOM     10  C4  <0> d          -0.013   1.086   0.008  0.00  0.00     0.027 C 
ATOM     11  H7  <0> d           0.002  -0.004   0.002  0.00  0.00     0.075 H 
ATOM     12  H8  <0> d           1.010   1.463   0.000  0.00  0.00     0.075 H 
BRANCH  10  13
ATOM     13  O1  <0> d          -0.704   1.559  -1.150  0.00  0.00    -0.400 OA
ATOM     14  H9  <0> d          -0.304   1.284  -1.986  0.00  0.00     0.209 HD
ENDBRANCH  10  13
ENDBRANCH   1  10
BRANCH   1  15
ATOM     15  C5  <0> d           0.000   1.080   2.488  0.00  0.00    -0.048 A 
ATOM     16  C10 <0> d          -0.465   1.401   3.749  0.00  0.00    -0.076 A 
ATOM     17  C9  <0> d           0.204   0.943   4.869  0.00  0.00    -0.082 A 
ATOM     18  H14 <0> d          -1.350   2.009   3.860  0.00  0.00     0.084 H 
ATOM     19  C8  <0> d           1.337   0.164   4.728  0.00  0.00    -0.083 A 
ATOM     20  H13 <0> d          -0.160   1.193   5.855  0.00  0.00     0.083 H 
ATOM     21  C7  <0> d           1.802  -0.157   3.466  0.00  0.00    -0.082 A 
ATOM     22  H12 <0> d           1.859  -0.194   5.603  0.00  0.00     0.083 H 
ATOM     23  C6  <0> d           1.130   0.297   2.346  0.00  0.00    -0.076 A 
ATOM     24  H11 <0> d           2.687  -0.766   3.355  0.00  0.00     0.083 H 
ATOM     25  H10 <0> d           1.491   0.042   1.360  0.00  0.00     0.084 H 
ENDBRANCH   1  15
TORSDOF 5
