REMARK  3 active torsions:
REMARK  status: ('A' for Active; 'I' for Inactive)
REMARK    1  A    between atoms: C1_1  and  O1_2 
REMARK    2  A    between atoms: O1_2  and  C2_3 
REMARK    3  A    between atoms: C6_7  and  C7_9 
ROOT
ATOM      1  C7  <0> d          -4.742   0.356   0.038  0.00  0.00     0.054 C 
ATOM      2  C8  <0> d          -4.685   1.288   1.176  0.00  0.00     0.065 C 
ATOM      3  N2  <0> d          -4.641   2.008   2.054  0.00  0.00    -0.197 NA
ATOM      4  H7  <0> d          -4.801   0.921  -0.892  0.00  0.00     0.064 H 
ATOM      5  H8  <0> d          -5.621  -0.281   0.134  0.00  0.00     0.064 H 
ENDROOT
BRANCH   1   6
ATOM      6  C6  <0> d          -3.501  -0.500   0.028  0.00  0.00     0.050 A 
ATOM      7  C5  <0> d          -3.622  -1.875   0.027  0.00  0.00    -0.058 A 
ATOM      8  C4  <0> d          -2.475  -2.658   0.018  0.00  0.00    -0.077 A 
ATOM      9  H6  <0> d          -4.598  -2.337   0.034  0.00  0.00     0.086 H 
ATOM     10  C3  <0> d          -1.244  -2.025   0.009  0.00  0.00    -0.032 A 
ATOM     11  H5  <0> d          -2.542  -3.735   0.017  0.00  0.00     0.083 H 
ATOM     12  C2  <0> d          -1.198  -0.636   0.010  0.00  0.00     0.164 A 
ATOM     13  H4  <0> d          -0.332  -2.603   0.001  0.00  0.00     0.090 H 
ATOM     14  N1  <0> d          -2.313   0.075   0.025  0.00  0.00    -0.229 NA
BRANCH  12  15
ATOM     15  O1  <0> d           0.002  -0.004   0.002  0.00  0.00    -0.339 OA
BRANCH  15  16
ATOM     16  C1  <0> d          -0.017   1.425   0.010  0.00  0.00     0.012 C 
ATOM     17  H1  <0> d           1.005   1.802   0.002  0.00  0.00     0.067 H 
ATOM     18  H2  <0> d          -0.544   1.786  -0.873  0.00  0.00     0.067 H 
ATOM     19  H3  <0> d          -0.527   1.776   0.907  0.00  0.00     0.067 H 
ENDBRANCH  15  16
ENDBRANCH  12  15
ENDBRANCH   1   6
TORSDOF 3
