REMARK  5 active torsions:
REMARK  status: ('A' for Active; 'I' for Inactive)
REMARK    1  A    between atoms: C1_1  and  N1_2 
REMARK    2  A    between atoms: N1_2  and  C2_3 
REMARK    3  A    between atoms: N1_2  and  C3_4 
REMARK    4  A    between atoms: C4_6  and  N5_11 
REMARK    5  A    between atoms: C6_8  and  N4_10 
ROOT
ATOM      1  C3  <0> d           0.002  -0.004   0.002  0.00  0.00     0.727 A 
ATOM      2  N2  <0> d          -0.016   1.320   0.009  0.00  0.00    -0.045 NA
ATOM      3  C4  <0> d           1.118   2.017   0.002  0.00  0.00     0.144 A 
ATOM      4  C5  <0> d           2.332   1.336  -0.013  0.00  0.00     0.006 A 
ATOM      5  C6  <0> d           2.311  -0.055  -0.020  0.00  0.00     0.144 A 
ATOM      6  N3  <0> d           1.138  -0.685  -0.012  0.00  0.00    -0.045 NA
ATOM      7  H7  <0> d           3.268   1.875  -0.019  0.00  0.00     0.095 H 
ENDROOT
BRANCH   1   8
ATOM      8  N1  <0> d          -1.197  -0.694   0.010  0.00  0.00    -0.223 N 
BRANCH   8   9
ATOM      9  C1  <0> d          -2.465   0.040   0.026  0.00  0.00    -0.003 C 
ATOM     10  H1  <0> d          -2.789   0.228  -0.998  0.00  0.00     0.057 H 
ATOM     11  H2  <0> d          -3.220  -0.551   0.544  0.00  0.00     0.057 H 
ATOM     12  H3  <0> d          -2.328   0.990   0.543  0.00  0.00     0.057 H 
ENDBRANCH   8   9
BRANCH   8  13
ATOM     13  C2  <0> d          -1.200  -2.159   0.002  0.00  0.00    -0.003 C 
ATOM     14  H4  <0> d          -0.172  -2.524  -0.010  0.00  0.00     0.057 H 
ATOM     15  H5  <0> d          -1.705  -2.527   0.895  0.00  0.00     0.057 H 
ATOM     16  H6  <0> d          -1.722  -2.517  -0.885  0.00  0.00     0.057 H 
ENDBRANCH   8  13
ENDBRANCH   1   8
BRANCH   5  17
ATOM     17  N4  <0> d           3.495  -0.775  -0.034  0.00  0.00    -0.383 N 
ATOM     18  H8  <0> d           3.472  -1.745  -0.038  0.00  0.00     0.157 HD
ATOM     19  H9  <0> d           4.346  -0.310  -0.040  0.00  0.00     0.157 HD
ENDBRANCH   5  17
BRANCH   3  20
ATOM     20  N5  <0> d           1.090   3.403   0.009  0.00  0.00    -0.383 N 
ATOM     21  H10 <0> d           0.241   3.871   0.020  0.00  0.00     0.157 HD
ATOM     22  H11 <0> d           1.921   3.905   0.004  0.00  0.00     0.157 HD
ENDBRANCH   3  20
TORSDOF 5
