REMARK  3 active torsions:
REMARK  status: ('A' for Active; 'I' for Inactive)
REMARK    1  A    between atoms: C1_1  and  C2_2 
REMARK    2  A    between atoms: C3_3  and  C9_11 
REMARK    3  A    between atoms: C5_5  and  C8_9 
ROOT
ATOM      1  C2  <0> d           3.830   2.868  -0.728  0.00  0.00    -0.082 C 
ATOM      2  C3  <0> d           2.860   3.418  -1.386  0.00  0.00    -0.081 C 
ATOM      3  C4  <0> d           1.433   2.960  -1.317  0.00  0.00    -0.032 C 
ATOM      4  C5  <0> d           1.221   2.077  -0.086  0.00  0.00     0.034 C 
ATOM      5  H1  <0> d           1.275   2.687   0.816  0.00  0.00     0.057 H 
ATOM      6  C6  <0> d           2.322   1.010  -0.059  0.00  0.00    -0.049 C 
ATOM      7  C7  <0> d           3.661   1.703   0.202  0.00  0.00    -0.044 C 
ATOM      8  H5  <0> d           1.192   2.392  -2.216  0.00  0.00     0.041 H 
ATOM      9  H6  <0> d           0.779   3.830  -1.255  0.00  0.00     0.041 H 
ATOM     10  H7  <0> d           2.119   0.294   0.738  0.00  0.00     0.034 H 
ATOM     11  H8  <0> d           2.357   0.495  -1.018  0.00  0.00     0.034 H 
ATOM     12  H9  <0> d           4.473   0.993   0.043  0.00  0.00     0.039 H 
ATOM     13  H10 <0> d           3.688   2.057   1.233  0.00  0.00     0.039 H 
ENDROOT
BRANCH   1  14
ATOM     14  C1  <0> d           5.216   3.434  -0.908  0.00  0.00    -0.054 C 
ATOM     15  H2  <0> d           5.166   4.325  -1.533  0.00  0.00     0.033 H 
ATOM     16  H3  <0> d           5.630   3.696   0.065  0.00  0.00     0.033 H 
ATOM     17  H4  <0> d           5.853   2.690  -1.386  0.00  0.00     0.033 H 
ENDBRANCH   1  14
BRANCH   2  18
ATOM     18  C9  <0> d           3.185   4.590  -2.275  0.00  0.00    -0.054 C 
ATOM     19  H11 <0> d           2.291   4.889  -2.823  0.00  0.00     0.033 H 
ATOM     20  H12 <0> d           3.532   5.424  -1.665  0.00  0.00     0.033 H 
ATOM     21  H13 <0> d           3.966   4.306  -2.980  0.00  0.00     0.033 H 
ENDBRANCH   2  18
BRANCH   4  22
ATOM     22  C8  <0> d          -0.128   1.411  -0.167  0.00  0.00     0.177 C 
ATOM     23  O1  <0> d          -0.207   0.205  -0.180  0.00  0.00    -0.648 OA
ATOM     24  O2  <0> d          -1.243   2.156  -0.229  0.00  0.00    -0.648 OA
ENDBRANCH   4  22
TORSDOF 3
