REMARK  5 active torsions:
REMARK  status: ('A' for Active; 'I' for Inactive)
REMARK    1  A    between atoms: C1_1  and  C2_2 
REMARK    2  A    between atoms: C2_2  and  C3_3 
REMARK    3  A    between atoms: C2_2  and  C4_4 
REMARK    4  A    between atoms: C2_2  and  N1_5 
REMARK    5  A    between atoms: C7_8  and  N3_10 
ROOT
ATOM      1  C2  <0> d           1.472   4.362   0.012  0.00  0.00     0.044 C 
ENDROOT
BRANCH   1   2
ATOM      2  C1  <0> d           2.058   4.573  -1.386  0.00  0.00    -0.052 C 
ATOM      3  H1  <0> d           2.665   3.699  -1.665  0.00  0.00     0.030 H 
ATOM      4  H2  <0> d           2.689   5.474  -1.387  0.00  0.00     0.030 H 
ATOM      5  H3  <0> d           1.240   4.698  -2.111  0.00  0.00     0.030 H 
ENDBRANCH   1   2
BRANCH   1   6
ATOM      6  C3  <0> d           0.627   5.578   0.400  0.00  0.00    -0.052 C 
ATOM      7  H4  <0> d           0.206   5.426   1.405  0.00  0.00     0.030 H 
ATOM      8  H5  <0> d          -0.190   5.703  -0.326  0.00  0.00     0.030 H 
ATOM      9  H6  <0> d           1.259   6.479   0.399  0.00  0.00     0.030 H 
ENDBRANCH   1   6
BRANCH   1  10
ATOM     10  C4  <0> d           2.609   4.189   1.020  0.00  0.00    -0.052 C 
ATOM     11  H7  <0> d           2.188   4.037   2.025  0.00  0.00     0.030 H 
ATOM     12  H8  <0> d           3.241   5.089   1.020  0.00  0.00     0.030 H 
ATOM     13  H9  <0> d           3.216   3.315   0.742  0.00  0.00     0.030 H 
ENDBRANCH   1  10
BRANCH   1  14
ATOM     14  N1  <0> d           0.631   3.163   0.013  0.00  0.00    -0.270 N 
ATOM     15  N2  <0> d          -0.770   3.140   0.026  0.00  0.00    -0.154 NA
ATOM     16  C7  <0> d          -1.159   1.887   0.017  0.00  0.00     0.142 A 
ATOM     17  C6  <0> d          -0.013   1.076   0.008  0.00  0.00    -0.021 A 
ATOM     18  C5  <0> d           1.070   1.887   0.002  0.00  0.00     0.003 A 
ATOM     19  H11 <0> d           0.002  -0.004   0.002  0.00  0.00     0.091 H 
ATOM     20  H10 <0> d           2.102   1.570  -0.009  0.00  0.00     0.114 H 
BRANCH  16  21
ATOM     21  N3  <0> d          -2.485   1.438   0.019  0.00  0.00    -0.383 N 
ATOM     22  H12 <0> d          -3.311   2.163   0.027  0.00  0.00     0.157 HD
ATOM     23  H13 <0> d          -2.699   0.359   0.014  0.00  0.00     0.157 HD
ENDBRANCH  16  21
ENDBRANCH   1  14
TORSDOF 5
