REMARK  2 active torsions:
REMARK  status: ('A' for Active; 'I' for Inactive)
REMARK    1  A    between atoms: C1_1  and  C2_2 
REMARK    2  A    between atoms: C2_2  and  C6_8 
ROOT
ATOM      1  C2  <0> d          -0.829   1.632  -1.185  0.00  0.00     0.134 C 
ATOM      2  C3  <0> d          -0.013   1.086   0.008  0.00  0.00    -0.019 C 
ATOM      3  C4  <0> d          -0.806   1.619   1.223  0.00  0.00     0.030 C 
ATOM      4  O1  <0> d          -2.174   1.763   0.722  0.00  0.00    -0.320 OA
ATOM      5  C5  <0> d          -2.154   2.052  -0.587  0.00  0.00     0.278 C 
ATOM      6  O2  <0> d          -3.059   2.570  -1.198  0.00  0.00    -0.264 OA
ATOM      7  H4  <0> d           0.002  -0.004   0.002  0.00  0.00     0.038 H 
ATOM      8  H5  <0> d           1.001   1.486   0.001  0.00  0.00     0.038 H 
ATOM      9  H6  <0> d          -0.771   0.903   2.044  0.00  0.00     0.075 H 
ATOM     10  H7  <0> d          -0.412   2.584   1.541  0.00  0.00     0.075 H 
ENDROOT
BRANCH   1  11
ATOM     11  C1  <0> d          -0.120   2.836  -1.808  0.00  0.00    -0.051 C 
ATOM     12  H1  <0> d           0.866   2.535  -2.161  0.00  0.00     0.029 H 
ATOM     13  H2  <0> d          -0.708   3.209  -2.647  0.00  0.00     0.029 H 
ATOM     14  H3  <0> d          -0.014   3.622  -1.061  0.00  0.00     0.029 H 
ENDBRANCH   1  11
BRANCH   1  15
ATOM     15  C6  <0> d          -1.037   0.552  -2.216  0.00  0.00     0.191 C 
ATOM     16  O3  <0> d          -0.584  -0.553  -2.033  0.00  0.00    -0.647 OA
ATOM     17  O4  <0> d          -1.725   0.819  -3.337  0.00  0.00    -0.647 OA
ENDBRANCH   1  15
TORSDOF 2
