REMARK  2 active torsions:
REMARK  status: ('A' for Active; 'I' for Inactive)
REMARK    1  A    between atoms: C1_1  and  C2_2 
REMARK    2  A    between atoms: C3_3  and  C5_8 
ROOT
ATOM      1  C2  <0> d           2.381   3.839   0.005  0.00  0.00     0.042 A 
ATOM      2  C3  <0> d           1.238   3.063   0.007  0.00  0.00     0.083 A 
ATOM      3  C4  <0> d           0.135   3.945   0.022  0.00  0.00     0.040 A 
ATOM      4  N1  <0> d           0.594   5.166   0.024  0.00  0.00    -0.186 NA
ATOM      5  N2  <0> d           1.993   5.124   0.010  0.00  0.00    -0.282 N 
ATOM      6  H1  <0> d           2.601   5.918   0.004  0.00  0.00     0.189 HD
ATOM      7  H5  <0> d          -0.907   3.659   0.031  0.00  0.00     0.119 H 
ENDROOT
BRANCH   1   8
ATOM      8  C1  <0> d           3.801   3.336  -0.003  0.00  0.00    -0.035 C 
ATOM      9  H2  <0> d           4.139   3.220  -1.032  0.00  0.00     0.035 H 
ATOM     10  H3  <0> d           4.443   4.051   0.512  0.00  0.00     0.035 H 
ATOM     11  H4  <0> d           3.849   2.373   0.506  0.00  0.00     0.035 H 
ENDBRANCH   1   8
BRANCH   2  12
ATOM     12  C5  <0> d           1.181   1.591  -0.001  0.00  0.00     0.212 C 
ATOM     13  O1  <0> d           2.209   0.943  -0.014  0.00  0.00    -0.644 OA
ATOM     14  O2  <0> d          -0.011   0.963   0.007  0.00  0.00    -0.644 OA
ENDBRANCH   2  12
TORSDOF 2
