REMARK  5 active torsions:
REMARK  status: ('A' for Active; 'I' for Inactive)
REMARK    1  A    between atoms: C4_4  and  O1_7 
REMARK    2  A    between atoms: O1_7  and  C7_8 
REMARK    3  A    between atoms: C7_8  and  C8_9 
REMARK    4  A    between atoms: C8_9  and  C9_10 
REMARK    5  A    between atoms: C9_10  and  O2_11 
ROOT
ATOM      1  O1  <0> d          -0.069   5.201   0.029  0.00  0.00    -0.351 OA
ENDROOT
BRANCH   1   2
ATOM      2  C4  <0> d          -0.050   3.842   0.023  0.00  0.00     0.068 A 
ATOM      3  C3  <0> d          -1.241   3.131   0.031  0.00  0.00    -0.051 A 
ATOM      4  C2  <0> d          -1.220   1.750   0.017  0.00  0.00    -0.080 A 
ATOM      5  H3  <0> d          -2.185   3.657   0.042  0.00  0.00     0.087 H 
ATOM      6  C1  <0> d          -0.013   1.076   0.008  0.00  0.00    -0.083 A 
ATOM      7  H2  <0> d          -2.147   1.196   0.018  0.00  0.00     0.083 H 
ATOM      8  C6  <0> d           1.176   1.782   0.000  0.00  0.00    -0.080 A 
ATOM      9  H1  <0> d           0.002  -0.004   0.002  0.00  0.00     0.083 H 
ATOM     10  C5  <0> d           1.160   3.163   0.007  0.00  0.00    -0.051 A 
ATOM     11  H5  <0> d           2.118   1.254  -0.011  0.00  0.00     0.083 H 
ATOM     12  H4  <0> d           2.089   3.715   0.001  0.00  0.00     0.087 H 
ENDBRANCH   1   2
BRANCH   1  13
ATOM     13  C7  <0> d          -1.350   5.832   0.045  0.00  0.00     0.028 C 
ATOM     14  H6  <0> d          -1.912   5.536  -0.841  0.00  0.00     0.075 H 
ATOM     15  H7  <0> d          -1.895   5.527   0.939  0.00  0.00     0.075 H 
BRANCH  13  16
ATOM     16  C8  <0> d          -1.171   7.351   0.050  0.00  0.00    -0.025 C 
ATOM     17  H8  <0> d          -0.609   7.648   0.936  0.00  0.00     0.039 H 
ATOM     18  H9  <0> d          -0.626   7.656  -0.844  0.00  0.00     0.039 H 
BRANCH  16  19
ATOM     19  C9  <0> d          -2.543   8.027   0.067  0.00  0.00     0.019 C 
ATOM     20  H10 <0> d          -3.105   7.731  -0.819  0.00  0.00     0.074 H 
ATOM     21  H11 <0> d          -3.087   7.723   0.961  0.00  0.00     0.074 H 
BRANCH  19  22
ATOM     22  O2  <0> d          -2.375   9.447   0.072  0.00  0.00    -0.401 OA
ATOM     23  H12 <0> d          -3.206   9.941   0.083  0.00  0.00     0.209 HD
ENDBRANCH  19  22
ENDBRANCH  16  19
ENDBRANCH  13  16
ENDBRANCH   1  13
TORSDOF 5
