REMARK  5 active torsions:
REMARK  status: ('A' for Active; 'I' for Inactive)
REMARK    1  A    between atoms: C1_1  and  C2_2 
REMARK    2  A    between atoms: C2_2  and  C3_3 
REMARK    3  A    between atoms: C2_2  and  C4_4 
REMARK    4  A    between atoms: C4_4  and  C5_6 
REMARK    5  A    between atoms: C4_4  and  O2_8 
ROOT
ATOM      1  C2  <0> d          -0.729   1.579   1.267  0.00  0.00    -0.026 C 
ATOM      2  H5  <0> d          -1.751   1.202   1.275  0.00  0.00     0.043 H 
ENDROOT
BRANCH   1   3
ATOM      3  C1  <0> d          -0.013   1.086   0.008  0.00  0.00    -0.070 C 
ATOM      4  H2  <0> d           0.002  -0.004   0.002  0.00  0.00     0.028 H 
ATOM      5  H3  <0> d           1.010   1.463   0.000  0.00  0.00     0.028 H 
ATOM      6  H4  <0> d          -0.540   1.447  -0.875  0.00  0.00     0.028 H 
ENDBRANCH   1   3
BRANCH   1   7
ATOM      7  C3  <0> d          -0.750   3.109   1.275  0.00  0.00    -0.070 C 
ATOM      8  H6  <0> d          -1.277   3.470   0.392  0.00  0.00     0.028 H 
ATOM      9  H7  <0> d          -1.260   3.461   2.172  0.00  0.00     0.028 H 
ATOM     10  H8  <0> d           0.273   3.486   1.268  0.00  0.00     0.028 H 
ENDBRANCH   1   7
BRANCH   1  11
ATOM     11  C4  <0> d           0.011   1.072   2.506  0.00  0.00     0.122 C 
ATOM     12  H1  <0> d           0.104  -0.013   2.456  0.00  0.00     0.100 H 
BRANCH  11  13
ATOM     13  C5  <0> d          -0.761   1.454   3.743  0.00  0.00     0.203 C 
ATOM     14  O1  <0> d          -0.283   2.228   4.538  0.00  0.00    -0.646 OA
ATOM     15  O3  <0> d          -1.978   0.933   3.962  0.00  0.00    -0.646 OA
ENDBRANCH  11  13
BRANCH  11  16
ATOM     16  O2  <0> d           1.313   1.660   2.557  0.00  0.00    -0.384 OA
ATOM     17  H9  <0> d           1.307   2.626   2.603  0.00  0.00     0.210 HD
ENDBRANCH  11  16
ENDBRANCH   1  11
TORSDOF 5
