REMARK  1 active torsions:
REMARK  status: ('A' for Active; 'I' for Inactive)
REMARK    1  A    between atoms: C5_6  and  C6_7 
ROOT
ATOM      1  C6  <0> d          -0.018   1.468   0.010  0.00  0.00     0.040 C 
ATOM      2  C7  <0> d           0.002  -0.004   0.002  0.00  0.00     0.063 C 
ATOM      3  N2  <0> d           0.018  -1.140  -0.004  0.00  0.00    -0.197 NA
ATOM      4  H4  <0> d          -0.545   1.829  -0.873  0.00  0.00     0.062 H 
ATOM      5  H5  <0> d          -0.528   1.819   0.907  0.00  0.00     0.062 H 
ENDROOT
BRANCH   1   6
ATOM      6  C5  <0> d           1.396   1.989  -0.001  0.00  0.00    -0.028 A 
ATOM      7  C1  <0> d           2.043   2.239  -1.202  0.00  0.00    -0.071 A 
ATOM      8  C2  <0> d           3.343   2.718  -1.164  0.00  0.00    -0.043 A 
ATOM      9  H1  <0> d           1.546   2.064  -2.144  0.00  0.00     0.084 H 
ATOM     10  C3  <0> d           3.947   2.931   0.062  0.00  0.00     0.125 A 
ATOM     11  H2  <0> d           3.877   2.923  -2.080  0.00  0.00     0.088 H 
ATOM     12  N1  <0> d           3.300   2.683   1.186  0.00  0.00    -0.248 NA
ATOM     13 Cl1  <0> d           5.575   3.531   0.124  0.00  0.00    -0.062 Cl
ATOM     14  C4  <0> d           2.061   2.231   1.186  0.00  0.00     0.011 A 
ATOM     15  H3  <0> d           1.562   2.043   2.126  0.00  0.00     0.115 H 
ENDBRANCH   1   6
TORSDOF 1
