REMARK  3 active torsions:
REMARK  status: ('A' for Active; 'I' for Inactive)
REMARK    1  A    between atoms: C1_1  and  C2_2 
REMARK    2  A    between atoms: C8_8  and  C11_13 
REMARK    3  A    between atoms: C9_9  and  C10_12 
ROOT
ATOM      1  C2  <0> d          -0.634  -2.308  -0.005  0.00  0.00    -0.061 A 
ATOM      2  C3  <0> d           0.704  -2.678  -0.020  0.00  0.00    -0.075 A 
ATOM      3  C4  <0> d           1.697  -1.724  -0.024  0.00  0.00    -0.056 A 
ATOM      4  C5  <0> d           1.359  -0.374  -0.013  0.00  0.00     0.043 A 
ATOM      5  C6  <0> d           0.002  -0.004   0.002  0.00  0.00    -0.001 A 
ATOM      6  C7  <0> d          -0.989  -0.988   0.006  0.00  0.00    -0.065 A 
ATOM      7  C8  <0> d          -0.018   1.461   0.010  0.00  0.00    -0.027 A 
ATOM      8  C9  <0> d           1.260   1.871   0.000  0.00  0.00     0.012 A 
ATOM      9  N1  <0> d           2.097   0.788  -0.014  0.00  0.00    -0.359 N 
ATOM     10  H1  <0> d           3.066   0.833  -0.023  0.00  0.00     0.166 HD
ATOM     11  H5  <0> d           0.969  -3.725  -0.028  0.00  0.00     0.084 H 
ATOM     12  H6  <0> d           2.735  -2.022  -0.035  0.00  0.00     0.087 H 
ATOM     13  H7  <0> d          -2.031  -0.707   0.017  0.00  0.00     0.085 H 
ENDROOT
BRANCH   1  14
ATOM     14  C1  <0> d          -1.704  -3.369  -0.001  0.00  0.00    -0.051 C 
ATOM     15  H2  <0> d          -1.972  -3.619  -1.027  0.00  0.00     0.033 H 
ATOM     16  H3  <0> d          -1.330  -4.260   0.505  0.00  0.00     0.033 H 
ATOM     17  H4  <0> d          -2.583  -2.996   0.524  0.00  0.00     0.033 H 
ENDBRANCH   1  14
BRANCH   7  18
ATOM     18  C11 <0> d          -1.241   2.341   0.021  0.00  0.00    -0.049 C 
ATOM     19  H11 <0> d          -1.531   2.547   1.051  0.00  0.00     0.033 H 
ATOM     20  H12 <0> d          -1.019   3.278  -0.489  0.00  0.00     0.033 H 
ATOM     21  H13 <0> d          -2.058   1.833  -0.492  0.00  0.00     0.033 H 
ENDBRANCH   7  18
BRANCH   8  22
ATOM     22  C10 <0> d           1.708   3.310   0.003  0.00  0.00    -0.037 C 
ATOM     23  H8  <0> d           1.825   3.652   1.031  0.00  0.00     0.035 H 
ATOM     24  H9  <0> d           2.660   3.395  -0.520  0.00  0.00     0.035 H 
ATOM     25  H10 <0> d           0.961   3.923  -0.501  0.00  0.00     0.035 H 
ENDBRANCH   8  22
TORSDOF 3
