REMARK  5 active torsions:
REMARK  status: ('A' for Active; 'I' for Inactive)
REMARK    1  A    between atoms: C1_1  and  C2_2 
REMARK    2  A    between atoms: C2_2  and  C3_3 
REMARK    3  A    between atoms: C4_4  and  C7_10 
REMARK    4  A    between atoms: N2_6  and  C6_9 
REMARK    5  A    between atoms: C5_7  and  N3_8 
ROOT
ATOM      1  C3  <0> d           1.306  -0.397  -0.013  0.00  0.00     0.013 A 
ATOM      2  C4  <0> d           2.099   0.753  -0.014  0.00  0.00     0.061 A 
ATOM      3  N1  <0> d           1.310   1.797  -0.001  0.00  0.00    -0.176 NA
ATOM      4  N2  <0> d          -0.016   1.348   0.009  0.00  0.00    -0.258 N 
ATOM      5  C5  <0> d           0.002  -0.004   0.002  0.00  0.00     0.125 A 
ENDROOT
BRANCH   1   6
ATOM      6  C2  <0> d           1.804  -1.819  -0.025  0.00  0.00    -0.039 C 
ATOM      7  H4  <0> d           2.769  -1.870   0.480  0.00  0.00     0.039 H 
ATOM      8  H5  <0> d           1.089  -2.459   0.493  0.00  0.00     0.039 H 
BRANCH   6   9
ATOM      9  C1  <0> d           1.959  -2.293  -1.471  0.00  0.00    -0.072 C 
ATOM     10  H1  <0> d           2.674  -1.654  -1.988  0.00  0.00     0.028 H 
ATOM     11  H2  <0> d           2.319  -3.322  -1.480  0.00  0.00     0.028 H 
ATOM     12  H3  <0> d           0.994  -2.242  -1.975  0.00  0.00     0.028 H 
ENDBRANCH   6   9
ENDBRANCH   1   6
BRANCH   5  13
ATOM     13  N3  <0> d          -1.110  -0.842   0.009  0.00  0.00    -0.384 N 
ATOM     14  H6  <0> d          -2.002  -0.463   0.019  0.00  0.00     0.157 HD
ATOM     15  H7  <0> d          -0.992  -1.805   0.003  0.00  0.00     0.157 HD
ENDBRANCH   5  13
BRANCH   2  16
ATOM     16  C7  <0> d           3.606   0.786  -0.029  0.00  0.00    -0.033 C 
ATOM     17  H11 <0> d           3.959   0.800  -1.060  0.00  0.00     0.035 H 
ATOM     18  H12 <0> d           3.955   1.681   0.486  0.00  0.00     0.035 H 
ATOM     19  H13 <0> d           3.994  -0.099   0.476  0.00  0.00     0.035 H 
ENDBRANCH   2  16
BRANCH   4  20
ATOM     20  C6  <0> d          -1.212   2.194   0.020  0.00  0.00     0.004 C 
ATOM     21  H8  <0> d          -1.504   2.398   1.050  0.00  0.00     0.059 H 
ATOM     22  H9  <0> d          -0.998   3.133  -0.490  0.00  0.00     0.059 H 
ATOM     23  H10 <0> d          -2.025   1.680  -0.493  0.00  0.00     0.059 H 
ENDBRANCH   4  20
TORSDOF 5
