REMARK  2 active torsions:
REMARK  status: ('A' for Active; 'I' for Inactive)
REMARK    1  A    between atoms: C2_2  and  N1_10 
REMARK    2  A    between atoms: C5_5  and  O1_8 
ROOT
ATOM      1  C1  <0> d          -1.247   3.413   0.032  0.00  0.00    -0.015 A 
ATOM      2  C2  <0> d          -1.229   2.026   0.019  0.00  0.00     0.068 A 
ATOM      3  C3  <0> d          -0.016   1.347   0.009  0.00  0.00     0.145 A 
ATOM      4  C4  <0> d           1.172   2.055   0.002  0.00  0.00    -0.009 A 
ATOM      5  C5  <0> d           1.153   3.441   0.010  0.00  0.00     0.107 A 
ATOM      6  C6  <0> d          -0.058   4.120   0.025  0.00  0.00     0.151 A 
ATOM      7  F1  <0> d          -0.075   5.471   0.032  0.00  0.00    -0.203 F 
ATOM      8  F2  <0> d           0.002  -0.004   0.002  0.00  0.00    -0.204 F 
ATOM      9  H1  <0> d          -2.189   3.942   0.045  0.00  0.00     0.092 H 
ATOM     10  H2  <0> d           2.115   1.528  -0.010  0.00  0.00     0.092 H 
ENDROOT
BRANCH   2  11
ATOM     11  N1  <0> d          -2.433   1.309   0.021  0.00  0.00    -0.397 N 
ATOM     12  H4  <0> d          -2.421   0.339   0.015  0.00  0.00     0.156 HD
ATOM     13  H5  <0> d          -3.280   1.783   0.027  0.00  0.00     0.156 HD
ENDBRANCH   2  11
BRANCH   5  14
ATOM     14  O1  <0> d           2.323   4.136   0.003  0.00  0.00    -0.357 OA
ATOM     15  H3  <0> d           2.652   4.342  -0.883  0.00  0.00     0.217 HD
ENDBRANCH   5  14
TORSDOF 2
