REMARK  0 active torsions:
REMARK  status: ('A' for Active; 'I' for Inactive)
ROOT
ATOM      1  C1  <0> d          -0.019   1.579   0.011  0.00  0.00    -0.047 C 
ATOM      2  C2  <0> d           1.523   1.732  -0.003  0.00  0.00    -0.106 C 
ATOM      3  C3  <0> d           2.332   1.296  -0.876  0.00  0.00    -0.106 C 
ATOM      4  C4  <0> d           3.704   1.005  -0.308  0.00  0.00    -0.047 C 
ATOM      5  C5  <0> d           3.726  -0.578  -0.317  0.00  0.00    -0.047 C 
ATOM      6  C6  <0> d           2.183  -0.732  -0.303  0.00  0.00    -0.106 C 
ATOM      7  C7  <0> d           1.375  -0.295   0.570  0.00  0.00    -0.106 C 
ATOM      8  C8  <0> d           0.002  -0.004   0.002  0.00  0.00    -0.047 C 
ATOM      9  H1  <0> d          -0.466   1.980   0.920  0.00  0.00     0.039 H 
ATOM     10  H2  <0> d          -0.483   1.990  -0.886  0.00  0.00     0.039 H 
ATOM     11  H3  <0> d           1.958   2.273   0.824  0.00  0.00     0.076 H 
ATOM     12  H4  <0> d           2.070   1.147  -1.913  0.00  0.00     0.076 H 
ATOM     13  H5  <0> d           4.486   1.410  -0.950  0.00  0.00     0.039 H 
ATOM     14  H6  <0> d           3.796   1.391   0.707  0.00  0.00     0.039 H 
ATOM     15  H7  <0> d           4.172  -0.979  -1.227  0.00  0.00     0.039 H 
ATOM     16  H8  <0> d           4.190  -0.989   0.580  0.00  0.00     0.039 H 
ATOM     17  H9  <0> d           1.748  -1.273  -1.130  0.00  0.00     0.076 H 
ATOM     18  H10 <0> d           1.636  -0.146   1.607  0.00  0.00     0.076 H 
ATOM     19  H11 <0> d          -0.780  -0.409   0.644  0.00  0.00     0.039 H 
ATOM     20  H12 <0> d          -0.090  -0.390  -1.013  0.00  0.00     0.039 H 
ENDROOT
TORSDOF 0
