REMARK  4 active torsions:
REMARK  status: ('A' for Active; 'I' for Inactive)
REMARK    1  A    between atoms: C1_1  and  C2_2 
REMARK    2  A    between atoms: C4_4  and  C9_11 
REMARK    3  A    between atoms: C6_6  and  C8_9 
REMARK    4  A    between atoms: C7_7  and  N1_8 
ROOT
ATOM      1  C2  <0> d          -2.424   0.938   0.019  0.00  0.00    -0.035 A 
ATOM      2  C3  <0> d          -3.629   1.614   0.028  0.00  0.00    -0.066 A 
ATOM      3  C4  <0> d          -3.648   2.996   0.035  0.00  0.00    -0.022 A 
ATOM      4  C5  <0> d          -2.459   3.708   0.033  0.00  0.00     0.130 A 
ATOM      5  C6  <0> d          -1.250   3.036   0.030  0.00  0.00     0.004 A 
ATOM      6  C7  <0> d          -1.230   1.648   0.017  0.00  0.00     0.040 A 
ATOM      7  F1  <0> d          -2.481   5.059   0.041  0.00  0.00    -0.205 F 
ATOM      8  H4  <0> d          -4.557   1.062   0.029  0.00  0.00     0.085 H 
ENDROOT
BRANCH   1   9
ATOM      9  C1  <0> d          -2.406  -0.569   0.010  0.00  0.00    -0.049 C 
ATOM     10  H1  <0> d          -2.396  -0.938   1.035  0.00  0.00     0.033 H 
ATOM     11  H2  <0> d          -3.294  -0.940  -0.502  0.00  0.00     0.033 H 
ATOM     12  H3  <0> d          -1.514  -0.918  -0.510  0.00  0.00     0.033 H 
ENDBRANCH   1   9
BRANCH   6  13
ATOM     13  N1  <0> d          -0.011   0.966   0.007  0.00  0.00    -0.398 N 
ATOM     14  H5  <0> d           0.002  -0.004   0.002  0.00  0.00     0.156 HD
ATOM     15  H6  <0> d           0.822   1.462   0.002  0.00  0.00     0.156 HD
ENDBRANCH   6  13
BRANCH   5  16
ATOM     16  C8  <0> d           0.043   3.810   0.035  0.00  0.00    -0.046 C 
ATOM     17  H7  <0> d           0.353   4.006  -0.991  0.00  0.00     0.033 H 
ATOM     18  H8  <0> d          -0.101   4.755   0.558  0.00  0.00     0.033 H 
ATOM     19  H9  <0> d           0.813   3.228   0.542  0.00  0.00     0.033 H 
ENDBRANCH   5  16
BRANCH   3  20
ATOM     20  C9  <0> d          -4.964   3.730   0.046  0.00  0.00    -0.048 C 
ATOM     21  H10 <0> d          -5.276   3.902   1.076  0.00  0.00     0.033 H 
ATOM     22  H11 <0> d          -4.850   4.687  -0.464  0.00  0.00     0.033 H 
ATOM     23  H12 <0> d          -5.717   3.133  -0.468  0.00  0.00     0.033 H 
ENDBRANCH   3  20
TORSDOF 4
