REMARK  2 active torsions:
REMARK  status: ('A' for Active; 'I' for Inactive)
REMARK    1  A    between atoms: C2_2  and  C4_5 
REMARK    2  A    between atoms: C2_2  and  N1_9 
ROOT
ATOM      1  C1  <0> d          -0.017   1.429   0.010  0.00  0.00     0.064 C 
ATOM      2  C2  <0> d           1.516   1.409  -0.005  0.00  0.00     0.292 C 
ATOM      3  C3  <0> d           1.258   0.059  -0.686  0.00  0.00     0.064 C 
ATOM      4  O1  <0> d           0.002  -0.004   0.002  0.00  0.00    -0.385 OA
ATOM      5  H1  <0> d          -0.436   1.851   0.924  0.00  0.00     0.079 H 
ATOM      6  H2  <0> d          -0.453   1.861  -0.891  0.00  0.00     0.079 H 
ATOM      7  H3  <0> d           1.156   0.133  -1.768  0.00  0.00     0.079 H 
ATOM      8  H4  <0> d           1.958  -0.720  -0.381  0.00  0.00     0.079 H 
ENDROOT
BRANCH   2   9
ATOM      9  C4  <0> d           2.158   2.464  -0.908  0.00  0.00     0.426 C 
ATOM     10  F1  <0> d           1.773   3.740  -0.480  0.00  0.00    -0.168 F 
ATOM     11  F2  <0> d           3.551   2.350  -0.841  0.00  0.00    -0.168 F 
ATOM     12  F3  <0> d           1.736   2.268  -2.227  0.00  0.00    -0.168 F 
ENDBRANCH   2   9
BRANCH   2  13
ATOM     13  N1  <0> d           2.138   1.314   1.323  0.00  0.00     0.101 N 
ATOM     14  H5  <0> d           3.145   1.305   1.250  0.00  0.00     0.314 HD
ATOM     15  H6  <0> d           1.826   2.063   1.922  0.00  0.00     0.314 HD
ENDBRANCH   2  13
TORSDOF 2
