REMARK  5 active torsions:
REMARK  status: ('A' for Active; 'I' for Inactive)
REMARK    1  A    between atoms: C1_1  and  C2_2 
REMARK    2  A    between atoms: C3_3  and  C8_11 
REMARK    3  A    between atoms: C4_5  and  C7_9 
REMARK    4  A    between atoms: C5_6  and  C6_8 
REMARK    5  A    between atoms: C7_9  and  O1_10 
ROOT
ATOM      1  C2  <0> d          -0.718   1.572   1.248  0.00  0.00     0.055 A 
ATOM      2  C3  <0> d           0.002   1.806   2.407  0.00  0.00     0.055 A 
ATOM      3  N1  <0> d          -0.617   2.232   3.494  0.00  0.00    -0.252 NA
ATOM      4  C4  <0> d          -1.923   2.436   3.474  0.00  0.00     0.082 A 
ATOM      5  C5  <0> d          -2.642   2.201   2.316  0.00  0.00     0.058 A 
ATOM      6  N2  <0> d          -2.023   1.780   1.227  0.00  0.00    -0.255 NA
ENDROOT
BRANCH   4   7
ATOM      7  C7  <0> d          -2.628   2.922   4.714  0.00  0.00     0.058 C 
ATOM      8  H7  <0> d          -3.651   2.546   4.722  0.00  0.00     0.083 H 
ATOM      9  H8  <0> d          -2.101   2.562   5.597  0.00  0.00     0.083 H 
BRANCH   7  10
ATOM     10  O1  <0> d          -2.647   4.351   4.721  0.00  0.00    -0.395 OA
ATOM     11  H9  <0> d          -3.086   4.735   5.492  0.00  0.00     0.209 HD
ENDBRANCH   7  10
ENDBRANCH   4   7
BRANCH   5  12
ATOM     12  C6  <0> d          -4.131   2.433   2.294  0.00  0.00    -0.034 C 
ATOM     13  H4  <0> d          -4.334   3.462   1.995  0.00  0.00     0.035 H 
ATOM     14  H5  <0> d          -4.594   1.750   1.582  0.00  0.00     0.035 H 
ATOM     15  H6  <0> d          -4.541   2.256   3.288  0.00  0.00     0.035 H 
ENDBRANCH   5  12
BRANCH   2  16
ATOM     16  C8  <0> d           1.490   1.574   2.429  0.00  0.00    -0.034 C 
ATOM     17  H10 <0> d           2.005   2.490   2.141  0.00  0.00     0.035 H 
ATOM     18  H11 <0> d           1.798   1.285   3.434  0.00  0.00     0.035 H 
ATOM     19  H12 <0> d           1.745   0.779   1.728  0.00  0.00     0.035 H 
ENDBRANCH   2  16
BRANCH   1  20
ATOM     20  C1  <0> d          -0.013   1.086   0.008  0.00  0.00    -0.034 C 
ATOM     21  H1  <0> d           0.002  -0.004   0.002  0.00  0.00     0.035 H 
ATOM     22  H2  <0> d           1.010   1.463   0.000  0.00  0.00     0.035 H 
ATOM     23  H3  <0> d          -0.540   1.447  -0.875  0.00  0.00     0.035 H 
ENDBRANCH   1  20
TORSDOF 5
