REMARK  1 active torsions:
REMARK  status: ('A' for Active; 'I' for Inactive)
REMARK    1  A    between atoms: C7_8  and  C8_10 
ROOT
ATOM      1  C8  <0> d          -0.018   1.468   0.010  0.00  0.00     0.075 C 
ATOM      2  C9  <0> d           0.002  -0.004   0.002  0.00  0.00     0.067 C 
ATOM      3  N2  <0> d           0.018  -1.140  -0.004  0.00  0.00    -0.197 NA
ATOM      4  H5  <0> d          -0.545   1.829  -0.873  0.00  0.00     0.067 H 
ATOM      5  H6  <0> d          -0.528   1.819   0.907  0.00  0.00     0.067 H 
ENDROOT
BRANCH   1   6
ATOM      6  C7  <0> d           1.396   1.989  -0.001  0.00  0.00     0.159 A 
ATOM      7  N1  <0> d           2.084   2.247  -1.072  0.00  0.00    -0.225 NA
ATOM      8  C5  <0> d           3.313   2.701  -0.705  0.00  0.00     0.093 A 
ATOM      9  C4  <0> d           3.337   2.698   0.698  0.00  0.00     0.106 A 
ATOM     10  C6  <0> d           4.439   3.122  -1.414  0.00  0.00    -0.052 A 
ATOM     11  C3  <0> d           4.477   3.113   1.369  0.00  0.00    -0.048 A 
ATOM     12  O1  <0> d           2.126   2.249   1.095  0.00  0.00    -0.293 OA
ATOM     13  C2  <0> d           5.583   3.526   0.655  0.00  0.00    -0.080 A 
ATOM     14  H3  <0> d           4.500   3.111   2.449  0.00  0.00     0.087 H 
ATOM     15  C1  <0> d           5.563   3.530  -0.732  0.00  0.00    -0.081 A 
ATOM     16  H2  <0> d           6.470   3.848   1.180  0.00  0.00     0.083 H 
ATOM     17  H1  <0> d           6.435   3.855  -1.280  0.00  0.00     0.083 H 
ATOM     18  H4  <0> d           4.429   3.128  -2.494  0.00  0.00     0.087 H 
ENDBRANCH   1   6
TORSDOF 1
