REMARK  3 active torsions:
REMARK  status: ('A' for Active; 'I' for Inactive)
REMARK    1  A    between atoms: C1_1  and  C2_2 
REMARK    2  A    between atoms: C3_4  and  O1_9 
REMARK    3  A    between atoms: C4_5  and  C5_8 
ROOT
ATOM      1  C2  <0> d           0.002  -0.004   0.002  0.00  0.00     0.097 A 
ATOM      2  H1  <0> d          -1.012  -0.403   0.022  0.00  0.00     0.088 H 
ATOM      3  C3  <0> d           0.761  -0.525  -1.206  0.00  0.00     0.095 A 
ATOM      4  C4  <0> d           1.790  -1.208  -0.666  0.00  0.00     0.083 A 
ATOM      5  N1  <0> d           1.740  -1.161   0.671  0.00  0.00    -0.157 NA
ATOM      6  N2  <0> d           0.788  -0.521   1.135  0.00  0.00    -0.181 NA
ENDROOT
BRANCH   1   7
ATOM      7  C1  <0> d          -0.019   1.526   0.010  0.00  0.00    -0.048 C 
ATOM      8  H2  <0> d           1.004   1.903   0.003  0.00  0.00     0.030 H 
ATOM      9  H3  <0> d          -0.546   1.887  -0.873  0.00  0.00     0.030 H 
ATOM     10  H4  <0> d          -0.529   1.877   0.907  0.00  0.00     0.030 H 
ENDBRANCH   1   7
BRANCH   3  11
ATOM     11  O1  <0> d           0.473  -0.346  -2.514  0.00  0.00    -0.361 OA
ATOM     12  H8  <0> d           1.099  -0.772  -3.116  0.00  0.00     0.217 HD
ENDBRANCH   3  11
BRANCH   4  13
ATOM     13  C5  <0> d           2.851  -1.927  -1.458  0.00  0.00    -0.031 C 
ATOM     14  H5  <0> d           3.679  -1.247  -1.658  0.00  0.00     0.035 H 
ATOM     15  H6  <0> d           3.213  -2.783  -0.888  0.00  0.00     0.035 H 
ATOM     16  H7  <0> d           2.428  -2.273  -2.402  0.00  0.00     0.035 H 
ENDBRANCH   4  13
TORSDOF 3
