REMARK  3 active torsions:
REMARK  status: ('A' for Active; 'I' for Inactive)
REMARK    1  A    between atoms: C1_1  and  C2_2 
REMARK    2  A    between atoms: C4_4  and  C6_10 
REMARK    3  A    between atoms: N1_5  and  C5_7 
ROOT
ATOM      1  C2  <0> d          -2.086   1.931   2.919  0.00  0.00     0.053 A 
ATOM      2  C3  <0> d          -1.298   3.087   2.925  0.00  0.00    -0.035 A 
ATOM      3  C4  <0> d          -0.453   3.020   1.870  0.00  0.00     0.034 A 
ATOM      4  N1  <0> d          -0.703   1.867   1.215  0.00  0.00    -0.213 N 
ATOM      5  N2  <0> d          -1.729   1.199   1.895  0.00  0.00    -0.173 NA
ATOM      6  H4  <0> d          -1.353   3.889   3.646  0.00  0.00     0.089 H 
ENDROOT
BRANCH   1   7
ATOM      7  C1  <0> d          -3.159   1.588   3.920  0.00  0.00    -0.034 C 
ATOM      8  H1  <0> d          -2.720   1.027   4.745  0.00  0.00     0.035 H 
ATOM      9  H2  <0> d          -3.606   2.505   4.301  0.00  0.00     0.035 H 
ATOM     10  H3  <0> d          -3.926   0.983   3.437  0.00  0.00     0.035 H 
ENDBRANCH   1   7
BRANCH   4  11
ATOM     11  C5  <0> d          -0.017   1.395   0.010  0.00  0.00     0.296 C 
ATOM     12  F1  <0> d           0.002  -0.004   0.002  0.00  0.00    -0.189 F 
ATOM     13  F2  <0> d           1.296   1.879  -0.000  0.00  0.00    -0.189 F 
ATOM     14  H5  <0> d          -0.544   1.756  -0.873  0.00  0.00     0.185 H 
ENDBRANCH   4  11
BRANCH   3  15
ATOM     15  C6  <0> d           0.580   4.051   1.493  0.00  0.00    -0.036 C 
ATOM     16  H6  <0> d           0.135   4.781   0.818  0.00  0.00     0.035 H 
ATOM     17  H7  <0> d           0.935   4.555   2.392  0.00  0.00     0.035 H 
ATOM     18  H8  <0> d           1.418   3.560   0.997  0.00  0.00     0.035 H 
ENDBRANCH   3  15
TORSDOF 3
