REMARK  2 active torsions:
REMARK  status: ('A' for Active; 'I' for Inactive)
REMARK    1  A    between atoms: C2_2  and  N4_9 
REMARK    2  A    between atoms: C3_4  and  N3_8 
ROOT
ATOM      1  C1  <0> d           2.321   1.346  -0.013  0.00  0.00     0.001 A 
ATOM      2  C2  <0> d           2.307  -0.050  -0.020  0.00  0.00     0.143 A 
ATOM      3  N1  <0> d           1.139  -0.684  -0.012  0.00  0.00    -0.046 NA
ATOM      4  C3  <0> d           0.002  -0.004   0.002  0.00  0.00     0.723 A 
ATOM      5  N2  <0> d          -0.016   1.320   0.009  0.00  0.00    -0.051 NA
ATOM      6  C4  <0> d           1.113   2.017   0.002  0.00  0.00     0.148 A 
ATOM      7 Cl1  <0> d           1.073   3.753   0.011  0.00  0.00    -0.062 Cl
ATOM      8  H1  <0> d           3.255   1.889  -0.018  0.00  0.00     0.094 H 
ENDROOT
BRANCH   2   9
ATOM      9  N4  <0> d           3.494  -0.765  -0.034  0.00  0.00    -0.383 N 
ATOM     10  H4  <0> d           3.477  -1.734  -0.038  0.00  0.00     0.157 HD
ATOM     11  H5  <0> d           4.343  -0.295  -0.040  0.00  0.00     0.157 HD
ENDBRANCH   2   9
BRANCH   4  12
ATOM     12  N3  <0> d          -1.197  -0.695   0.010  0.00  0.00    -0.231 N 
ATOM     13  H2  <0> d          -2.037  -0.209   0.020  0.00  0.00     0.174 HD
ATOM     14  H3  <0> d          -1.198  -1.665   0.005  0.00  0.00     0.174 HD
ENDBRANCH   4  12
TORSDOF 2
