REMARK  2 active torsions:
REMARK  status: ('A' for Active; 'I' for Inactive)
REMARK    1  A    between atoms: C1_1  and  S1_2 
REMARK    2  A    between atoms: S1_2  and  C2_3 
ROOT
ATOM      1  C2  <0> d           0.848  -0.411  -1.489  0.00  0.00     0.185 A 
ATOM      2  N1  <0> d           1.110  -1.656  -1.940  0.00  0.00    -0.253 N 
ATOM      3  H1  <0> d           0.871  -2.493  -1.511  0.00  0.00     0.191 HD
ATOM      4  N2  <0> d           1.797  -1.500  -3.155  0.00  0.00    -0.139 NA
ATOM      5  C3  <0> d           1.910  -0.216  -3.368  0.00  0.00     0.243 A 
ATOM      6  N3  <0> d           1.333   0.446  -2.364  0.00  0.00    -0.191 NA
ATOM      7 Cl1  <0> d           2.683   0.513  -4.741  0.00  0.00    -0.040 Cl
ENDROOT
BRANCH   1   8
ATOM      8  S1  <0> d           0.002  -0.004   0.002  0.00  0.00    -0.095 SA
BRANCH   8   9
ATOM      9  C1  <0> d          -0.022   1.810   0.012  0.00  0.00    -0.027 C 
ATOM     10  H2  <0> d           1.000   2.187   0.004  0.00  0.00     0.042 H 
ATOM     11  H3  <0> d          -0.550   2.171  -0.871  0.00  0.00     0.042 H 
ATOM     12  H4  <0> d          -0.533   2.161   0.909  0.00  0.00     0.042 H 
ENDBRANCH   8   9
ENDBRANCH   1   8
TORSDOF 2
