REMARK  3 active torsions:
REMARK  status: ('A' for Active; 'I' for Inactive)
REMARK    1  A    between atoms: C2_2  and  C3_3 
REMARK    2  A    between atoms: C7_8  and  C8_10 
REMARK    3  A    between atoms: C8_10  and  C9_11 
ROOT
ATOM      1  C3  <0> d          -0.013   1.086   0.008  0.00  0.00    -0.035 C 
ATOM      2  H1  <0> d           0.002  -0.004   0.002  0.00  0.00     0.046 H 
ATOM      3  C4  <0> d           1.431   1.648  -0.003  0.00  0.00    -0.058 C 
ATOM      4  C5  <0> d           1.823   1.553  -1.498  0.00  0.00    -0.064 C 
ATOM      5  C6  <0> d           0.529   1.921  -2.253  0.00  0.00    -0.061 C 
ATOM      6  C7  <0> d          -0.638   1.625  -1.295  0.00  0.00    -0.038 C 
ATOM      7  H2  <0> d          -1.196   2.538  -1.092  0.00  0.00     0.041 H 
ATOM      8  H6  <0> d           1.444   2.684   0.335  0.00  0.00     0.034 H 
ATOM      9  H7  <0> d           2.089   1.034   0.612  0.00  0.00     0.034 H 
ATOM     10  H8  <0> d           2.616   2.264  -1.730  0.00  0.00     0.033 H 
ATOM     11  H9  <0> d           2.134   0.538  -1.747  0.00  0.00     0.033 H 
ATOM     12  H10 <0> d           0.538   2.980  -2.514  0.00  0.00     0.033 H 
ATOM     13  H11 <0> d           0.437   1.315  -3.154  0.00  0.00     0.033 H 
ENDROOT
BRANCH   6  14
ATOM     14  C8  <0> d          -1.563   0.571  -1.907  0.00  0.00     0.020 C 
ATOM     15  H12 <0> d          -0.976  -0.296  -2.212  0.00  0.00     0.049 H 
ATOM     16  H13 <0> d          -2.305   0.266  -1.169  0.00  0.00     0.049 H 
BRANCH  14  17
ATOM     17  C9  <0> d          -2.260   1.152  -3.110  0.00  0.00     0.172 C 
ATOM     18  O1  <0> d          -2.040   2.292  -3.443  0.00  0.00    -0.648 OA
ATOM     19  O2  <0> d          -3.126   0.403  -3.811  0.00  0.00    -0.648 OA
ENDBRANCH  14  17
ENDBRANCH   6  14
BRANCH   1  20
ATOM     20  C2  <0> d          -0.768   1.595   1.208  0.00  0.00    -0.108 C 
ATOM     21  C1  <0> d          -1.303   0.749   2.053  0.00  0.00    -0.124 C 
ATOM     22  H3  <0> d          -1.845   1.114   2.913  0.00  0.00     0.066 H 
ATOM     23  H4  <0> d          -1.204  -0.314   1.889  0.00  0.00     0.066 H 
ATOM     24  H5  <0> d          -0.868   2.658   1.373  0.00  0.00     0.076 H 
ENDBRANCH   1  20
TORSDOF 3
