REMARK  0 active torsions:
REMARK  status: ('A' for Active; 'I' for Inactive)
ROOT
ATOM      1  C1  <0> d           1.848   0.826   1.147  0.00  0.00    -0.040 C 
ATOM      2  C2  <0> d           1.061  -0.415   0.700  0.00  0.00    -0.105 C 
ATOM      3  C3  <0> d           0.002  -0.004   0.002  0.00  0.00    -0.101 C 
ATOM      4  C4  <0> d          -0.018   1.464   0.010  0.00  0.00    -0.021 C 
ATOM      5  H1  <0> d          -0.502   1.827   0.917  0.00  0.00     0.048 H 
ATOM      6  C5  <0> d           1.542   1.772  -0.003  0.00  0.00     0.014 C 
ATOM      7  H2  <0> d           2.265   1.706  -0.691  0.00  0.00     0.053 H 
ATOM      8  C6  <0> d           0.985   3.137   0.008  0.00  0.00     0.132 C 
ATOM      9  O1  <0> d           1.192   4.196   0.550  0.00  0.00    -0.298 OA
ATOM     10  C7  <0> d           0.004   2.533  -1.022  0.00  0.00    -0.002 C 
ATOM     11  H3  <0> d           1.467   1.216   2.091  0.00  0.00     0.040 H 
ATOM     12  H4  <0> d           2.915   0.615   1.212  0.00  0.00     0.040 H 
ATOM     13  H5  <0> d           1.321  -1.442   0.914  0.00  0.00     0.076 H 
ATOM     14  H6  <0> d          -0.719  -0.643  -0.487  0.00  0.00     0.077 H 
ATOM     15  H7  <0> d           0.269   2.140  -1.903  0.00  0.00     0.045 H 
ATOM     16  H8  <0> d          -0.934   3.078  -1.135  0.00  0.00     0.045 H 
ENDROOT
TORSDOF 0
