REMARK  3 active torsions:
REMARK  status: ('A' for Active; 'I' for Inactive)
REMARK    1  A    between atoms: C1_1  and  C2_2 
REMARK    2  A    between atoms: C4_4  and  C8_9 
REMARK    3  A    between atoms: C5_6  and  C7_8 
ROOT
ATOM      1  C2  <0> d           2.377   0.009  -0.020  0.00  0.00    -0.057 A 
ATOM      2  C3  <0> d           1.186  -0.717  -0.013  0.00  0.00    -0.049 A 
ATOM      3  C4  <0> d           0.002  -0.004   0.002  0.00  0.00     0.050 A 
ATOM      4  O1  <0> d          -0.014   1.205   0.009  0.00  0.00    -0.320 OA
ATOM      5  C5  <0> d           0.963   1.917   0.003  0.00  0.00     0.050 A 
ATOM      6  C6  <0> d           2.243   1.396  -0.012  0.00  0.00    -0.049 A 
ATOM      7  H4  <0> d           1.189  -1.797  -0.018  0.00  0.00     0.088 H 
ATOM      8  H5  <0> d           3.109   2.042  -0.017  0.00  0.00     0.088 H 
ENDROOT
BRANCH   1   9
ATOM      9  C1  <0> d           3.724  -0.666  -0.037  0.00  0.00    -0.051 C 
ATOM     10  H1  <0> d           4.040  -0.823  -1.068  0.00  0.00     0.033 H 
ATOM     11  H2  <0> d           4.452  -0.035   0.474  0.00  0.00     0.033 H 
ATOM     12  H3  <0> d           3.656  -1.627   0.473  0.00  0.00     0.033 H 
ENDBRANCH   1   9
BRANCH   5  13
ATOM     13  C7  <0> d           0.780   3.412   0.013  0.00  0.00    -0.031 C 
ATOM     14  H6  <0> d          -0.196   3.629   0.023  0.00  0.00     0.036 H 
ATOM     15  H7  <0> d           1.254   3.830   0.901  0.00  0.00     0.036 H 
ATOM     16  H8  <0> d           1.237   3.840  -0.879  0.00  0.00     0.036 H 
ENDBRANCH   5  13
BRANCH   3  17
ATOM     17  C8  <0> d          -1.305  -0.755   0.011  0.00  0.00    -0.031 C 
ATOM     18  H9  <0> d          -2.131  -0.044   0.022  0.00  0.00     0.036 H 
ATOM     19  H10 <0> d          -1.372  -1.376  -0.882  0.00  0.00     0.036 H 
ATOM     20  H11 <0> d          -1.355  -1.386   0.898  0.00  0.00     0.036 H 
ENDBRANCH   3  17
TORSDOF 3
