REMARK  1 active torsions:
REMARK  status: ('A' for Active; 'I' for Inactive)
REMARK    1  A    between atoms: C2_2  and  C3_3 
ROOT
ATOM      1  C3  <0> d          -1.262  -0.757   0.010  0.00  0.00     0.005 A 
ATOM      2  C4  <0> d          -1.459  -2.114   0.010  0.00  0.00    -0.064 A 
ATOM      3  C5  <0> d          -2.749  -2.595   0.019  0.00  0.00    -0.054 A 
ATOM      4  C6  <0> d          -3.784  -1.713   0.028  0.00  0.00     0.075 A 
ATOM      5  S1  <0> d          -2.937  -0.141   0.030  0.00  0.00    -0.078 SA
ATOM      6 Cl1  <0> d          -5.490  -2.033   0.041  0.00  0.00    -0.076 Cl
ATOM      7  H4  <0> d          -0.619  -2.793   0.003  0.00  0.00     0.085 H 
ATOM      8  H5  <0> d          -2.937  -3.658   0.019  0.00  0.00     0.086 H 
ENDROOT
BRANCH   1   9
ATOM      9  C2  <0> d           0.002  -0.004   0.002  0.00  0.00    -0.075 C 
ATOM     10  C1  <0> d          -0.016   1.326   0.009  0.00  0.00    -0.120 C 
ATOM     11  H1  <0> d           0.912   1.878   0.003  0.00  0.00     0.066 H 
ATOM     12  H2  <0> d          -0.959   1.853   0.017  0.00  0.00     0.066 H 
ATOM     13  H3  <0> d           0.945  -0.531  -0.010  0.00  0.00     0.084 H 
ENDBRANCH   1   9
TORSDOF 1
