REMARK  0 active torsions:
REMARK  status: ('A' for Active; 'I' for Inactive)
ROOT
ATOM      1  C1  <0> d           0.730   3.906   0.015  0.00  0.00     0.011 A 
ATOM      2  C2  <0> d          -0.811   3.850   0.030  0.00  0.00     0.032 A 
ATOM      3  N1  <0> d          -1.111   2.412   0.020  0.00  0.00    -0.261 NA
ATOM      4  C3  <0> d          -0.021   1.732   0.012  0.00  0.00     0.192 A 
ATOM      5  N2  <0> d           1.115   2.485   0.005  0.00  0.00    -0.364 N 
ATOM      6 Cl1  <0> d           0.002  -0.004   0.002  0.00  0.00    -0.044 Cl
ATOM      7  H1  <0> d           1.106   4.400   0.911  0.00  0.00     0.066 H 
ATOM      8  H2  <0> d           1.092   4.410  -0.881  0.00  0.00     0.066 H 
ATOM      9  H3  <0> d          -1.203   4.320   0.932  0.00  0.00     0.070 H 
ATOM     10  H4  <0> d          -1.219   4.331  -0.859  0.00  0.00     0.070 H 
ATOM     11  H5  <0> d           2.023   2.143  -0.006  0.00  0.00     0.162 HD
ENDROOT
TORSDOF 0
