REMARK  7 active torsions:
REMARK  status: ('A' for Active; 'I' for Inactive)
REMARK    1  A    between atoms: C1_1  and  C2_2 
REMARK    2  A    between atoms: C2_2  and  O1_3 
REMARK    3  A    between atoms: O1_3  and  C3_4 
REMARK    4  A    between atoms: C3_4  and  C4_5 
REMARK    5  A    between atoms: C4_5  and  O2_6 
REMARK    6  A    between atoms: O2_6  and  C5_7 
REMARK    7  A    between atoms: C5_7  and  C6_8 
ROOT
ATOM      1  C3  <0> d           0.770  -1.902   1.249  0.00  0.00     0.039 C 
ATOM      2  H6  <0> d          -0.237  -2.318   1.283  0.00  0.00     0.077 H 
ATOM      3  H7  <0> d           1.296  -2.292   0.378  0.00  0.00     0.077 H 
ENDROOT
BRANCH   1   4
ATOM      4  O1  <0> d           0.693  -0.477   1.160  0.00  0.00    -0.389 OA
BRANCH   4   5
ATOM      5  C2  <0> d           0.002  -0.004   0.002  0.00  0.00     0.016 C 
ATOM      6  H4  <0> d          -1.020  -0.381   0.010  0.00  0.00     0.073 H 
ATOM      7  H5  <0> d           0.512  -0.356  -0.895  0.00  0.00     0.073 H 
BRANCH   5   8
ATOM      8  C1  <0> d          -0.019   1.526   0.010  0.00  0.00    -0.056 C 
ATOM      9  H1  <0> d           1.004   1.903   0.003  0.00  0.00     0.030 H 
ATOM     10  H2  <0> d          -0.546   1.887  -0.873  0.00  0.00     0.030 H 
ATOM     11  H3  <0> d          -0.529   1.877   0.907  0.00  0.00     0.030 H 
ENDBRANCH   5   8
ENDBRANCH   4   5
ENDBRANCH   1   4
BRANCH   1  12
ATOM     12  C4  <0> d           1.526  -2.293   2.520  0.00  0.00     0.039 C 
ATOM     13  H8  <0> d           1.663  -3.374   2.543  0.00  0.00     0.077 H 
ATOM     14  H9  <0> d           2.501  -1.804   2.528  0.00  0.00     0.077 H 
BRANCH  12  15
ATOM     15  O2  <0> d           0.778  -1.882   3.666  0.00  0.00    -0.389 OA
BRANCH  15  16
ATOM     16  C5  <0> d           1.400  -2.202   4.912  0.00  0.00     0.016 C 
ATOM     17  H10 <0> d           1.533  -3.281   4.985  0.00  0.00     0.073 H 
ATOM     18  H11 <0> d           2.371  -1.711   4.970  0.00  0.00     0.073 H 
BRANCH  16  19
ATOM     19  C6  <0> d           0.515  -1.718   6.062  0.00  0.00    -0.056 C 
ATOM     20  H12 <0> d           0.381  -0.639   5.989  0.00  0.00     0.030 H 
ATOM     21  H13 <0> d          -0.457  -2.209   6.005  0.00  0.00     0.030 H 
ATOM     22  H14 <0> d           0.989  -1.962   7.013  0.00  0.00     0.030 H 
ENDBRANCH  16  19
ENDBRANCH  15  16
ENDBRANCH  12  15
ENDBRANCH   1  12
TORSDOF 7
