REMARK  2 active torsions:
REMARK  status: ('A' for Active; 'I' for Inactive)
REMARK    1  A    between atoms: C1_1  and  O1_2 
REMARK    2  A    between atoms: O1_2  and  C2_3 
ROOT
ATOM      1  C2  <0> d          -0.048   3.852   0.021  0.00  0.00     0.069 A 
ATOM      2  C3  <0> d           1.159   3.165   0.007  0.00  0.00    -0.051 A 
ATOM      3  C4  <0> d           1.173   1.782   0.000  0.00  0.00    -0.079 A 
ATOM      4  C5  <0> d          -0.013   1.076   0.008  0.00  0.00    -0.063 A 
ATOM      5  C6  <0> d          -1.231   1.758   0.017  0.00  0.00     0.047 A 
ATOM      6  C7  <0> d          -1.243   3.154   0.029  0.00  0.00    -0.031 A 
ATOM      7  C8  <0> d          -2.463   1.028   0.020  0.00  0.00     0.099 C 
ATOM      8  N1  <0> d          -3.441   0.449   0.022  0.00  0.00    -0.191 NA
ATOM      9  H4  <0> d           2.090   3.712   0.001  0.00  0.00     0.087 H 
ATOM     10  H5  <0> d           2.115   1.254  -0.011  0.00  0.00     0.083 H 
ATOM     11  H6  <0> d           0.002  -0.004   0.002  0.00  0.00     0.085 H 
ATOM     12  H7  <0> d          -2.182   3.687   0.041  0.00  0.00     0.090 H 
ENDROOT
BRANCH   1  13
ATOM     13  O1  <0> d          -0.056   5.211   0.027  0.00  0.00    -0.356 OA
BRANCH  13  14
ATOM     14  C1  <0> d           1.214   5.867   0.017  0.00  0.00     0.010 C 
ATOM     15  H1  <0> d           1.065   6.947   0.023  0.00  0.00     0.066 H 
ATOM     16  H2  <0> d           1.781   5.574   0.901  0.00  0.00     0.066 H 
ATOM     17  H3  <0> d           1.764   5.581  -0.879  0.00  0.00     0.066 H 
ENDBRANCH  13  14
ENDBRANCH   1  13
TORSDOF 2
