REMARK  2 active torsions:
REMARK  status: ('A' for Active; 'I' for Inactive)
REMARK    1  A    between atoms: C1_1  and  C2_2 
REMARK    2  A    between atoms: C2_2  and  C3_4 
ROOT
ATOM      1  C3  <0> d           1.280   1.975   0.000  0.00  0.00     0.105 C 
ATOM      2  H1  <0> d           1.200   2.755  -0.620  0.00  0.00     0.096 H 
ATOM      3  C4  <0> d           1.620   2.454   1.427  0.00  0.00    -0.025 C 
ATOM      4  C5  <0> d           2.988   1.790   1.703  0.00  0.00     0.018 C 
ATOM      5  C6  <0> d           3.468   1.379   0.323  0.00  0.00     0.259 C 
ATOM      6  O2  <0> d           4.617   1.308  -0.045  0.00  0.00    -0.265 OA
ATOM      7  O3  <0> d           2.375   1.109  -0.413  0.00  0.00    -0.308 OA
ATOM      8  H5  <0> d           1.706   3.540   1.458  0.00  0.00     0.038 H 
ATOM      9  H6  <0> d           0.872   2.106   2.139  0.00  0.00     0.038 H 
ATOM     10  H7  <0> d           3.678   2.504   2.153  0.00  0.00     0.048 H 
ATOM     11  H8  <0> d           2.868   0.916   2.343  0.00  0.00     0.048 H 
ENDROOT
BRANCH   1  12
ATOM     12  C2  <0> d          -0.014   1.203   0.009  0.00  0.00     0.152 C 
ATOM     13  O1  <0> d           0.002  -0.004   0.002  0.00  0.00    -0.296 OA
BRANCH  12  14
ATOM     14  C1  <0> d          -1.329   1.939   0.019  0.00  0.00    -0.018 C 
ATOM     15  H2  <0> d          -1.616   2.097   0.964  0.00  0.00     0.037 H 
ATOM     16  H3  <0> d          -1.214   2.896  -0.490  0.00  0.00     0.037 H 
ATOM     17  H4  <0> d          -2.083   1.343  -0.495  0.00  0.00     0.037 H 
ENDBRANCH  12  14
ENDBRANCH   1  12
TORSDOF 2
