REMARK  2 active torsions:
REMARK  status: ('A' for Active; 'I' for Inactive)
REMARK    1  A    between atoms: C1_1  and  C2_2 
REMARK    2  A    between atoms: C2_2  and  C3_3 
ROOT
ATOM      1  C3  <0> d           2.195   1.618  -1.044  0.00  0.00     0.030 C 
ATOM      2  H1  <0> d           1.871   1.959  -2.027  0.00  0.00     0.055 H 
ATOM      3  C4  <0> d           2.277   0.087  -1.029  0.00  0.00    -0.051 C 
ATOM      4  C5  <0> d           0.864  -0.489  -1.167  0.00  0.00    -0.044 C 
ATOM      5  C6  <0> d           0.002  -0.004   0.002  0.00  0.00     0.029 C 
ATOM      6  O1  <0> d          -0.018   1.451   0.010  0.00  0.00    -0.321 OA
ATOM      7  C7  <0> d           1.191   2.052   0.002  0.00  0.00     0.263 C 
ATOM      8  O2  <0> d           1.463   2.912   0.806  0.00  0.00    -0.265 OA
ATOM      9  H7  <0> d           2.716  -0.246  -0.089  0.00  0.00     0.034 H 
ATOM     10  H8  <0> d           2.892  -0.254  -1.862  0.00  0.00     0.034 H 
ATOM     11  H9  <0> d           0.912  -1.578  -1.156  0.00  0.00     0.036 H 
ATOM     12  H10 <0> d           0.425  -0.153  -2.106  0.00  0.00     0.036 H 
ATOM     13  H11 <0> d           0.422  -0.368   0.940  0.00  0.00     0.075 H 
ATOM     14  H12 <0> d          -1.014  -0.382  -0.112  0.00  0.00     0.075 H 
ENDROOT
BRANCH   1  15
ATOM     15  C2  <0> d           3.567   2.211  -0.718  0.00  0.00    -0.057 C 
ATOM     16  H5  <0> d           3.843   1.948   0.303  0.00  0.00     0.033 H 
ATOM     17  H6  <0> d           4.309   1.811  -1.410  0.00  0.00     0.033 H 
BRANCH  15  18
ATOM     18  C1  <0> d           3.510   3.733  -0.856  0.00  0.00    -0.076 C 
ATOM     19  H2  <0> d           3.234   3.996  -1.877  0.00  0.00     0.027 H 
ATOM     20  H3  <0> d           2.769   4.133  -0.164  0.00  0.00     0.027 H 
ATOM     21  H4  <0> d           4.488   4.156  -0.624  0.00  0.00     0.027 H 
ENDBRANCH  15  18
ENDBRANCH   1  15
TORSDOF 2
