REMARK  1 active torsions:
REMARK  status: ('A' for Active; 'I' for Inactive)
REMARK    1  A    between atoms: C2_2  and  N2_9 
ROOT
ATOM      1  C1  <0> d           1.832   1.825  -1.210  0.00  0.00    -0.003 A 
ATOM      2  C2  <0> d           3.095   2.409  -1.205  0.00  0.00     0.070 A 
ATOM      3  C3  <0> d           3.698   2.675   0.027  0.00  0.00     0.158 A 
ATOM      4  C4  <0> d           3.025   2.354   1.187  0.00  0.00     0.019 A 
ATOM      5  N1  <0> d           1.824   1.805   1.145  0.00  0.00    -0.342 N 
ATOM      6  C5  <0> d           1.221   1.532  -0.001  0.00  0.00     0.180 A 
ATOM      7  O1  <0> d          -0.011   0.963   0.007  0.00  0.00    -0.172 OA
ATOM      8  F1  <0> d           4.923   3.242   0.081  0.00  0.00    -0.202 F 
ATOM      9  H1  <0> d           1.334   1.605  -2.143  0.00  0.00     0.093 H 
ATOM     10  H2  <0> d           3.484   2.557   2.143  0.00  0.00     0.116 H 
ATOM     11  H5  <0> d           1.297   1.562   2.079  0.00  0.00     0.167 HD
ENDROOT
BRANCH   2  12
ATOM     12  N2  <0> d           3.744   2.719  -2.399  0.00  0.00    -0.397 N 
ATOM     13  H3  <0> d           4.742   3.180  -2.379  0.00  0.00     0.156 HD
ATOM     14  H4  <0> d           3.257   2.503  -3.362  0.00  0.00     0.156 HD
ENDBRANCH   2  12
TORSDOF 1
