REMARK  3 active torsions:
REMARK  status: ('A' for Active; 'I' for Inactive)
REMARK    1  A    between atoms: C1_1  and  C2_2 
REMARK    2  A    between atoms: C4_5  and  C10_13 
REMARK    3  A    between atoms: C6_7  and  C9_12 
ROOT
ATOM      1  C2  <0> d          -2.196   1.069  -1.196  0.00  0.00    -0.049 C 
ATOM      2  H1  <0> d          -2.753   1.472  -2.041  0.00  0.00     0.040 H 
ATOM      3  C3  <0> d          -2.852   1.520   0.114  0.00  0.00    -0.033 C 
ATOM      4  C4  <0> d          -1.843   2.342   0.920  0.00  0.00     0.058 C 
ATOM      5  C5  <0> d          -1.439   3.579   0.112  0.00  0.00    -0.033 C 
ATOM      6  C6  <0> d          -0.784   3.127  -1.198  0.00  0.00    -0.049 C 
ATOM      7  H2  <0> d           0.234   3.513  -1.249  0.00  0.00     0.040 H 
ATOM      8  C7  <0> d          -0.756   1.594  -1.232  0.00  0.00    -0.027 C 
ATOM      9  C8  <0> d          -0.013   1.086   0.008  0.00  0.00     0.025 C 
ATOM     10  O1  <0> d          -0.683   1.548   1.183  0.00  0.00    -0.380 OA
ATOM     11  H6  <0> d          -3.153   0.645   0.690  0.00  0.00     0.037 H 
ATOM     12  H7  <0> d          -3.727   2.131  -0.108  0.00  0.00     0.037 H 
ATOM     13  H8  <0> d          -0.731   4.175   0.687  0.00  0.00     0.037 H 
ATOM     14  H9  <0> d          -2.323   4.176  -0.110  0.00  0.00     0.037 H 
ATOM     15  H10 <0> d          -0.250   1.252  -2.135  0.00  0.00     0.044 H 
ATOM     16  H11 <0> d           0.002  -0.004   0.002  0.00  0.00     0.075 H 
ATOM     17  H12 <0> d           1.010   1.464   0.000  0.00  0.00     0.075 H 
ENDROOT
BRANCH   1  18
ATOM     18  C1  <0> d          -2.186  -0.459  -1.266  0.00  0.00    -0.072 C 
ATOM     19  H3  <0> d          -1.633  -0.858  -0.415  0.00  0.00     0.028 H 
ATOM     20  H4  <0> d          -3.211  -0.830  -1.239  0.00  0.00     0.028 H 
ATOM     21  H5  <0> d          -1.708  -0.777  -2.192  0.00  0.00     0.028 H 
ENDBRANCH   1  18
BRANCH   6  22
ATOM     22  C9  <0> d          -1.592   3.652  -2.386  0.00  0.00    -0.072 C 
ATOM     23  H13 <0> d          -2.611   3.270  -2.330  0.00  0.00     0.028 H 
ATOM     24  H14 <0> d          -1.611   4.742  -2.360  0.00  0.00     0.028 H 
ATOM     25  H15 <0> d          -1.129   3.319  -3.315  0.00  0.00     0.028 H 
ENDBRANCH   6  22
BRANCH   4  26
ATOM     26  C10 <0> d          -2.479   2.780   2.241  0.00  0.00    -0.048 C 
ATOM     27  H16 <0> d          -3.363   3.384   2.036  0.00  0.00     0.031 H 
ATOM     28  H17 <0> d          -2.766   1.899   2.816  0.00  0.00     0.031 H 
ATOM     29  H18 <0> d          -1.762   3.369   2.813  0.00  0.00     0.031 H 
ENDBRANCH   4  26
TORSDOF 3
