REMARK  4 active torsions:
REMARK  status: ('A' for Active; 'I' for Inactive)
REMARK    1  A    between atoms: C1_1  and  C2_2 
REMARK    2  A    between atoms: C2_2  and  S1_3 
REMARK    3  A    between atoms: S1_3  and  C3_4 
REMARK    4  A    between atoms: C4_6  and  N4_10 
ROOT
ATOM      1  C3  <0> d           0.002  -0.004   0.002  0.00  0.00     0.226 A 
ATOM      2  N1  <0> d          -1.076  -0.796   0.013  0.00  0.00    -0.035 NA
ATOM      3  C4  <0> d          -0.699  -2.057  -0.002  0.00  0.00     0.716 A 
ATOM      4  N2  <0> d           0.650  -2.088  -0.015  0.00  0.00    -0.105 N 
ATOM      5  H1  <0> d           1.178  -3.054  -0.025  0.00  0.00     0.208 HD
ATOM      6  N3  <0> d           1.079  -0.752  -0.012  0.00  0.00    -0.132 NA
ENDROOT
BRANCH   1   7
ATOM      7  S1  <0> d          -0.022   1.758   0.012  0.00  0.00    -0.088 SA
BRANCH   7   8
ATOM      8  C2  <0> d           1.732   2.220  -0.003  0.00  0.00    -0.019 C 
ATOM      9  H5  <0> d           2.210   1.817  -0.908  0.00  0.00     0.049 H 
ATOM     10  H6  <0> d           2.228   1.808   0.889  0.00  0.00     0.049 H 
BRANCH   8  11
ATOM     11  C1  <0> d           1.857   3.745   0.004  0.00  0.00    -0.068 C 
ATOM     12  H2  <0> d           2.921   4.026  -0.004  0.00  0.00     0.028 H 
ATOM     13  H3  <0> d           1.379   4.148   0.909  0.00  0.00     0.028 H 
ATOM     14  H4  <0> d           1.362   4.158  -0.887  0.00  0.00     0.028 H 
ENDBRANCH   8  11
ENDBRANCH   7   8
ENDBRANCH   1   7
BRANCH   3  15
ATOM     15  N4  <0> d          -1.537  -3.157   0.000  0.00  0.00    -0.231 N 
ATOM     16  H7  <0> d          -1.114  -4.172  -0.013  0.00  0.00     0.174 HD
ATOM     17  H8  <0> d          -2.628  -3.016   0.016  0.00  0.00     0.174 HD
ENDBRANCH   3  15
TORSDOF 4
