REMARK  0 active torsions:
REMARK  status: ('A' for Active; 'I' for Inactive)
ROOT
ATOM      1  C1  <0> d          -1.198   1.735   0.017  0.00  0.00    -0.064 A 
ATOM      2  C2  <0> d          -0.013   1.076   0.008  0.00  0.00    -0.016 A 
ATOM      3  C3  <0> d           1.202   1.795   0.000  0.00  0.00     0.245 A 
ATOM      4  O1  <0> d           2.255   1.181  -0.013  0.00  0.00    -0.268 OA
ATOM      5  N1  <0> d           1.228   3.140   0.007  0.00  0.00    -0.323 N 
ATOM      6  H1  <0> d           2.080   3.603   0.001  0.00  0.00     0.169 HD
ATOM      7  C4  <0> d           0.062   3.866   0.022  0.00  0.00     0.048 A 
ATOM      8  C5  <0> d          -1.181   3.197   0.030  0.00  0.00     0.008 A 
ATOM      9  C6  <0> d          -2.357   3.950   0.046  0.00  0.00     0.014 A 
ATOM     10  N2  <0> d          -2.296   5.265   0.053  0.00  0.00    -0.272 NA
ATOM     11  C7  <0> d          -1.148   5.921   0.046  0.00  0.00     0.004 A 
ATOM     12  C8  <0> d           0.061   5.259   0.030  0.00  0.00    -0.039 A 
ATOM     13  H2  <0> d          -2.132   1.193   0.019  0.00  0.00     0.085 H 
ATOM     14  H3  <0> d           0.002  -0.004   0.002  0.00  0.00     0.092 H 
ATOM     15  H4  <0> d          -3.316   3.453   0.052  0.00  0.00     0.116 H 
ATOM     16  H5  <0> d          -1.157   7.001   0.052  0.00  0.00     0.114 H 
ATOM     17  H6  <0> d           0.990   5.809   0.024  0.00  0.00     0.089 H 
ENDROOT
TORSDOF 0
