REMARK  4 active torsions:
REMARK  status: ('A' for Active; 'I' for Inactive)
REMARK    1  A    between atoms: C1_1  and  C2_2 
REMARK    2  A    between atoms: C2_2  and  C3_3 
REMARK    3  A    between atoms: C3_3  and  C4_4 
REMARK    4  A    between atoms: C4_4  and  C5_5 
ROOT
ATOM      1  C5  <0> d          -2.848  -2.593   0.015  0.00  0.00    -0.017 C 
ATOM      2  H1  <0> d          -3.384  -2.170   0.865  0.00  0.00     0.049 H 
ATOM      3  C6  <0> d          -2.827  -4.120   0.134  0.00  0.00     0.026 C 
ATOM      4  O1  <0> d          -4.144  -4.612  -0.142  0.00  0.00    -0.387 OA
ATOM      5  C7  <0> d          -4.533  -4.435  -1.506  0.00  0.00     0.034 C 
ATOM      6  C8  <0> d          -4.290  -3.016  -1.933  0.00  0.00    -0.084 C 
ATOM      7  C9  <0> d          -3.538  -2.196  -1.261  0.00  0.00    -0.099 C 
ATOM      8  H11 <0> d          -2.122  -4.534  -0.586  0.00  0.00     0.075 H 
ATOM      9  H12 <0> d          -2.533  -4.405   1.144  0.00  0.00     0.075 H 
ATOM     10  H13 <0> d          -3.951  -5.107  -2.137  0.00  0.00     0.080 H 
ATOM     11  H14 <0> d          -5.592  -4.669  -1.613  0.00  0.00     0.080 H 
ATOM     12  H15 <0> d          -4.760  -2.661  -2.838  0.00  0.00     0.079 H 
ATOM     13  H16 <0> d          -3.404  -1.191  -1.633  0.00  0.00     0.077 H 
ENDROOT
BRANCH   1  14
ATOM     14  C4  <0> d          -1.413  -2.063   0.004  0.00  0.00    -0.057 C 
ATOM     15  H9  <0> d          -0.902  -2.415  -0.892  0.00  0.00     0.034 H 
ATOM     16  H10 <0> d          -0.885  -2.425   0.887  0.00  0.00     0.034 H 
BRANCH  14  17
ATOM     17  C3  <0> d          -1.433  -0.534   0.013  0.00  0.00    -0.065 C 
ATOM     18  H7  <0> d          -1.944  -0.182   0.910  0.00  0.00     0.033 H 
ATOM     19  H8  <0> d          -1.960  -0.173  -0.870  0.00  0.00     0.033 H 
BRANCH  17  20
ATOM     20  C2  <0> d           0.002  -0.004   0.002  0.00  0.00    -0.069 C 
ATOM     21  H5  <0> d           0.512  -0.356  -0.895  0.00  0.00     0.032 H 
ATOM     22  H6  <0> d           0.529  -0.365   0.885  0.00  0.00     0.032 H 
BRANCH  20  23
ATOM     23  C1  <0> d          -0.019   1.526   0.010  0.00  0.00    -0.077 C 
ATOM     24  H2  <0> d           1.004   1.903   0.003  0.00  0.00     0.027 H 
ATOM     25  H3  <0> d          -0.546   1.887  -0.873  0.00  0.00     0.027 H 
ATOM     26  H4  <0> d          -0.529   1.877   0.907  0.00  0.00     0.027 H 
ENDBRANCH  20  23
ENDBRANCH  17  20
ENDBRANCH  14  17
ENDBRANCH   1  14
TORSDOF 4
