REMARK  4 active torsions:
REMARK  status: ('A' for Active; 'I' for Inactive)
REMARK    1  A    between atoms: C1_1  and  C2_2 
REMARK    2  A    between atoms: C3_4  and  C6_9 
REMARK    3  A    between atoms: C4_5  and  N3_8 
REMARK    4  A    between atoms: N2_6  and  C5_7 
REMARK       I    between atoms: C6_9  and  N4_11 
ROOT
ATOM      1  C2  <0> d           0.002  -0.004   0.002  0.00  0.00     0.104 A 
ATOM      2  N1  <0> d           0.008  -0.748  -1.063  0.00  0.00    -0.226 NA
ATOM      3  C3  <0> d           0.027  -2.058  -0.695  0.00  0.00     0.169 A 
ATOM      4  C4  <0> d           0.033  -2.095   0.692  0.00  0.00     0.137 A 
ATOM      5  N2  <0> d           0.023  -0.797   1.112  0.00  0.00    -0.324 N 
ENDROOT
BRANCH   3   6
ATOM      6  C6  <0> d           0.039  -3.214  -1.595  0.00  0.00     0.271 C 
ATOM      7  O1  <0> d           0.055  -4.341  -1.137  0.00  0.00    -0.266 OA
ATOM      8  N4  <0> d           0.031  -3.028  -2.929  0.00  0.00    -0.365 N 
ATOM      9  H9  <0> d           0.017  -2.130  -3.294  0.00  0.00     0.159 HD
ATOM     10  H10 <0> d           0.038  -3.793  -3.525  0.00  0.00     0.159 HD
ENDBRANCH   3   6
BRANCH   4  11
ATOM     11  N3  <0> d           0.051  -3.221   1.490  0.00  0.00    -0.383 N 
ATOM     12  H7  <0> d           0.061  -4.103   1.084  0.00  0.00     0.157 HD
ATOM     13  H8  <0> d           0.054  -3.132   2.455  0.00  0.00     0.157 HD
ENDBRANCH   4  11
BRANCH   1  14
ATOM     14  C1  <0> d          -0.018   1.503   0.010  0.00  0.00    -0.021 C 
ATOM     15  H1  <0> d           1.004   1.880   0.003  0.00  0.00     0.037 H 
ATOM     16  H2  <0> d          -0.545   1.864  -0.873  0.00  0.00     0.037 H 
ATOM     17  H3  <0> d          -0.529   1.854   0.907  0.00  0.00     0.037 H 
ENDBRANCH   1  14
BRANCH   5  18
ATOM     18  C5  <0> d           0.030  -0.338   2.503  0.00  0.00    -0.011 C 
ATOM     19  H4  <0> d          -0.996  -0.238   2.858  0.00  0.00     0.057 H 
ATOM     20  H5  <0> d           0.560  -1.062   3.122  0.00  0.00     0.057 H 
ATOM     21  H6  <0> d           0.531   0.628   2.564  0.00  0.00     0.057 H 
ENDBRANCH   5  18
TORSDOF 4
