REMARK  5 active torsions:
REMARK  status: ('A' for Active; 'I' for Inactive)
REMARK    1  A    between atoms: C1_1  and  C2_2 
REMARK    2  A    between atoms: C3_3  and  C6_8 
REMARK    3  A    between atoms: N2_6  and  C5_7 
REMARK    4  A    between atoms: C6_8  and  C7_10 
REMARK    5  A    between atoms: C6_8  and  O1_11 
ROOT
ATOM      1  C2  <0> d          -3.207   1.629   0.668  0.00  0.00     0.036 A 
ATOM      2  C3  <0> d          -2.143   1.058   1.278  0.00  0.00     0.013 A 
ATOM      3  C4  <0> d          -2.588  -0.100   1.925  0.00  0.00     0.032 A 
ATOM      4  N1  <0> d          -3.872  -0.221   1.707  0.00  0.00    -0.184 NA
ATOM      5  N2  <0> d          -4.285   0.856   0.913  0.00  0.00    -0.278 N 
ATOM      6  H5  <0> d          -1.977  -0.776   2.505  0.00  0.00     0.118 H 
ENDROOT
BRANCH   2   7
ATOM      7  C6  <0> d          -0.729   1.579   1.267  0.00  0.00     0.060 C 
ATOM      8  H1  <0> d          -0.724   2.677   1.333  0.00  0.00     0.090 H 
BRANCH   7   9
ATOM      9  C7  <0> d          -0.013   1.086   0.008  0.00  0.00    -0.049 C 
ATOM     10  H9  <0> d           1.019   1.466   0.000  0.00  0.00     0.031 H 
ATOM     11  H10 <0> d          -0.545   1.450  -0.883  0.00  0.00     0.031 H 
ATOM     12  H11 <0> d           0.002  -0.014   0.002  0.00  0.00     0.031 H 
ENDBRANCH   7   9
BRANCH   7  13
ATOM     13  O1  <0> d          -0.038   1.106   2.425  0.00  0.00    -0.391 OA
ATOM     14  H12 <0> d           1.013   1.385   2.590  0.00  0.00     0.210 HD
ENDBRANCH   7  13
ENDBRANCH   2   7
BRANCH   1  15
ATOM     15  C1  <0> d          -3.190   2.899  -0.143  0.00  0.00    -0.035 C 
ATOM     16  H2  <0> d          -2.168   3.306  -0.166  0.00  0.00     0.035 H 
ATOM     17  H3  <0> d          -3.867   3.636   0.314  0.00  0.00     0.035 H 
ATOM     18  H4  <0> d          -3.522   2.684  -1.169  0.00  0.00     0.035 H 
ENDBRANCH   1  15
BRANCH   5  19
ATOM     19  C5  <0> d          -5.649   1.103   0.437  0.00  0.00     0.002 C 
ATOM     20  H6  <0> d          -6.313   0.303   0.796  0.00  0.00     0.059 H 
ATOM     21  H7  <0> d          -5.656   1.121  -0.663  0.00  0.00     0.059 H 
ATOM     22  H8  <0> d          -6.001   2.072   0.821  0.00  0.00     0.059 H 
ENDBRANCH   5  19
TORSDOF 5
