REMARK  1 active torsions:
REMARK  status: ('A' for Active; 'I' for Inactive)
REMARK    1  A    between atoms: C1_1  and  N1_2 
ROOT
ATOM      1  N1  <0> d           0.002  -0.004   0.002  0.00  0.00    -0.347 N 
ATOM      2  C2  <0> d          -1.254  -0.753   0.016  0.00  0.00     0.012 C 
ATOM      3  C3  <0> d          -1.131  -2.012  -0.844  0.00  0.00     0.011 C 
ATOM      4  N2  <0> d           0.039  -2.792  -0.438  0.00  0.00    -0.351 N 
ATOM      5  C4  <0> d           1.167  -2.161  -0.047  0.00  0.00     0.309 C 
ATOM      6  O1  <0> d           2.151  -2.796   0.273  0.00  0.00    -0.262 OA
ATOM      7  C5  <0> d           1.180  -0.663  -0.013  0.00  0.00     0.311 C 
ATOM      8  O2  <0> d           2.229  -0.055   0.002  0.00  0.00    -0.262 OA
ATOM      9  H4  <0> d          -1.495  -1.035   1.041  0.00  0.00     0.066 H 
ATOM     10  H5  <0> d          -2.053  -0.125  -0.378  0.00  0.00     0.066 H 
ATOM     11  H6  <0> d          -1.030  -1.728  -1.891  0.00  0.00     0.066 H 
ATOM     12  H7  <0> d          -2.028  -2.618  -0.720  0.00  0.00     0.066 H 
ATOM     13  H8  <0> d           0.004  -3.761  -0.451  0.00  0.00     0.162 HD
ENDROOT
BRANCH   1  14
ATOM     14  C1  <0> d          -0.018   1.461   0.010  0.00  0.00    -0.016 C 
ATOM     15  H1  <0> d           1.005   1.838   0.002  0.00  0.00     0.056 H 
ATOM     16  H2  <0> d          -0.545   1.822  -0.873  0.00  0.00     0.056 H 
ATOM     17  H3  <0> d          -0.528   1.812   0.907  0.00  0.00     0.056 H 
ENDBRANCH   1  14
TORSDOF 1
