REMARK  3 active torsions:
REMARK  status: ('A' for Active; 'I' for Inactive)
REMARK    1  A    between atoms: C1_1  and  C2_2 
REMARK    2  A    between atoms: C4_4  and  N2_7 
REMARK       I    between atoms: N2_7  and  C5_8 
REMARK    3  A    between atoms: C5_8  and  C6_10 
ROOT
ATOM      1  C2  <0> d          -0.718   1.572   1.248  0.00  0.00     0.042 A 
ATOM      2  C3  <0> d          -0.014   1.808   2.406  0.00  0.00    -0.025 A 
ATOM      3  C4  <0> d          -0.739   2.247   3.479  0.00  0.00     0.097 A 
ATOM      4  S1  <0> d          -2.345   2.308   2.830  0.00  0.00     0.029 SA
ATOM      5  N1  <0> d          -2.012   1.782   1.239  0.00  0.00    -0.215 NA
ATOM      6  H4  <0> d           1.054   1.656   2.464  0.00  0.00     0.091 H 
ENDROOT
BRANCH   3   7
ATOM      7  N2  <0> d          -0.300   2.564   4.764  0.00  0.00    -0.320 N 
ATOM      8  C5  <0> d          -1.182   2.984   5.693  0.00  0.00     0.218 C 
ATOM      9  O1  <0> d          -2.357   3.087   5.411  0.00  0.00    -0.274 OA
ATOM     10  H5  <0> d           0.639   2.481   4.990  0.00  0.00     0.169 HD
BRANCH   8  11
ATOM     11  C6  <0> d          -0.707   3.326   7.082  0.00  0.00    -0.003 C 
ATOM     12  H6  <0> d           0.023   4.133   7.028  0.00  0.00     0.040 H 
ATOM     13  H7  <0> d          -1.556   3.644   7.688  0.00  0.00     0.040 H 
ATOM     14  H8  <0> d          -0.246   2.449   7.535  0.00  0.00     0.040 H 
ENDBRANCH   8  11
ENDBRANCH   3   7
BRANCH   1  15
ATOM     15  C1  <0> d          -0.013   1.086   0.008  0.00  0.00    -0.035 C 
ATOM     16  H1  <0> d           0.002  -0.004   0.002  0.00  0.00     0.035 H 
ATOM     17  H2  <0> d           1.010   1.463   0.000  0.00  0.00     0.035 H 
ATOM     18  H3  <0> d          -0.540   1.447  -0.875  0.00  0.00     0.035 H 
ENDBRANCH   1  15
TORSDOF 3
