REMARK  3 active torsions:
REMARK  status: ('A' for Active; 'I' for Inactive)
REMARK    1  A    between atoms: C2_2  and  O4_12 
REMARK    2  A    between atoms: C3_4  and  O3_11 
REMARK    3  A    between atoms: C5_8  and  O2_10 
ROOT
ATOM      1  C1  <0> d           2.539   3.717  -0.089  0.00  0.00     0.007 C 
ATOM      2  C2  <0> d           1.146   3.087  -0.000  0.00  0.00     0.066 C 
ATOM      3  H1  <0> d           0.550   3.399  -0.858  0.00  0.00     0.087 H 
ATOM      4  C3  <0> d           1.286   1.562  -0.002  0.00  0.00     0.081 C 
ATOM      5  H2  <0> d           1.840   1.245   0.882  0.00  0.00     0.090 H 
ATOM      6  C4  <0> d           2.041   1.128  -1.261  0.00  0.00     0.049 C 
ATOM      7  O1  <0> d           3.316   1.774  -1.297  0.00  0.00    -0.359 OA
ATOM      8  C5  <0> d           3.246   3.200  -1.345  0.00  0.00     0.131 C 
ATOM      9  H3  <0> d           4.254   3.612  -1.390  0.00  0.00     0.128 H 
ATOM     10  H4  <0> d           3.119   3.445   0.793  0.00  0.00     0.044 H 
ATOM     11  H5  <0> d           2.447   4.802  -0.143  0.00  0.00     0.044 H 
ATOM     12  H6  <0> d           2.182   0.047  -1.246  0.00  0.00     0.078 H 
ATOM     13  H7  <0> d           1.467   1.408  -2.144  0.00  0.00     0.078 H 
ENDROOT
BRANCH   2  14
ATOM     14  O4  <0> d           0.507   3.507   1.207  0.00  0.00    -0.393 OA
ATOM     15  H10 <0> d           0.386   4.464   1.276  0.00  0.00     0.210 HD
ENDBRANCH   2  14
BRANCH   4  16
ATOM     16  O3  <0> d          -0.011   0.963   0.007  0.00  0.00    -0.391 OA
ATOM     17  H9  <0> d           0.002  -0.004   0.002  0.00  0.00     0.210 HD
ENDBRANCH   4  16
BRANCH   8  18
ATOM     18  O2  <0> d           2.514   3.603  -2.504  0.00  0.00    -0.371 OA
ATOM     19  H8  <0> d           2.904   3.308  -3.338  0.00  0.00     0.212 HD
ENDBRANCH   8  18
TORSDOF 3
