REMARK  4 active torsions:
REMARK  status: ('A' for Active; 'I' for Inactive)
REMARK    1  A    between atoms: C2_3  and  N4_10 
REMARK    2  A    between atoms: N3_5  and  C3_6 
REMARK    3  A    between atoms: C3_6  and  C4_7 
REMARK    4  A    between atoms: C4_7  and  C5_8 
ROOT
ATOM      1  C1  <0> d          -1.155   0.804   2.227  0.00  0.00     0.102 A 
ATOM      2  N1  <0> d          -1.705   1.596   3.111  0.00  0.00    -0.055 NA
ATOM      3  C2  <0> d          -1.618   2.864   2.698  0.00  0.00     0.738 A 
ATOM      4  N2  <0> d          -1.002   2.890   1.540  0.00  0.00     0.022 NA
ATOM      5  N3  <0> d          -0.698   1.558   1.213  0.00  0.00    -0.247 N 
ATOM      6  H1  <0> d          -1.082  -0.272   2.298  0.00  0.00     0.147 H 
ENDROOT
BRANCH   5   7
ATOM      7  C3  <0> d          -0.013   1.086   0.008  0.00  0.00     0.027 C 
ATOM      8  H2  <0> d           0.002  -0.004   0.002  0.00  0.00     0.068 H 
ATOM      9  H3  <0> d           1.010   1.463   0.000  0.00  0.00     0.068 H 
BRANCH   7  10
ATOM     10  C4  <0> d          -0.753   1.593  -1.232  0.00  0.00     0.032 C 
ATOM     11  H4  <0> d          -1.775   1.215  -1.224  0.00  0.00     0.051 H 
ATOM     12  H5  <0> d          -0.767   2.683  -1.226  0.00  0.00     0.051 H 
BRANCH  10  13
ATOM     13  C5  <0> d          -0.047   1.107  -2.471  0.00  0.00     0.174 C 
ATOM     14  O1  <0> d           0.945   0.425  -2.374  0.00  0.00    -0.648 OA
ATOM     15  O2  <0> d          -0.522   1.431  -3.684  0.00  0.00    -0.648 OA
ENDBRANCH  10  13
ENDBRANCH   7  10
ENDBRANCH   5   7
BRANCH   3  16
ATOM     16  N4  <0> d          -2.099   3.978   3.388  0.00  0.00    -0.230 N 
ATOM     17  H6  <0> d          -2.539   3.866   4.245  0.00  0.00     0.174 HD
ATOM     18  H7  <0> d          -1.992   4.866   3.011  0.00  0.00     0.174 HD
ENDBRANCH   3  16
TORSDOF 4
