REMARK  3 active torsions:
REMARK  status: ('A' for Active; 'I' for Inactive)
REMARK    1  A    between atoms: C1_1  and  N1_2 
REMARK    2  A    between atoms: N1_2  and  S1_3 
REMARK    3  A    between atoms: S1_3  and  C2_6 
ROOT
ATOM      1  S1  <0> d          -1.550   1.936   0.020  0.00  0.00     0.247 S 
ATOM      2  O1  <0> d          -2.337   1.347   1.046  0.00  0.00    -0.201 OA
ATOM      3  O2  <0> d          -1.240   3.323  -0.001  0.00  0.00    -0.201 OA
ENDROOT
BRANCH   1   4
ATOM      4  N1  <0> d          -2.311   1.599  -1.412  0.00  0.00    -0.321 N 
ATOM      5  H4  <0> d          -2.342   2.368  -2.198  0.00  0.00     0.171 HD
BRANCH   4   6
ATOM      6  C1  <0> d          -2.740   0.231  -1.709  0.00  0.00    -0.011 C 
ATOM      7  H1  <0> d          -3.222   0.204  -2.698  0.00  0.00     0.057 H 
ATOM      8  H2  <0> d          -3.455  -0.104  -0.944  0.00  0.00     0.057 H 
ATOM      9  H3  <0> d          -1.865  -0.436  -1.710  0.00  0.00     0.057 H 
ENDBRANCH   4   6
ENDBRANCH   1   4
BRANCH   1  10
ATOM     10  C2  <0> d          -0.013   1.076   0.008  0.00  0.00     0.018 C 
ATOM     11  C3  <0> d           1.113   1.746   0.001  0.00  0.00    -0.109 C 
ATOM     12  H6  <0> d           2.073   1.209  -0.007  0.00  0.00     0.067 H 
ATOM     13  H7  <0> d           1.098   2.846   0.002  0.00  0.00     0.067 H 
ATOM     14  H5  <0> d           0.002  -0.024   0.007  0.00  0.00     0.103 H 
ENDBRANCH   1  10
TORSDOF 3
