REMARK  3 active torsions:
REMARK  status: ('A' for Active; 'I' for Inactive)
REMARK    1  A    between atoms: C1_1  and  O1_2 
REMARK    2  A    between atoms: O1_2  and  C2_3 
REMARK    3  A    between atoms: C2_3  and  C3_5 
ROOT
ATOM      1  C3  <0> d          -1.247  -2.105   0.003  0.00  0.00     0.062 A 
ATOM      2  C4  <0> d          -0.050  -2.867  -0.007  0.00  0.00    -0.060 A 
ATOM      3  C5  <0> d          -0.136  -4.224  -0.014  0.00  0.00    -0.009 A 
ATOM      4  C6  <0> d          -1.405  -4.835  -0.011  0.00  0.00     0.287 A 
ATOM      5  O3  <0> d          -1.491  -6.050  -0.017  0.00  0.00    -0.260 OA
ATOM      6  O4  <0> d          -2.522  -4.088  -0.001  0.00  0.00    -0.287 OA
ATOM      7  C7  <0> d          -2.462  -2.752   0.011  0.00  0.00     0.038 A 
ATOM      8  H4  <0> d           0.912  -2.378  -0.009  0.00  0.00     0.085 H 
ATOM      9  H5  <0> d           0.759  -4.827  -0.021  0.00  0.00     0.092 H 
ATOM     10  H6  <0> d          -3.376  -2.176   0.023  0.00  0.00     0.125 H 
ENDROOT
BRANCH   1  11
ATOM     11  C2  <0> d          -1.190  -0.632   0.010  0.00  0.00     0.294 C 
ATOM     12  O2  <0> d          -2.218   0.016   0.023  0.00  0.00    -0.259 OA
BRANCH  11  13
ATOM     13  O1  <0> d           0.002  -0.004   0.002  0.00  0.00    -0.322 OA
BRANCH  13  14
ATOM     14  C1  <0> d          -0.017   1.425   0.010  0.00  0.00     0.013 C 
ATOM     15  H1  <0> d           1.005   1.802   0.002  0.00  0.00     0.067 H 
ATOM     16  H2  <0> d          -0.544   1.786  -0.873  0.00  0.00     0.067 H 
ATOM     17  H3  <0> d          -0.527   1.776   0.907  0.00  0.00     0.067 H 
ENDBRANCH  13  14
ENDBRANCH  11  13
ENDBRANCH   1  11
TORSDOF 3
