REMARK  5 active torsions:
REMARK  status: ('A' for Active; 'I' for Inactive)
REMARK    1  A    between atoms: C1_1  and  C2_2 
REMARK    2  A    between atoms: C3_6  and  C4_8 
REMARK    3  A    between atoms: C4_8  and  C5_9 
REMARK    4  A    between atoms: C4_8  and  C6_10 
REMARK    5  A    between atoms: C4_8  and  O1_11 
ROOT
ATOM      1  C4  <0> d           0.053  -3.243   1.608  0.00  0.00     0.114 C 
ENDROOT
BRANCH   1   2
ATOM      2  C3  <0> d           0.034  -2.056   0.679  0.00  0.00     0.181 A 
ATOM      3  N2  <0> d           0.029  -2.113  -0.626  0.00  0.00    -0.155 NA
ATOM      4  N1  <0> d           0.008  -0.787  -1.090  0.00  0.00    -0.263 N 
ATOM      5  C2  <0> d           0.002  -0.004   0.002  0.00  0.00     0.118 A 
ATOM      6  H1  <0> d           0.001  -0.495  -2.015  0.00  0.00     0.190 HD
ATOM      7  N3  <0> d           0.023  -0.778   1.057  0.00  0.00    -0.214 NA
BRANCH   5   8
ATOM      8  C1  <0> d          -0.018   1.503   0.010  0.00  0.00    -0.020 C 
ATOM      9  H2  <0> d           1.004   1.880   0.003  0.00  0.00     0.037 H 
ATOM     10  H3  <0> d          -0.545   1.864  -0.873  0.00  0.00     0.037 H 
ATOM     11  H4  <0> d          -0.529   1.854   0.907  0.00  0.00     0.037 H 
ENDBRANCH   5   8
ENDBRANCH   1   2
BRANCH   1  12
ATOM     12  C5  <0> d          -1.185  -4.106   1.359  0.00  0.00    -0.041 C 
ATOM     13  H5  <0> d          -1.185  -4.452   0.325  0.00  0.00     0.032 H 
ATOM     14  H6  <0> d          -1.171  -4.964   2.030  0.00  0.00     0.032 H 
ATOM     15  H7  <0> d          -2.083  -3.515   1.543  0.00  0.00     0.032 H 
ENDBRANCH   1  12
BRANCH   1  16
ATOM     16  C6  <0> d           1.313  -4.072   1.349  0.00  0.00    -0.041 C 
ATOM     17  H8  <0> d           2.195  -3.457   1.526  0.00  0.00     0.032 H 
ATOM     18  H9  <0> d           1.327  -4.930   2.020  0.00  0.00     0.032 H 
ATOM     19  H10 <0> d           1.313  -4.419   0.316  0.00  0.00     0.032 H 
ENDBRANCH   1  16
BRANCH   1  20
ATOM     20  O1  <0> d           0.052  -2.788   2.962  0.00  0.00    -0.383 OA
ATOM     21  H11 <0> d           0.065  -3.500   3.616  0.00  0.00     0.211 HD
ENDBRANCH   1  20
TORSDOF 5
