REMARK  6 active torsions:
REMARK  status: ('A' for Active; 'I' for Inactive)
REMARK    1  A    between atoms: C1_1  and  C2_2 
REMARK    2  A    between atoms: C2_2  and  C3_3 
REMARK    3  A    between atoms: C3_3  and  C4_4 
REMARK    4  A    between atoms: C4_4  and  C5_5 
REMARK    5  A    between atoms: C5_5  and  C6_7 
REMARK    6  A    between atoms: C5_5  and  O2_9 
ROOT
ATOM      1  C3  <0> d          -0.753   1.593  -1.232  0.00  0.00    -0.063 C 
ATOM      2  H7  <0> d          -1.775   1.215  -1.224  0.00  0.00     0.033 H 
ATOM      3  H8  <0> d          -0.767   2.683  -1.226  0.00  0.00     0.033 H 
ENDROOT
BRANCH   1   4
ATOM      4  C2  <0> d          -0.037   1.099  -2.490  0.00  0.00    -0.068 C 
ATOM      5  H5  <0> d           0.986   1.476  -2.498  0.00  0.00     0.032 H 
ATOM      6  H6  <0> d          -0.022   0.009  -2.496  0.00  0.00     0.032 H 
BRANCH   4   7
ATOM      7  C1  <0> d          -0.777   1.606  -3.730  0.00  0.00    -0.077 C 
ATOM      8  H2  <0> d          -1.799   1.229  -3.722  0.00  0.00     0.027 H 
ATOM      9  H3  <0> d          -0.791   2.696  -3.724  0.00  0.00     0.027 H 
ATOM     10  H4  <0> d          -0.266   1.254  -4.627  0.00  0.00     0.027 H 
ENDBRANCH   4   7
ENDBRANCH   1   4
BRANCH   1  11
ATOM     11  C4  <0> d          -0.013   1.086   0.008  0.00  0.00    -0.032 C 
ATOM     12  H9  <0> d           0.002  -0.004   0.002  0.00  0.00     0.037 H 
ATOM     13  H10 <0> d           1.010   1.463   0.000  0.00  0.00     0.037 H 
BRANCH  11  14
ATOM     14  C5  <0> d          -0.729   1.579   1.267  0.00  0.00     0.119 C 
ATOM     15  H1  <0> d          -0.822   2.665   1.230  0.00  0.00     0.100 H 
BRANCH  14  16
ATOM     16  C6  <0> d           0.067   1.185   2.485  0.00  0.00     0.203 C 
ATOM     17  O1  <0> d          -0.396   0.401   3.280  0.00  0.00    -0.646 OA
ATOM     18  O3  <0> d           1.288   1.703   2.685  0.00  0.00    -0.646 OA
ENDBRANCH  14  16
BRANCH  14  19
ATOM     19  O2  <0> d          -2.030   0.991   1.336  0.00  0.00    -0.385 OA
ATOM     20  H11 <0> d          -2.023   0.025   1.372  0.00  0.00     0.210 HD
ENDBRANCH  14  19
ENDBRANCH  11  14
ENDBRANCH   1  11
TORSDOF 6
