REMARK  7 active torsions:
REMARK  status: ('A' for Active; 'I' for Inactive)
REMARK    1  A    between atoms: C1_1  and  C2_2 
REMARK    2  A    between atoms: C2_2  and  C3_3 
REMARK    3  A    between atoms: C2_2  and  C8_8 
REMARK    4  A    between atoms: C3_3  and  C4_4 
REMARK    5  A    between atoms: C4_4  and  C5_5 
REMARK    6  A    between atoms: C5_5  and  C6_6 
REMARK    7  A    between atoms: C5_5  and  C7_7 
ROOT
ATOM      1  C3  <0> d           0.022  -0.664   1.130  0.00  0.00    -0.095 C 
ENDROOT
BRANCH   1   2
ATOM      2  C2  <0> d           0.002  -0.004   0.002  0.00  0.00     0.034 C 
BRANCH   2   3
ATOM      3  C1  <0> d          -0.018   1.503   0.010  0.00  0.00    -0.058 C 
ATOM      4  H1  <0> d           1.004   1.880   0.003  0.00  0.00     0.029 H 
ATOM      5  H2  <0> d          -0.545   1.864  -0.873  0.00  0.00     0.029 H 
ATOM      6  H3  <0> d          -0.529   1.854   0.907  0.00  0.00     0.029 H 
ENDBRANCH   2   3
BRANCH   2   7
ATOM      7  C8  <0> d          -0.000  -0.750  -1.307  0.00  0.00    -0.058 C 
ATOM      8  H10 <0> d           1.027  -0.916  -1.633  0.00  0.00     0.029 H 
ATOM      9  H11 <0> d          -0.500  -1.710  -1.177  0.00  0.00     0.029 H 
ATOM     10  H12 <0> d          -0.529  -0.164  -2.059  0.00  0.00     0.029 H 
ENDBRANCH   2   7
ENDBRANCH   1   2
BRANCH   1  11
ATOM     11  C4  <0> d           0.041  -1.323   2.259  0.00  0.00    -0.095 C 
BRANCH  11  12
ATOM     12  C5  <0> d           0.061  -1.983   3.387  0.00  0.00     0.034 C 
BRANCH  12  13
ATOM     13  C6  <0> d           0.082  -3.489   3.378  0.00  0.00    -0.058 C 
ATOM     14  H4  <0> d           1.114  -3.839   3.367  0.00  0.00     0.029 H 
ATOM     15  H5  <0> d          -0.419  -3.865   4.271  0.00  0.00     0.029 H 
ATOM     16  H6  <0> d          -0.436  -3.855   2.491  0.00  0.00     0.029 H 
ENDBRANCH  12  13
BRANCH  12  17
ATOM     17  C7  <0> d           0.063  -1.236   4.696  0.00  0.00    -0.058 C 
ATOM     18  H7  <0> d           0.047  -0.164   4.503  0.00  0.00     0.029 H 
ATOM     19  H8  <0> d          -0.818  -1.515   5.274  0.00  0.00     0.029 H 
ATOM     20  H9  <0> d           0.962  -1.490   5.258  0.00  0.00     0.029 H 
ENDBRANCH  12  17
ENDBRANCH  11  12
ENDBRANCH   1  11
TORSDOF 7
