REMARK  2 active torsions:
REMARK  status: ('A' for Active; 'I' for Inactive)
REMARK    1  A    between atoms: C1_1  and  N1_2 
REMARK    2  A    between atoms: N1_2  and  C2_3 
ROOT
ATOM      1  C2  <0> d           0.614  -0.686   1.019  0.00  0.00     0.705 A 
ATOM      2  N2  <0> d           0.629  -2.046   0.996  0.00  0.00    -0.154 N 
ATOM      3  C3  <0> d           1.229  -2.731   1.992  0.00  0.00     0.264 A 
ATOM      4  O1  <0> d           1.250  -3.952   1.982  0.00  0.00    -0.268 OA
ATOM      5  C4  <0> d           1.829  -2.015   3.039  0.00  0.00     0.040 A 
ATOM      6  C5  <0> d           1.783  -0.637   3.012  0.00  0.00     0.233 A 
ATOM      7  N3  <0> d           1.181  -0.012   1.999  0.00  0.00    -0.035 NA
ATOM      8  F1  <0> d           2.352   0.079   4.006  0.00  0.00    -0.183 F 
ATOM      9  H5  <0> d           2.317  -2.534   3.851  0.00  0.00     0.099 H 
ATOM     10  H6  <0> d           0.209  -2.523   0.263  0.00  0.00     0.187 HD
ENDROOT
BRANCH   1  11
ATOM     11  N1  <0> d           0.002  -0.004   0.002  0.00  0.00    -0.228 N 
ATOM     12  H4  <0> d          -0.418  -0.491  -0.724  0.00  0.00     0.177 HD
BRANCH  11  13
ATOM     13  C1  <0> d          -0.018   1.461   0.010  0.00  0.00    -0.005 C 
ATOM     14  H1  <0> d           1.005   1.838   0.002  0.00  0.00     0.057 H 
ATOM     15  H2  <0> d          -0.545   1.822  -0.873  0.00  0.00     0.057 H 
ATOM     16  H3  <0> d          -0.528   1.812   0.907  0.00  0.00     0.057 H 
ENDBRANCH  11  13
ENDBRANCH   1  11
TORSDOF 2
