REMARK  0 active torsions:
REMARK  status: ('A' for Active; 'I' for Inactive)
ROOT
ATOM      1  C1  <0> d          -0.013   1.076   0.008  0.00  0.00    -0.053 A 
ATOM      2  C2  <0> d           1.056   1.890   0.002  0.00  0.00    -0.022 A 
ATOM      3  N1  <0> d           0.646   3.197   0.013  0.00  0.00    -0.365 N 
ATOM      4  H1  <0> d           1.238   3.966   0.011  0.00  0.00     0.165 HD
ATOM      5  C3  <0> d          -0.723   3.258   0.026  0.00  0.00     0.046 A 
ATOM      6  C4  <0> d          -1.200   1.931   0.018  0.00  0.00     0.032 A 
ATOM      7  C5  <0> d          -2.576   1.706   0.036  0.00  0.00     0.138 A 
ATOM      8  N2  <0> d          -3.410   2.727   0.049  0.00  0.00    -0.248 NA
ATOM      9  C6  <0> d          -2.989   3.982   0.052  0.00  0.00     0.006 A 
ATOM     10  C7  <0> d          -1.657   4.291   0.041  0.00  0.00    -0.039 A 
ATOM     11 Cl1  <0> d          -3.192   0.083   0.032  0.00  0.00    -0.061 Cl
ATOM     12  H2  <0> d           0.002  -0.004   0.002  0.00  0.00     0.087 H 
ATOM     13  H3  <0> d           2.084   1.562  -0.010  0.00  0.00     0.111 H 
ATOM     14  H4  <0> d          -3.715   4.781   0.064  0.00  0.00     0.114 H 
ATOM     15  H5  <0> d          -1.334   5.322   0.043  0.00  0.00     0.089 H 
ENDROOT
TORSDOF 0
