REMARK  6 active torsions:
REMARK  status: ('A' for Active; 'I' for Inactive)
REMARK    1  A    between atoms: C1_1  and  C2_2 
REMARK    2  A    between atoms: C5_6  and  C9_10 
REMARK    3  A    between atoms: C5_6  and  C10_11 
REMARK    4  A    between atoms: C6_7  and  C7_8 
REMARK    5  A    between atoms: C6_7  and  C8_9 
REMARK    6  A    between atoms: C10_11  and  O1_12 
ROOT
ATOM      1  C2  <0> d          -0.825   1.630  -1.193  0.00  0.00    -0.050 C 
ATOM      2  H1  <0> d          -0.571   2.673  -1.385  0.00  0.00     0.040 H 
ATOM      3  C3  <0> d          -0.013   1.086   0.008  0.00  0.00    -0.060 C 
ATOM      4  C4  <0> d          -0.802   1.617   1.230  0.00  0.00    -0.055 C 
ATOM      5  C5  <0> d          -2.284   1.500   0.797  0.00  0.00    -0.015 C 
ATOM      6  C6  <0> d          -2.296   1.508  -0.741  0.00  0.00    -0.035 C 
ATOM      7  H5  <0> d           0.002  -0.004   0.002  0.00  0.00     0.033 H 
ATOM      8  H6  <0> d           1.002   1.484   0.001  0.00  0.00     0.033 H 
ATOM      9  H7  <0> d          -0.607   1.001   2.108  0.00  0.00     0.034 H 
ATOM     10  H8  <0> d          -0.544   2.658   1.428  0.00  0.00     0.034 H 
ENDROOT
BRANCH   5  11
ATOM     11  C9  <0> d          -2.880   0.191   1.319  0.00  0.00    -0.066 C 
ATOM     12  H15 <0> d          -2.290  -0.649   0.952  0.00  0.00     0.028 H 
ATOM     13  H16 <0> d          -2.867   0.195   2.409  0.00  0.00     0.028 H 
ATOM     14  H17 <0> d          -3.907   0.094   0.968  0.00  0.00     0.028 H 
ENDBRANCH   5  11
BRANCH   5  15
ATOM     15  C10 <0> d          -3.082   2.690   1.334  0.00  0.00     0.024 C 
ATOM     16  H18 <0> d          -2.635   3.618   0.977  0.00  0.00     0.075 H 
ATOM     17  H19 <0> d          -4.112   2.624   0.983  0.00  0.00     0.075 H 
BRANCH  15  18
ATOM     18  O1  <0> d          -3.063   2.670   2.763  0.00  0.00    -0.400 OA
ATOM     19  H20 <0> d          -3.551   3.398   3.172  0.00  0.00     0.209 HD
ENDBRANCH  15  18
ENDBRANCH   5  15
BRANCH   6  20
ATOM     20  C7  <0> d          -3.102   2.704  -1.253  0.00  0.00    -0.068 C 
ATOM     21  H9  <0> d          -3.084   2.714  -2.343  0.00  0.00     0.028 H 
ATOM     22  H10 <0> d          -4.132   2.621  -0.907  0.00  0.00     0.028 H 
ATOM     23  H11 <0> d          -2.664   3.627  -0.873  0.00  0.00     0.028 H 
ENDBRANCH   6  20
BRANCH   6  24
ATOM     24  C8  <0> d          -2.899   0.205  -1.269  0.00  0.00    -0.068 C 
ATOM     25  H12 <0> d          -2.317  -0.640  -0.900  0.00  0.00     0.028 H 
ATOM     26  H13 <0> d          -3.929   0.116  -0.923  0.00  0.00     0.028 H 
ATOM     27  H14 <0> d          -2.881   0.211  -2.359  0.00  0.00     0.028 H 
ENDBRANCH   6  24
BRANCH   1  28
ATOM     28  C1  <0> d          -0.573   0.781  -2.440  0.00  0.00    -0.072 C 
ATOM     29  H2  <0> d          -0.851  -0.254  -2.237  0.00  0.00     0.028 H 
ATOM     30  H3  <0> d          -1.172   1.162  -3.267  0.00  0.00     0.028 H 
ATOM     31  H4  <0> d           0.484   0.828  -2.704  0.00  0.00     0.028 H 
ENDBRANCH   1  28
TORSDOF 6
