REMARK  3 active torsions:
REMARK  status: ('A' for Active; 'I' for Inactive)
REMARK    1  A    between atoms: C1_1  and  N1_2 
REMARK    2  A    between atoms: N1_2  and  C2_3 
REMARK    3  A    between atoms: N1_2  and  C3_4 
ROOT
ATOM      1  C3  <0> d           1.177   2.087   0.002  0.00  0.00     0.029 A 
ATOM      2  C4  <0> d          -0.017   1.377   0.010  0.00  0.00    -0.054 A 
ATOM      3  C5  <0> d           0.002  -0.004   0.002  0.00  0.00    -0.044 A 
ATOM      4  C6  <0> d           1.210  -0.681  -0.013  0.00  0.00     0.116 A 
ATOM      5  C7  <0> d           2.401   0.025  -0.021  0.00  0.00    -0.044 A 
ATOM      6  C8  <0> d           2.387   1.406  -0.013  0.00  0.00    -0.054 A 
ATOM      7  F1  <0> d           1.226  -2.032  -0.020  0.00  0.00    -0.206 F 
ATOM      8  H7  <0> d          -0.959   1.905   0.017  0.00  0.00     0.087 H 
ATOM      9  H8  <0> d          -0.926  -0.556   0.008  0.00  0.00     0.088 H 
ATOM     10  H9  <0> d           3.342  -0.506  -0.033  0.00  0.00     0.088 H 
ATOM     11  H10 <0> d           3.317   1.955  -0.018  0.00  0.00     0.087 H 
ENDROOT
BRANCH   1  12
ATOM     12  N1  <0> d           1.161   3.485   0.009  0.00  0.00    -0.390 N 
BRANCH  12  13
ATOM     13  C1  <0> d          -0.117   4.202   0.025  0.00  0.00    -0.019 C 
ATOM     14  H1  <0> d          -0.677   3.928   0.919  0.00  0.00     0.056 H 
ATOM     15  H2  <0> d           0.070   5.276   0.029  0.00  0.00     0.056 H 
ATOM     16  H3  <0> d          -0.693   3.937  -0.861  0.00  0.00     0.056 H 
ENDBRANCH  12  13
BRANCH  12  17
ATOM     17  C2  <0> d           2.420   4.232   0.001  0.00  0.00    -0.019 C 
ATOM     18  H4  <0> d           2.723   4.423  -1.028  0.00  0.00     0.056 H 
ATOM     19  H5  <0> d           2.284   5.180   0.521  0.00  0.00     0.056 H 
ATOM     20  H6  <0> d           3.192   3.650   0.505  0.00  0.00     0.056 H 
ENDBRANCH  12  17
ENDBRANCH   1  12
TORSDOF 3
