REMARK  3 active torsions:
REMARK  status: ('A' for Active; 'I' for Inactive)
REMARK    1  A    between atoms: C1_1  and  C2_2 
REMARK    2  A    between atoms: C3_3  and  C4_4 
REMARK    3  A    between atoms: C7_9  and  C8_12 
ROOT
ATOM      1  C4  <0> d          -0.603   1.563   3.659  0.00  0.00     0.148 C 
ATOM      2  H1  <0> d          -1.625   1.196   3.745  0.00  0.00     0.136 H 
ATOM      3  O1  <0> d          -0.605   2.992   3.687  0.00  0.00    -0.358 OA
ATOM      4  C5  <0> d          -1.337   3.588   2.612  0.00  0.00     0.025 C 
ATOM      5  C6  <0> d          -0.746   3.112   1.280  0.00  0.00    -0.021 C 
ATOM      6  C7  <0> d          -0.729   1.579   1.267  0.00  0.00     0.040 C 
ATOM      7  H2  <0> d          -1.752   1.203   1.276  0.00  0.00     0.083 H 
ATOM      8  O2  <0> d          -0.035   1.110   2.427  0.00  0.00    -0.353 OA
ATOM      9  H8  <0> d          -2.383   3.290   2.673  0.00  0.00     0.074 H 
ATOM     10  H9  <0> d          -1.263   4.674   2.678  0.00  0.00     0.074 H 
ATOM     11  H10 <0> d           0.271   3.489   1.177  0.00  0.00     0.040 H 
ATOM     12  H11 <0> d          -1.358   3.477   0.455  0.00  0.00     0.040 H 
ENDROOT
BRANCH   1  13
ATOM     13  C3  <0> d           0.216   1.039   4.811  0.00  0.00    -0.055 C 
ATOM     14  C2  <0> d          -0.339   0.268   5.713  0.00  0.00    -0.106 C 
ATOM     15  H6  <0> d          -1.384   0.007   5.630  0.00  0.00     0.075 H 
ATOM     16  H7  <0> d           1.261   1.300   4.894  0.00  0.00     0.083 H 
BRANCH  14  17
ATOM     17  C1  <0> d           0.479  -0.256   6.864  0.00  0.00    -0.060 C 
ATOM     18  H3  <0> d           1.307  -0.853   6.481  0.00  0.00     0.032 H 
ATOM     19  H4  <0> d           0.873   0.582   7.441  0.00  0.00     0.032 H 
ATOM     20  H5  <0> d          -0.149  -0.875   7.505  0.00  0.00     0.032 H 
ENDBRANCH  14  17
ENDBRANCH   1  13
BRANCH   6  21
ATOM     21  C8  <0> d          -0.013   1.086   0.008  0.00  0.00    -0.052 C 
ATOM     22  H12 <0> d           0.002  -0.004   0.002  0.00  0.00     0.030 H 
ATOM     23  H13 <0> d           1.010   1.463   0.000  0.00  0.00     0.030 H 
ATOM     24  H14 <0> d          -0.540   1.447  -0.875  0.00  0.00     0.030 H 
ENDBRANCH   6  21
TORSDOF 3
