REMARK  1 active torsions:
REMARK  status: ('A' for Active; 'I' for Inactive)
REMARK    1  A    between atoms: C5_6  and  C6_7 
ROOT
ATOM      1  C1  <0> d           3.608   3.183  -0.009  0.00  0.00    -0.052 A 
ATOM      2  C2  <0> d           4.769   3.932  -0.021  0.00  0.00     0.003 A 
ATOM      3  N1  <0> d           4.725   5.249  -0.014  0.00  0.00    -0.273 NA
ATOM      4  C3  <0> d           3.584   5.910   0.001  0.00  0.00     0.003 A 
ATOM      5  C4  <0> d           2.377   5.240   0.008  0.00  0.00    -0.052 A 
ATOM      6  C5  <0> d           2.377   3.843   0.001  0.00  0.00     0.015 A 
ATOM      7  H1  <0> d           3.652   2.104  -0.010  0.00  0.00     0.087 H 
ATOM      8  H2  <0> d           5.726   3.430  -0.032  0.00  0.00     0.114 H 
ATOM      9  H3  <0> d           3.594   6.990   0.007  0.00  0.00     0.114 H 
ATOM     10  H4  <0> d           1.446   5.788   0.019  0.00  0.00     0.087 H 
ENDROOT
BRANCH   6  11
ATOM     11  C6  <0> d           1.104   3.081   0.008  0.00  0.00     0.162 A 
ATOM     12  N4  <0> d          -0.060   3.726   0.023  0.00  0.00    -0.222 NA
ATOM     13  C8  <0> d          -1.191   3.043   0.030  0.00  0.00     0.090 A 
ATOM     14  N3  <0> d          -1.168   1.721   0.017  0.00  0.00    -0.235 NA
ATOM     15  H6  <0> d          -2.136   3.566   0.042  0.00  0.00     0.146 H 
ATOM     16  C7  <0> d          -0.013   1.076   0.008  0.00  0.00     0.090 A 
ATOM     17  N2  <0> d           1.123   1.751   0.001  0.00  0.00    -0.222 NA
ATOM     18  H5  <0> d           0.002  -0.004   0.002  0.00  0.00     0.146 H 
ENDBRANCH   6  11
TORSDOF 1
