REMARK  8 active torsions:
REMARK  status: ('A' for Active; 'I' for Inactive)
REMARK    1  A    between atoms: C1_1  and  C2_2 
REMARK    2  A    between atoms: C2_2  and  C3_3 
REMARK    3  A    between atoms: C2_2  and  C4_4 
REMARK    4  A    between atoms: C4_4  and  C5_5 
REMARK    5  A    between atoms: C5_5  and  C6_6 
REMARK    6  A    between atoms: C5_5  and  C7_7 
REMARK    7  A    between atoms: C5_5  and  O1_10 
REMARK    8  A    between atoms: C7_7  and  C8_8 
ROOT
ATOM      1  C5  <0> d           0.116  -0.231   2.488  0.00  0.00     0.058 C 
ENDROOT
BRANCH   1   2
ATOM      2  C4  <0> d           0.848  -0.509   1.173  0.00  0.00    -0.034 C 
ATOM      3  H8  <0> d           1.182  -1.546   1.156  0.00  0.00     0.037 H 
ATOM      4  H9  <0> d           1.710   0.152   1.090  0.00  0.00     0.037 H 
BRANCH   2   5
ATOM      5  C2  <0> d          -0.101  -0.260  -0.001  0.00  0.00    -0.059 C 
ATOM      6  H4  <0> d          -1.010  -0.845   0.136  0.00  0.00     0.039 H 
BRANCH   5   7
ATOM      7  C1  <0> d          -0.456   1.227  -0.063  0.00  0.00    -0.073 C 
ATOM      8  H1  <0> d           0.458   1.821  -0.031  0.00  0.00     0.028 H 
ATOM      9  H2  <0> d          -0.991   1.435  -0.990  0.00  0.00     0.028 H 
ATOM     10  H3  <0> d          -1.087   1.486   0.787  0.00  0.00     0.028 H 
ENDBRANCH   5   7
BRANCH   5  11
ATOM     11  C3  <0> d           0.582  -0.676  -1.306  0.00  0.00    -0.073 C 
ATOM     12  H5  <0> d           1.491  -0.091  -1.443  0.00  0.00     0.028 H 
ATOM     13  H6  <0> d           0.834  -1.735  -1.262  0.00  0.00     0.028 H 
ATOM     14  H7  <0> d          -0.094  -0.498  -2.142  0.00  0.00     0.028 H 
ENDBRANCH   5  11
ENDBRANCH   2   5
ENDBRANCH   1   2
BRANCH   1  15
ATOM     15  C6  <0> d          -1.175  -1.052   2.537  0.00  0.00    -0.048 C 
ATOM     16  H10 <0> d          -0.933  -2.113   2.472  0.00  0.00     0.031 H 
ATOM     17  H11 <0> d          -1.696  -0.854   3.473  0.00  0.00     0.031 H 
ATOM     18  H12 <0> d          -1.814  -0.773   1.699  0.00  0.00     0.031 H 
ENDBRANCH   1  15
BRANCH   1  19
ATOM     19  C7  <0> d           1.014  -0.622   3.663  0.00  0.00    -0.022 C 
ATOM     20  H13 <0> d           1.327  -1.660   3.552  0.00  0.00     0.043 H 
ATOM     21  H14 <0> d           1.892   0.024   3.680  0.00  0.00     0.043 H 
BRANCH  19  22
ATOM     22  C8  <0> d           0.250  -0.464   4.953  0.00  0.00    -0.109 C 
ATOM     23  C9  <0> d           0.144  -1.474   5.780  0.00  0.00    -0.125 C 
ATOM     24  H16 <0> d           0.605  -2.421   5.537  0.00  0.00     0.066 H 
ATOM     25  H17 <0> d          -0.403  -1.361   6.704  0.00  0.00     0.066 H 
ATOM     26  H15 <0> d          -0.211   0.482   5.195  0.00  0.00     0.075 H 
ENDBRANCH  19  22
ENDBRANCH   1  19
BRANCH   1  27
ATOM     27  O1  <0> d          -0.201   1.160   2.572  0.00  0.00    -0.390 OA
ATOM     28  H18 <0> d           0.572   1.741   2.546  0.00  0.00     0.210 HD
ENDBRANCH   1  27
TORSDOF 8
