REMARK  5 active torsions:
REMARK  status: ('A' for Active; 'I' for Inactive)
REMARK    1  A    between atoms: C1_1  and  O1_2 
REMARK    2  A    between atoms: O1_2  and  C2_3 
REMARK    3  A    between atoms: C2_3  and  C3_5 
REMARK    4  A    between atoms: C3_5  and  N1_6 
REMARK    5  A    between atoms: C6_9  and  N3_11 
ROOT
ATOM      1  N1  <0> d           1.398  -2.528   2.296  0.00  0.00    -0.270 N 
ATOM      2  C4  <0> d           0.937  -3.369   3.245  0.00  0.00     0.003 A 
ATOM      3  C5  <0> d           1.896  -3.494   4.191  0.00  0.00    -0.021 A 
ATOM      4  C6  <0> d           2.987  -2.697   3.805  0.00  0.00     0.142 A 
ATOM      5  N2  <0> d           2.687  -2.122   2.664  0.00  0.00    -0.155 NA
ATOM      6  H6  <0> d          -0.027  -3.856   3.249  0.00  0.00     0.114 H 
ATOM      7  H7  <0> d           1.834  -4.098   5.083  0.00  0.00     0.091 H 
ENDROOT
BRANCH   1   8
ATOM      8  C3  <0> d           0.679  -2.115   1.088  0.00  0.00     0.096 C 
ATOM      9  H4  <0> d          -0.334  -2.519   1.113  0.00  0.00     0.082 H 
ATOM     10  H5  <0> d           1.199  -2.493   0.208  0.00  0.00     0.082 H 
BRANCH   8  11
ATOM     11  C2  <0> d           0.618  -0.611   1.029  0.00  0.00     0.278 C 
ATOM     12  O2  <0> d           1.124   0.049   1.905  0.00  0.00    -0.263 OA
BRANCH  11  13
ATOM     13  O1  <0> d           0.002  -0.004   0.002  0.00  0.00    -0.325 OA
BRANCH  13  14
ATOM     14  C1  <0> d          -0.017   1.425   0.010  0.00  0.00     0.013 C 
ATOM     15  H1  <0> d           1.005   1.802   0.002  0.00  0.00     0.067 H 
ATOM     16  H2  <0> d          -0.544   1.786  -0.873  0.00  0.00     0.067 H 
ATOM     17  H3  <0> d          -0.527   1.776   0.907  0.00  0.00     0.067 H 
ENDBRANCH  13  14
ENDBRANCH  11  13
ENDBRANCH   8  11
ENDBRANCH   1   8
BRANCH   4  18
ATOM     18  N3  <0> d           4.186  -2.548   4.512  0.00  0.00    -0.383 N 
ATOM     19  H8  <0> d           4.318  -3.019   5.349  0.00  0.00     0.157 HD
ATOM     20  H9  <0> d           4.885  -1.972   4.164  0.00  0.00     0.157 HD
ENDBRANCH   4  18
TORSDOF 5
