REMARK  4 active torsions:
REMARK  status: ('A' for Active; 'I' for Inactive)
REMARK    1  A    between atoms: C1_1  and  C2_2 
REMARK    2  A    between atoms: C5_6  and  C8_11 
REMARK    3  A    between atoms: C8_11  and  C9_12 
REMARK    4  A    between atoms: C8_11  and  C10_13 
ROOT
ATOM      1  C2  <0> d           0.002  -0.004   0.002  0.00  0.00    -0.051 C 
ATOM      2  H1  <0> d           0.512  -0.356  -0.895  0.00  0.00     0.040 H 
ATOM      3  C3  <0> d          -1.433  -0.534   0.014  0.00  0.00    -0.061 C 
ATOM      4  C4  <0> d          -2.183   0.028   1.222  0.00  0.00    -0.055 C 
ATOM      5  C5  <0> d          -1.525  -0.479   2.510  0.00  0.00     0.007 C 
ATOM      6  H2  <0> d          -1.640  -1.561   2.579  0.00  0.00     0.052 H 
ATOM      7  C6  <0> d          -0.055  -0.126   2.470  0.00  0.00     0.131 C 
ATOM      8  O1  <0> d           0.469   0.450   3.393  0.00  0.00    -0.298 OA
ATOM      9  C7  <0> d           0.743  -0.512   1.244  0.00  0.00    -0.006 C 
ATOM     10  H6  <0> d          -1.940  -0.227  -0.902  0.00  0.00     0.033 H 
ATOM     11  H7  <0> d          -1.417  -1.622   0.071  0.00  0.00     0.033 H 
ATOM     12  H8  <0> d          -2.146   1.117   1.200  0.00  0.00     0.034 H 
ATOM     13  H9  <0> d          -3.222  -0.302   1.191  0.00  0.00     0.034 H 
ATOM     14  H10 <0> d           0.837  -1.597   1.195  0.00  0.00     0.044 H 
ATOM     15  H11 <0> d           1.732  -0.057   1.292  0.00  0.00     0.044 H 
ENDROOT
BRANCH   5  16
ATOM     16  C8  <0> d          -2.185   0.186   3.720  0.00  0.00    -0.051 C 
ATOM     17  H12 <0> d          -2.062   1.267   3.652  0.00  0.00     0.040 H 
BRANCH  16  18
ATOM     18  C9  <0> d          -3.675  -0.159   3.742  0.00  0.00    -0.072 C 
ATOM     19  H13 <0> d          -3.798  -1.240   3.810  0.00  0.00     0.028 H 
ATOM     20  H14 <0> d          -4.145   0.315   4.604  0.00  0.00     0.028 H 
ATOM     21  H15 <0> d          -4.145   0.204   2.827  0.00  0.00     0.028 H 
ENDBRANCH  16  18
BRANCH  16  22
ATOM     22  C10 <0> d          -1.525  -0.323   5.004  0.00  0.00    -0.072 C 
ATOM     23  H16 <0> d          -0.463  -0.077   4.988  0.00  0.00     0.028 H 
ATOM     24  H17 <0> d          -1.995   0.151   5.866  0.00  0.00     0.028 H 
ATOM     25  H18 <0> d          -1.647  -1.404   5.072  0.00  0.00     0.028 H 
ENDBRANCH  16  22
ENDBRANCH   5  16
BRANCH   1  26
ATOM     26  C1  <0> d          -0.019   1.526   0.010  0.00  0.00    -0.073 C 
ATOM     27  H3  <0> d           1.004   1.903   0.003  0.00  0.00     0.028 H 
ATOM     28  H4  <0> d          -0.546   1.887  -0.873  0.00  0.00     0.028 H 
ATOM     29  H5  <0> d          -0.529   1.877   0.907  0.00  0.00     0.028 H 
ENDBRANCH   1  26
TORSDOF 4
