REMARK  2 active torsions:
REMARK  status: ('A' for Active; 'I' for Inactive)
REMARK    1  A    between atoms: C1_1  and  C2_2 
REMARK    2  A    between atoms: C5_5  and  N1_9 
ROOT
ATOM      1  C2  <0> d           0.002  -0.004   0.002  0.00  0.00    -0.060 A 
ATOM      2  C3  <0> d           0.006  -0.687  -1.200  0.00  0.00    -0.075 A 
ATOM      3  C4  <0> d           0.025  -2.068  -1.212  0.00  0.00    -0.056 A 
ATOM      4  C5  <0> d           0.040  -2.772  -0.015  0.00  0.00     0.047 A 
ATOM      5  C6  <0> d           0.037  -2.082   1.192  0.00  0.00     0.060 A 
ATOM      6  C7  <0> d           0.023  -0.700   1.197  0.00  0.00    -0.054 A 
ATOM      7 Cl1  <0> d           0.056  -2.956   2.692  0.00  0.00    -0.082 Cl
ATOM      8  H4  <0> d          -0.006  -0.140  -2.131  0.00  0.00     0.084 H 
ATOM      9  H5  <0> d           0.027  -2.601  -2.152  0.00  0.00     0.087 H 
ATOM     10  H6  <0> d           0.024  -0.163   2.134  0.00  0.00     0.087 H 
ENDROOT
BRANCH   1  11
ATOM     11  C1  <0> d          -0.018   1.503   0.010  0.00  0.00    -0.051 C 
ATOM     12  H1  <0> d           1.004   1.880   0.003  0.00  0.00     0.033 H 
ATOM     13  H2  <0> d          -0.545   1.864  -0.873  0.00  0.00     0.033 H 
ATOM     14  H3  <0> d          -0.529   1.854   0.907  0.00  0.00     0.033 H 
ENDBRANCH   1  11
BRANCH   4  15
ATOM     15  N1  <0> d           0.059  -4.169  -0.023  0.00  0.00    -0.398 N 
ATOM     16  H7  <0> d           0.060  -4.649  -0.866  0.00  0.00     0.156 HD
ATOM     17  H8  <0> d           0.069  -4.659   0.814  0.00  0.00     0.156 HD
ENDBRANCH   4  15
TORSDOF 2
