REMARK  0 active torsions:
REMARK  status: ('A' for Active; 'I' for Inactive)
ROOT
ATOM      1  C1  <0> d           1.136   3.177   0.008  0.00  0.00    -0.082 A 
ATOM      2  C2  <0> d           1.156   1.784   0.001  0.00  0.00    -0.082 A 
ATOM      3  C3  <0> d          -0.013   1.076   0.008  0.00  0.00    -0.066 A 
ATOM      4  C4  <0> d          -1.219   1.763   0.017  0.00  0.00     0.015 A 
ATOM      5  C5  <0> d          -1.262   3.182   0.031  0.00  0.00    -0.019 A 
ATOM      6  C6  <0> d          -0.032   3.873   0.023  0.00  0.00    -0.072 A 
ATOM      7  C7  <0> d          -2.472   3.873   0.046  0.00  0.00    -0.071 A 
ATOM      8  C8  <0> d          -3.734   3.414   0.055  0.00  0.00    -0.076 A 
ATOM      9  C9  <0> d          -4.087   2.061   0.052  0.00  0.00    -0.044 A 
ATOM     10  S1  <0> d          -2.745   0.962   0.034  0.00  0.00    -0.101 SA
ATOM     11  H1  <0> d           2.071   3.717   0.002  0.00  0.00     0.083 H 
ATOM     12  H2  <0> d           2.101   1.261  -0.012  0.00  0.00     0.083 H 
ATOM     13  H3  <0> d           0.002  -0.004   0.002  0.00  0.00     0.085 H 
ATOM     14  H4  <0> d          -0.018   4.953   0.029  0.00  0.00     0.084 H 
ATOM     15  H5  <0> d          -2.380   4.949   0.050  0.00  0.00     0.084 H 
ATOM     16  H6  <0> d          -4.532   4.141   0.066  0.00  0.00     0.084 H 
ATOM     17  H7  <0> d          -5.114   1.727   0.061  0.00  0.00     0.095 H 
ENDROOT
TORSDOF 0
