REMARK  4 active torsions:
REMARK  status: ('A' for Active; 'I' for Inactive)
REMARK    1  A    between atoms: C1_1  and  C2_2 
REMARK    2  A    between atoms: C2_2  and  C3_3 
REMARK    3  A    between atoms: C2_2  and  C4_4 
REMARK    4  A    between atoms: C2_2  and  N1_5 
ROOT
ATOM      1  N1  <0> d           0.688  -0.476  -1.203  0.00  0.00    -0.356 N 
ATOM      2  C5  <0> d           0.123  -1.262  -2.165  0.00  0.00    -0.018 A 
ATOM      3  C6  <0> d           1.036  -1.502  -3.123  0.00  0.00    -0.046 A 
ATOM      4  C7  <0> d           2.260  -0.805  -2.711  0.00  0.00     0.061 A 
ATOM      5  C8  <0> d           1.967  -0.193  -1.524  0.00  0.00     0.000 A 
ATOM      6  C9  <0> d           3.507  -0.770  -3.413  0.00  0.00     0.101 C 
ATOM      7  N2  <0> d           4.497  -0.742  -3.970  0.00  0.00    -0.191 NA
ATOM      8  H10 <0> d          -0.892  -1.631  -2.158  0.00  0.00     0.111 H 
ATOM      9  H11 <0> d           0.897  -2.091  -4.017  0.00  0.00     0.088 H 
ATOM     10  H12 <0> d           2.645   0.413  -0.941  0.00  0.00     0.114 H 
ENDROOT
BRANCH   1  11
ATOM     11  C2  <0> d           0.002  -0.004   0.002  0.00  0.00     0.025 C 
BRANCH  11  12
ATOM     12  C1  <0> d          -0.019   1.526   0.010  0.00  0.00    -0.053 C 
ATOM     13  H1  <0> d           1.004   1.903   0.003  0.00  0.00     0.030 H 
ATOM     14  H2  <0> d          -0.546   1.887  -0.873  0.00  0.00     0.030 H 
ATOM     15  H3  <0> d          -0.529   1.877   0.907  0.00  0.00     0.030 H 
ENDBRANCH  11  12
BRANCH  11  16
ATOM     16  C3  <0> d           0.742  -0.511   1.242  0.00  0.00    -0.053 C 
ATOM     17  H4  <0> d           0.232  -0.159   2.138  0.00  0.00     0.030 H 
ATOM     18  H5  <0> d           0.757  -1.601   1.236  0.00  0.00     0.030 H 
ATOM     19  H6  <0> d           1.765  -0.134   1.234  0.00  0.00     0.030 H 
ENDBRANCH  11  16
BRANCH  11  20
ATOM     20  C4  <0> d          -1.433  -0.534   0.013  0.00  0.00    -0.053 C 
ATOM     21  H7  <0> d          -1.960  -0.173  -0.870  0.00  0.00     0.030 H 
ATOM     22  H8  <0> d          -1.419  -1.623   0.007  0.00  0.00     0.030 H 
ATOM     23  H9  <0> d          -1.944  -0.182   0.910  0.00  0.00     0.030 H 
ENDBRANCH  11  20
ENDBRANCH   1  11
TORSDOF 4
