REMARK  0 active torsions:
REMARK  status: ('A' for Active; 'I' for Inactive)
ROOT
ATOM      1  C1  <0> d          -0.013   1.076   0.008  0.00  0.00    -0.065 A 
ATOM      2  C2  <0> d           1.170   1.791   0.001  0.00  0.00    -0.066 A 
ATOM      3  C3  <0> d           1.103   3.196   0.009  0.00  0.00     0.034 A 
ATOM      4  C4  <0> d          -0.149   3.808   0.024  0.00  0.00     0.048 A 
ATOM      5  N1  <0> d          -1.249   3.077   0.031  0.00  0.00    -0.265 NA
ATOM      6  C5  <0> d          -1.215   1.759   0.017  0.00  0.00     0.003 A 
ATOM      7  C6  <0> d           0.025   5.309   0.030  0.00  0.00    -0.017 A 
ATOM      8  C7  <0> d           1.538   5.568   0.017  0.00  0.00    -0.000 A 
ATOM      9  C8  <0> d           2.177   4.200   0.003  0.00  0.00     0.161 A 
ATOM     10  O1  <0> d           3.368   3.970  -0.009  0.00  0.00    -0.292 OA
ATOM     11  H1  <0> d           0.002  -0.004   0.002  0.00  0.00     0.085 H 
ATOM     12  H2  <0> d           2.123   1.283  -0.011  0.00  0.00     0.085 H 
ATOM     13  H3  <0> d          -2.142   1.204   0.018  0.00  0.00     0.114 H 
ATOM     14  H4  <0> d          -0.436   5.743  -0.857  0.00  0.00     0.043 H 
ATOM     15  H5  <0> d          -0.420   5.734   0.929  0.00  0.00     0.043 H 
ATOM     16  H6  <0> d           1.778   6.099  -0.796  0.00  0.00     0.045 H 
ATOM     17  H7  <0> d           1.835   6.117   0.910  0.00  0.00     0.045 H 
ENDROOT
TORSDOF 0
