REMARK  3 active torsions:
REMARK  status: ('A' for Active; 'I' for Inactive)
REMARK    1  A    between atoms: C1_1  and  O1_2 
REMARK    2  A    between atoms: O1_2  and  C2_3 
REMARK    3  A    between atoms: C2_3  and  C3_5 
ROOT
ATOM      1  C3  <0> d           1.189   2.023   0.002  0.00  0.00     0.060 A 
ATOM      2  C4  <0> d           2.380   1.283  -0.014  0.00  0.00    -0.047 A 
ATOM      3  C5  <0> d           2.281  -0.099  -0.020  0.00  0.00     0.025 A 
ATOM      4  N1  <0> d           1.095  -0.675  -0.012  0.00  0.00    -0.163 NA
ATOM      5  N2  <0> d           0.002  -0.004   0.002  0.00  0.00    -0.162 NA
ATOM      6  C6  <0> d          -0.016   1.315   0.009  0.00  0.00     0.039 A 
ATOM      7  H4  <0> d           3.341   1.774  -0.021  0.00  0.00     0.087 H 
ATOM      8  H5  <0> d           3.176  -0.704  -0.032  0.00  0.00     0.117 H 
ATOM      9  H6  <0> d          -0.957   1.845   0.017  0.00  0.00     0.119 H 
ENDROOT
BRANCH   1  10
ATOM     10  C2  <0> d           1.208   3.503   0.009  0.00  0.00     0.294 C 
ATOM     11  O2  <0> d           2.267   4.097   0.002  0.00  0.00    -0.259 OA
BRANCH  10  12
ATOM     12  O1  <0> d           0.050   4.191   0.023  0.00  0.00    -0.322 OA
BRANCH  12  13
ATOM     13  C1  <0> d           0.145   5.640   0.030  0.00  0.00     0.013 C 
ATOM     14  H1  <0> d          -0.857   6.069   0.041  0.00  0.00     0.067 H 
ATOM     15  H2  <0> d           0.689   5.965   0.916  0.00  0.00     0.067 H 
ATOM     16  H3  <0> d           0.673   5.974  -0.864  0.00  0.00     0.067 H 
ENDBRANCH  12  13
ENDBRANCH  10  12
ENDBRANCH   1  10
TORSDOF 3
