REMARK  4 active torsions:
REMARK  status: ('A' for Active; 'I' for Inactive)
REMARK    1  A    between atoms: C1_1  and  C2_2 
REMARK    2  A    between atoms: C2_2  and  C3_3 
REMARK    3  A    between atoms: C2_2  and  C4_4 
REMARK    4  A    between atoms: C2_2  and  N1_7 
ROOT
ATOM      1  C2  <0> d           0.002  -0.004   0.002  0.00  0.00     0.117 C 
ENDROOT
BRANCH   1   2
ATOM      2  C1  <0> d          -0.019   1.526   0.010  0.00  0.00    -0.043 C 
ATOM      3  H1  <0> d           1.004   1.903   0.003  0.00  0.00     0.031 H 
ATOM      4  H2  <0> d          -0.546   1.887  -0.873  0.00  0.00     0.031 H 
ATOM      5  H3  <0> d          -0.529   1.877   0.907  0.00  0.00     0.031 H 
ENDBRANCH   1   2
BRANCH   1   6
ATOM      6  C3  <0> d           0.742  -0.511   1.242  0.00  0.00    -0.043 C 
ATOM      7  H4  <0> d           0.232  -0.159   2.138  0.00  0.00     0.031 H 
ATOM      8  H5  <0> d           0.757  -1.601   1.236  0.00  0.00     0.031 H 
ATOM      9  H6  <0> d           1.765  -0.134   1.234  0.00  0.00     0.031 H 
ENDBRANCH   1   6
BRANCH   1  10
ATOM     10  C4  <0> d          -1.412  -0.526   0.013  0.00  0.00     0.202 C 
ATOM     11  O1  <0> d          -2.349   0.254   0.026  0.00  0.00    -0.646 OA
ATOM     12  O2  <0> d          -1.618  -1.727   0.008  0.00  0.00    -0.646 OA
ENDBRANCH   1  10
BRANCH   1  13
ATOM     13  N1  <0> d           0.688  -0.476  -1.203  0.00  0.00    -0.347 N 
ATOM     14  C8  <0> d           0.892  -1.782  -1.541  0.00  0.00    -0.019 A 
ATOM     15  C7  <0> d           1.552  -1.815  -2.716  0.00  0.00    -0.067 A 
ATOM     16  H10 <0> d           0.578  -2.641  -0.967  0.00  0.00     0.111 H 
ATOM     17  C6  <0> d           1.772  -0.481  -3.114  0.00  0.00    -0.067 A 
ATOM     18  H9  <0> d           1.860  -2.700  -3.252  0.00  0.00     0.085 H 
ATOM     19  C5  <0> d           1.232   0.316  -2.170  0.00  0.00    -0.019 A 
ATOM     20  H8  <0> d           2.279  -0.157  -4.011  0.00  0.00     0.085 H 
ATOM     21  H7  <0> d           1.231   1.396  -2.178  0.00  0.00     0.111 H 
ENDBRANCH   1  13
TORSDOF 4
