REMARK  4 active torsions:
REMARK  status: ('A' for Active; 'I' for Inactive)
REMARK    1  A    between atoms: C1_1  and  C2_2 
REMARK    2  A    between atoms: C2_2  and  C3_3 
REMARK    3  A    between atoms: C3_3  and  C4_5 
REMARK    4  A    between atoms: C3_3  and  O2_10 
ROOT
ATOM      1  C3  <0> d          -1.250   2.205   0.020  0.00  0.00     0.081 C 
ATOM      2  H1  <0> d          -2.080   1.649   0.456  0.00  0.00     0.093 H 
ENDROOT
BRANCH   1   3
ATOM      3  C2  <0> d          -1.603   2.609  -1.413  0.00  0.00    -0.039 C 
ATOM      4  H5  <0> d          -0.812   3.240  -1.818  0.00  0.00     0.036 H 
ATOM      5  H6  <0> d          -1.704   1.714  -2.028  0.00  0.00     0.036 H 
BRANCH   3   6
ATOM      6  C1  <0> d          -2.924   3.381  -1.415  0.00  0.00    -0.074 C 
ATOM      7  H2  <0> d          -2.823   4.276  -0.800  0.00  0.00     0.027 H 
ATOM      8  H3  <0> d          -3.175   3.669  -2.436  0.00  0.00     0.027 H 
ATOM      9  H4  <0> d          -3.715   2.750  -1.010  0.00  0.00     0.027 H 
ENDBRANCH   3   6
ENDBRANCH   1   3
BRANCH   1  10
ATOM     10  C4  <0> d          -0.016   1.341   0.009  0.00  0.00     0.081 A 
ATOM     11  O1  <0> d           1.252   1.783  -0.000  0.00  0.00    -0.324 OA
ATOM     12  C7  <0> d           2.091   0.734  -0.014  0.00  0.00     0.019 A 
ATOM     13  C6  <0> d           1.361  -0.395  -0.013  0.00  0.00    -0.059 A 
ATOM     14  H9  <0> d           3.170   0.789  -0.024  0.00  0.00     0.123 H 
ATOM     15  C5  <0> d           0.002  -0.004   0.002  0.00  0.00    -0.050 A 
ATOM     16  H8  <0> d           1.739  -1.407  -0.022  0.00  0.00     0.086 H 
ATOM     17  H7  <0> d          -0.856  -0.659   0.006  0.00  0.00     0.087 H 
ENDBRANCH   1  10
BRANCH   1  18
ATOM     18  O2  <0> d          -1.004   3.378   0.798  0.00  0.00    -0.389 OA
ATOM     19  H10 <0> d          -0.276   3.924   0.468  0.00  0.00     0.210 HD
ENDBRANCH   1  18
TORSDOF 4
