REMARK  3 active torsions:
REMARK  status: ('A' for Active; 'I' for Inactive)
REMARK    1  A    between atoms: C3_3  and  N2_9 
REMARK    2  A    between atoms: C5_6  and  C6_7 
REMARK    3  A    between atoms: C6_7  and  O1_8 
ROOT
ATOM      1  C1  <0> d           1.094   3.754   1.210  0.00  0.00    -0.070 A 
ATOM      2  C2  <0> d           0.965   5.131   1.175  0.00  0.00    -0.038 A 
ATOM      3  C3  <0> d           0.894   5.772  -0.058  0.00  0.00     0.120 A 
ATOM      4  N1  <0> d           0.949   5.077  -1.183  0.00  0.00    -0.243 NA
ATOM      5  C4  <0> d           1.077   3.764  -1.180  0.00  0.00     0.013 A 
ATOM      6  C5  <0> d           1.147   3.062   0.008  0.00  0.00    -0.017 A 
ATOM      7  H1  <0> d           1.151   3.229   2.152  0.00  0.00     0.084 H 
ATOM      8  H2  <0> d           0.921   5.700   2.091  0.00  0.00     0.089 H 
ATOM      9  H3  <0> d           1.123   3.230  -2.118  0.00  0.00     0.115 H 
ENDROOT
BRANCH   6  10
ATOM     10  C6  <0> d           1.286   1.562  -0.002  0.00  0.00     0.042 C 
ATOM     11  H4  <0> d           1.828   1.250  -0.907  0.00  0.00     0.081 H 
ATOM     12  H5  <0> d           1.845   1.240   0.889  0.00  0.00     0.081 H 
BRANCH  10  13
ATOM     13  O1  <0> d          -0.011   0.963   0.007  0.00  0.00    -0.396 OA
ATOM     14  H6  <0> d          -0.111  -0.133   0.002  0.00  0.00     0.209 HD
ENDBRANCH  10  13
ENDBRANCH   6  10
BRANCH   3  15
ATOM     15  N2  <0> d           0.765   7.155  -0.108  0.00  0.00    -0.384 N 
ATOM     16  H7  <0> d           0.709   7.668  -1.080  0.00  0.00     0.157 HD
ATOM     17  H8  <0> d           0.720   7.738   0.824  0.00  0.00     0.157 HD
ENDBRANCH   3  15
TORSDOF 3
