REMARK  1 active torsions:
REMARK  status: ('A' for Active; 'I' for Inactive)
REMARK    1  A    between atoms: C10_12  and  O1_14 
ROOT
ATOM      1  C1  <0> d          -4.319  -0.503   0.041  0.00  0.00    -0.065 C 
ATOM      2  C2  <0> d          -3.603  -0.996  -1.218  0.00  0.00    -0.065 C 
ATOM      3  C3  <0> d          -2.167  -0.467  -1.229  0.00  0.00    -0.059 C 
ATOM      4  C4  <0> d          -2.188   1.063  -1.221  0.00  0.00    -0.026 C 
ATOM      5  H1  <0> d          -2.715   1.424  -2.104  0.00  0.00     0.044 H 
ATOM      6  C5  <0> d          -2.904   1.556   0.038  0.00  0.00    -0.048 C 
ATOM      7  H2  <0> d          -2.919   2.646   0.044  0.00  0.00     0.040 H 
ATOM      8  C6  <0> d          -4.340   1.027   0.049  0.00  0.00    -0.061 C 
ATOM      9  C7  <0> d          -2.164   1.050   1.278  0.00  0.00    -0.061 C 
ATOM     10  C8  <0> d          -0.729   1.579   1.267  0.00  0.00    -0.062 C 
ATOM     11  C9  <0> d          -0.013   1.086   0.008  0.00  0.00    -0.041 C 
ATOM     12  C10 <0> d          -0.753   1.593  -1.232  0.00  0.00     0.039 C 
ATOM     13  H3  <0> d          -0.242   1.241  -2.128  0.00  0.00     0.083 H 
ATOM     14  H4  <0> d          -5.341  -0.880   0.048  0.00  0.00     0.033 H 
ATOM     15  H5  <0> d          -3.792  -0.864   0.924  0.00  0.00     0.033 H 
ATOM     16  H6  <0> d          -4.130  -0.635  -2.101  0.00  0.00     0.033 H 
ATOM     17  H7  <0> d          -3.588  -2.086  -1.224  0.00  0.00     0.033 H 
ATOM     18  H8  <0> d          -1.657  -0.818  -2.126  0.00  0.00     0.033 H 
ATOM     19  H9  <0> d          -1.640  -0.828  -0.346  0.00  0.00     0.033 H 
ATOM     20  H10 <0> d          -4.867   1.388  -0.834  0.00  0.00     0.033 H 
ATOM     21  H11 <0> d          -4.850   1.378   0.946  0.00  0.00     0.033 H 
ATOM     22  H12 <0> d          -2.674   1.401   2.175  0.00  0.00     0.033 H 
ATOM     23  H13 <0> d          -2.149  -0.040   1.272  0.00  0.00     0.033 H 
ATOM     24  H14 <0> d          -0.202   1.218   2.150  0.00  0.00     0.033 H 
ATOM     25  H15 <0> d          -0.744   2.669   1.273  0.00  0.00     0.033 H 
ATOM     26  H16 <0> d           0.002  -0.004   0.002  0.00  0.00     0.036 H 
ATOM     27  H17 <0> d           1.010   1.463   0.000  0.00  0.00     0.036 H 
ENDROOT
BRANCH  12  28
ATOM     28  O1  <0> d          -0.772   3.022  -1.224  0.00  0.00    -0.395 OA
ATOM     29  H18 <0> d           0.106   3.427  -1.230  0.00  0.00     0.210 HD
ENDBRANCH  12  28
TORSDOF 1
