REMARK  2 active torsions:
REMARK  status: ('A' for Active; 'I' for Inactive)
REMARK    1  A    between atoms: C1_1  and  C2_2 
REMARK    2  A    between atoms: C3_3  and  C8_8 
ROOT
ATOM      1  C2  <0> d          -0.003  -0.004   0.002  0.00  0.00    -0.082 C 
ATOM      2  C3  <0> d          -0.095  -0.606  -1.140  0.00  0.00    -0.082 C 
ATOM      3  C4  <0> d          -0.095  -2.098  -1.307  0.00  0.00    -0.045 C 
ATOM      4  C5  <0> d           0.446  -2.769  -0.043  0.00  0.00    -0.061 C 
ATOM      5  C6  <0> d          -0.284  -2.179   1.171  0.00  0.00    -0.061 C 
ATOM      6  C7  <0> d           0.134  -0.713   1.318  0.00  0.00    -0.045 C 
ATOM      7  H4  <0> d          -1.113  -2.441  -1.491  0.00  0.00     0.039 H 
ATOM      8  H5  <0> d           0.534  -2.366  -2.155  0.00  0.00     0.039 H 
ATOM      9  H6  <0> d           0.266  -3.843  -0.092  0.00  0.00     0.033 H 
ATOM     10  H7  <0> d           1.516  -2.578   0.045  0.00  0.00     0.033 H 
ATOM     11  H8  <0> d          -1.361  -2.243   1.016  0.00  0.00     0.033 H 
ATOM     12  H9  <0> d          -0.007  -2.731   2.069  0.00  0.00     0.033 H 
ATOM     13  H10 <0> d           1.171  -0.661   1.650  0.00  0.00     0.039 H 
ATOM     14  H11 <0> d          -0.504  -0.230   2.057  0.00  0.00     0.039 H 
ENDROOT
BRANCH   1  15
ATOM     15  C1  <0> d          -0.028   1.503   0.011  0.00  0.00    -0.054 C 
ATOM     16  H1  <0> d          -0.025   1.860   1.041  0.00  0.00     0.033 H 
ATOM     17  H2  <0> d           0.851   1.884  -0.509  0.00  0.00     0.033 H 
ATOM     18  H3  <0> d          -0.929   1.854  -0.492  0.00  0.00     0.033 H 
ENDBRANCH   1  15
BRANCH   2  19
ATOM     19  C8  <0> d          -0.211   0.243  -2.379  0.00  0.00    -0.054 C 
ATOM     20  H12 <0> d          -0.104   1.294  -2.110  0.00  0.00     0.033 H 
ATOM     21  H13 <0> d           0.574  -0.033  -3.083  0.00  0.00     0.033 H 
ATOM     22  H14 <0> d          -1.185   0.083  -2.840  0.00  0.00     0.033 H 
ENDBRANCH   2  19
TORSDOF 2
