REMARK  8 active torsions:
REMARK  status: ('A' for Active; 'I' for Inactive)
REMARK    1  A    between atoms: C1_1  and  C2_2 
REMARK    2  A    between atoms: C2_2  and  C3_3 
REMARK    3  A    between atoms: C3_3  and  O1_4 
REMARK    4  A    between atoms: O1_4  and  C4_5 
REMARK    5  A    between atoms: C4_5  and  C5_7 
REMARK    6  A    between atoms: C4_5  and  O2_8 
REMARK    7  A    between atoms: O2_8  and  C6_9 
REMARK    8  A    between atoms: C6_9  and  C7_11 
ROOT
ATOM      1  C4  <0> d           1.140  -2.356  -2.330  0.00  0.00     0.136 C 
ATOM      2  H1  <0> d           2.214  -2.194  -2.418  0.00  0.00     0.129 H 
ENDROOT
BRANCH   1   3
ATOM      3  O1  <0> d           0.609  -1.488  -1.326  0.00  0.00    -0.361 OA
BRANCH   3   4
ATOM      4  C3  <0> d           1.053  -0.135  -1.433  0.00  0.00     0.022 C 
ATOM      5  H7  <0> d           0.663   0.305  -2.351  0.00  0.00     0.074 H 
ATOM      6  H8  <0> d           2.143  -0.111  -1.453  0.00  0.00     0.074 H 
BRANCH   4   7
ATOM      7  C2  <0> d           0.548   0.665  -0.231  0.00  0.00    -0.048 C 
ATOM      8  H5  <0> d           0.938   0.226   0.688  0.00  0.00     0.035 H 
ATOM      9  H6  <0> d          -0.542   0.641  -0.210  0.00  0.00     0.035 H 
BRANCH   7  10
ATOM     10  C1  <0> d           1.024   2.114  -0.345  0.00  0.00    -0.075 C 
ATOM     11  H2  <0> d           2.113   2.138  -0.365  0.00  0.00     0.027 H 
ATOM     12  H3  <0> d           0.634   2.554  -1.263  0.00  0.00     0.027 H 
ATOM     13  H4  <0> d           0.664   2.684   0.512  0.00  0.00     0.027 H 
ENDBRANCH   7  10
ENDBRANCH   4   7
ENDBRANCH   3   4
ENDBRANCH   1   3
BRANCH   1  14
ATOM     14  C5  <0> d           0.874  -3.811  -1.939  0.00  0.00    -0.031 C 
ATOM     15  H9  <0> d           1.280  -4.472  -2.705  0.00  0.00     0.034 H 
ATOM     16  H10 <0> d           1.354  -4.024  -0.984  0.00  0.00     0.034 H 
ATOM     17  H11 <0> d          -0.200  -3.973  -1.851  0.00  0.00     0.034 H 
ENDBRANCH   1  14
BRANCH   1  18
ATOM     18  O2  <0> d           0.512  -2.076  -3.582  0.00  0.00    -0.290 OA
BRANCH  18  19
ATOM     19  C6  <0> d           0.947  -1.000  -4.256  0.00  0.00     0.257 C 
ATOM     20  O3  <0> d           1.899  -0.377  -3.849  0.00  0.00    -0.266 OA
BRANCH  19  21
ATOM     21  C7  <0> d           0.248  -0.568  -5.519  0.00  0.00     0.004 C 
ATOM     22  H12 <0> d          -0.581  -1.245  -5.726  0.00  0.00     0.041 H 
ATOM     23  H13 <0> d          -0.134   0.445  -5.395  0.00  0.00     0.041 H 
ATOM     24  H14 <0> d           0.952  -0.592  -6.351  0.00  0.00     0.041 H 
ENDBRANCH  19  21
ENDBRANCH  18  19
ENDBRANCH   1  18
TORSDOF 8
