REMARK  2 active torsions:
REMARK  status: ('A' for Active; 'I' for Inactive)
REMARK    1  A    between atoms: C1_1  and  C2_2 
REMARK    2  A    between atoms: C2_2  and  C6_9 
ROOT
ATOM      1  C2  <0> d          -0.797   3.480   0.028  0.00  0.00     0.045 A 
ATOM      2  C3  <0> d           0.738   3.390   0.013  0.00  0.00     0.043 A 
ATOM      3  O1  <0> d           1.077   1.980   0.002  0.00  0.00    -0.314 OA
ATOM      4  C4  <0> d          -0.014   1.208   0.009  0.00  0.00     0.330 A 
ATOM      5  O2  <0> d           0.002  -0.004   0.002  0.00  0.00    -0.256 OA
ATOM      6  C5  <0> d          -1.254   2.036   0.018  0.00  0.00     0.233 A 
ATOM      7  O3  <0> d          -2.393   1.635   0.021  0.00  0.00    -0.286 OA
ATOM      8  H4  <0> d           1.147   3.865   0.904  0.00  0.00     0.077 H 
ATOM      9  H5  <0> d           1.131   3.874  -0.881  0.00  0.00     0.077 H 
ENDROOT
BRANCH   1  10
ATOM     10  C1  <0> d          -1.279   4.192   1.293  0.00  0.00    -0.060 C 
ATOM     11  H1  <0> d          -0.865   5.199   1.324  0.00  0.00     0.029 H 
ATOM     12  H2  <0> d          -2.368   4.247   1.286  0.00  0.00     0.029 H 
ATOM     13  H3  <0> d          -0.949   3.636   2.171  0.00  0.00     0.029 H 
ENDBRANCH   1  10
BRANCH   1  14
ATOM     14  C6  <0> d          -1.302   4.207  -1.220  0.00  0.00    -0.060 C 
ATOM     15  H6  <0> d          -0.988   3.663  -2.111  0.00  0.00     0.029 H 
ATOM     16  H7  <0> d          -2.390   4.262  -1.193  0.00  0.00     0.029 H 
ATOM     17  H8  <0> d          -0.888   5.215  -1.246  0.00  0.00     0.029 H 
ENDBRANCH   1  14
TORSDOF 2
