REMARK  1 active torsions:
REMARK  status: ('A' for Active; 'I' for Inactive)
REMARK    1  A    between atoms: C2_2  and  C3_3 
ROOT
ATOM      1  C1  <0> d           1.147   4.693   0.016  0.00  0.00    -0.149 C 
ATOM      2  C2  <0> d           1.164   3.519   0.010  0.00  0.00    -0.078 C 
ATOM      3  H1  <0> d           1.133   5.742   0.022  0.00  0.00     0.166 H 
ENDROOT
BRANCH   2   4
ATOM      4  C3  <0> d           1.184   2.087   0.002  0.00  0.00     0.017 A 
ATOM      5  C8  <0> d           2.403   1.405  -0.013  0.00  0.00    -0.063 A 
ATOM      6  C7  <0> d           2.423   0.030  -0.021  0.00  0.00    -0.061 A 
ATOM      7  H5  <0> d           3.331   1.959  -0.020  0.00  0.00     0.085 H 
ATOM      8  C6  <0> d           1.222  -0.686  -0.013  0.00  0.00     0.044 A 
ATOM      9  H4  <0> d           3.366  -0.497  -0.033  0.00  0.00     0.085 H 
ATOM     10  C5  <0> d           0.002  -0.004   0.002  0.00  0.00    -0.061 A 
ATOM     11  C9  <0> d           1.242  -2.118  -0.021  0.00  0.00     0.099 C 
ATOM     12  C4  <0> d          -0.017   1.372   0.010  0.00  0.00    -0.063 A 
ATOM     13  H3  <0> d          -0.926  -0.557   0.008  0.00  0.00     0.085 H 
ATOM     14  H2  <0> d          -0.959   1.899   0.017  0.00  0.00     0.085 H 
ATOM     15  N1  <0> d           1.258  -3.254  -0.027  0.00  0.00    -0.191 NA
ENDBRANCH   2   4
TORSDOF 1
