REMARK  2 active torsions:
REMARK  status: ('A' for Active; 'I' for Inactive)
REMARK    1  A    between atoms: C1_1  and  C2_2 
REMARK    2  A    between atoms: C2_2  and  C3_3 
ROOT
ATOM      1  C3  <0> d          -1.433  -0.534   0.013  0.00  0.00    -0.054 C 
ATOM      2  C4  <0> d          -2.135  -0.131  -1.286  0.00  0.00    -0.056 C 
ATOM      3  C5  <0> d          -3.571  -0.661  -1.275  0.00  0.00    -0.004 C 
ATOM      4  C6  <0> d          -3.551  -2.186  -1.157  0.00  0.00     0.243 C 
ATOM      5  C7  <0> d          -2.849  -2.589   0.141  0.00  0.00    -0.004 C 
ATOM      6  C8  <0> d          -1.413  -2.059   0.130  0.00  0.00    -0.056 C 
ATOM      7  F1  <0> d          -4.863  -2.670  -1.147  0.00  0.00    -0.206 F 
ATOM      8  F2  <0> d          -2.862  -2.729  -2.248  0.00  0.00    -0.206 F 
ATOM      9  H6  <0> d          -1.970  -0.111   0.862  0.00  0.00     0.040 H 
ATOM     10  H7  <0> d          -2.150   0.956  -1.369  0.00  0.00     0.033 H 
ATOM     11  H8  <0> d          -1.598  -0.554  -2.135  0.00  0.00     0.033 H 
ATOM     12  H9  <0> d          -4.107  -0.238  -0.426  0.00  0.00     0.041 H 
ATOM     13  H10 <0> d          -4.071  -0.374  -2.200  0.00  0.00     0.041 H 
ATOM     14  H11 <0> d          -3.385  -2.166   0.990  0.00  0.00     0.041 H 
ATOM     15  H12 <0> d          -2.834  -3.675   0.225  0.00  0.00     0.041 H 
ATOM     16  H13 <0> d          -0.876  -2.482  -0.719  0.00  0.00     0.033 H 
ATOM     17  H14 <0> d          -0.913  -2.346   1.055  0.00  0.00     0.033 H 
ENDROOT
BRANCH   1  18
ATOM     18  C2  <0> d           0.002  -0.004   0.002  0.00  0.00    -0.065 C 
ATOM     19  H4  <0> d           0.512  -0.356  -0.895  0.00  0.00     0.033 H 
ATOM     20  H5  <0> d           0.529  -0.365   0.885  0.00  0.00     0.033 H 
BRANCH  18  21
ATOM     21  C1  <0> d          -0.019   1.526   0.010  0.00  0.00    -0.076 C 
ATOM     22  H1  <0> d           1.004   1.903   0.003  0.00  0.00     0.027 H 
ATOM     23  H2  <0> d          -0.546   1.887  -0.873  0.00  0.00     0.027 H 
ATOM     24  H3  <0> d          -0.529   1.877   0.907  0.00  0.00     0.027 H 
ENDBRANCH  18  21
ENDBRANCH   1  18
TORSDOF 2
