REMARK  2 active torsions:
REMARK  status: ('A' for Active; 'I' for Inactive)
REMARK    1  A    between atoms: C1_1  and  C2_2 
REMARK    2  A    between atoms: C3_3  and  C9_11 
ROOT
ATOM      1  C2  <0> d           0.002  -0.004   0.002  0.00  0.00    -0.007 A 
ATOM      2  C3  <0> d           0.009  -0.817  -1.120  0.00  0.00     0.059 A 
ATOM      3  N1  <0> d           0.028  -2.074  -0.738  0.00  0.00    -0.172 NA
ATOM      4  N2  <0> d           0.035  -2.124   0.661  0.00  0.00    -0.244 N 
ATOM      5  C4  <0> d           0.024  -0.831   1.118  0.00  0.00     0.066 A 
ATOM      6  C5  <0> d           0.033  -0.574   2.503  0.00  0.00    -0.054 A 
ATOM      7  C6  <0> d           0.056  -1.620   3.372  0.00  0.00    -0.079 A 
ATOM      8  C7  <0> d           0.070  -2.934   2.876  0.00  0.00    -0.066 A 
ATOM      9  C8  <0> d           0.053  -3.163   1.546  0.00  0.00     0.004 A 
ATOM     10  H4  <0> d           0.022   0.442   2.870  0.00  0.00     0.087 H 
ATOM     11  H5  <0> d           0.063  -1.441   4.437  0.00  0.00     0.083 H 
ATOM     12  H6  <0> d           0.088  -3.767   3.564  0.00  0.00     0.085 H 
ATOM     13  H7  <0> d           0.066  -4.178   1.179  0.00  0.00     0.114 H 
ENDROOT
BRANCH   1  14
ATOM     14  C1  <0> d          -0.018   1.503   0.010  0.00  0.00    -0.047 C 
ATOM     15  H1  <0> d           1.004   1.880   0.003  0.00  0.00     0.033 H 
ATOM     16  H2  <0> d          -0.545   1.864  -0.873  0.00  0.00     0.033 H 
ATOM     17  H3  <0> d          -0.529   1.854   0.907  0.00  0.00     0.033 H 
ENDBRANCH   1  14
BRANCH   2  18
ATOM     18  C9  <0> d          -0.004  -0.336  -2.549  0.00  0.00    -0.033 C 
ATOM     19  H8  <0> d           1.020  -0.205  -2.897  0.00  0.00     0.035 H 
ATOM     20  H9  <0> d          -0.511  -1.071  -3.175  0.00  0.00     0.035 H 
ATOM     21  H10 <0> d          -0.532   0.616  -2.607  0.00  0.00     0.035 H 
ENDBRANCH   2  18
TORSDOF 2
