REMARK  1 active torsions:
REMARK  status: ('A' for Active; 'I' for Inactive)
REMARK    1  A    between atoms: C4_4  and  C6_7 
ROOT
ATOM      1  C1  <0> d           1.192   2.069   0.002  0.00  0.00    -0.065 A 
ATOM      2  C2  <0> d          -0.017   1.395   0.010  0.00  0.00    -0.059 A 
ATOM      3  C3  <0> d           0.002  -0.004   0.002  0.00  0.00     0.080 A 
ATOM      4  C4  <0> d           1.243  -0.664  -0.013  0.00  0.00     0.153 A 
ATOM      5  N1  <0> d           2.372   0.031  -0.020  0.00  0.00    -0.253 NA
ATOM      6  C5  <0> d           2.376   1.347  -0.013  0.00  0.00     0.003 A 
ATOM      7  C7  <0> d          -1.220  -0.750   0.010  0.00  0.00     0.102 C 
ATOM      8  N2  <0> d          -2.190  -1.342   0.017  0.00  0.00    -0.191 NA
ATOM      9  H1  <0> d           1.213   3.149   0.007  0.00  0.00     0.085 H 
ATOM     10  H2  <0> d          -0.952   1.936   0.017  0.00  0.00     0.086 H 
ATOM     11  H3  <0> d           3.318   1.874  -0.020  0.00  0.00     0.114 H 
ENDROOT
BRANCH   4  12
ATOM     12  C6  <0> d           1.290  -2.144  -0.021  0.00  0.00     0.230 C 
ATOM     13  O1  <0> d           0.258  -2.784  -0.015  0.00  0.00    -0.643 OA
ATOM     14  O2  <0> d           2.477  -2.780  -0.036  0.00  0.00    -0.643 OA
ENDBRANCH   4  12
TORSDOF 1
