REMARK  4 active torsions:
REMARK  status: ('A' for Active; 'I' for Inactive)
REMARK    1  A    between atoms: C1_1  and  C2_2 
REMARK    2  A    between atoms: C5_5  and  C8_9 
REMARK    3  A    between atoms: C7_7  and  N1_8 
REMARK    4  A    between atoms: C8_9  and  C9_11 
ROOT
ATOM      1  C2  <0> d          -3.716   3.290   0.038  0.00  0.00    -0.036 A 
ATOM      2  C3  <0> d          -2.527   3.995   0.037  0.00  0.00    -0.074 A 
ATOM      3  C4  <0> d          -1.321   3.325   0.032  0.00  0.00    -0.069 A 
ATOM      4  C5  <0> d          -1.299   1.927   0.019  0.00  0.00     0.011 A 
ATOM      5  C6  <0> d          -2.501   1.215   0.021  0.00  0.00    -0.044 A 
ATOM      6  C7  <0> d          -3.706   1.900   0.030  0.00  0.00     0.032 A 
ATOM      7  H4  <0> d          -2.542   5.075   0.043  0.00  0.00     0.084 H 
ATOM      8  H5  <0> d          -0.395   3.881   0.035  0.00  0.00     0.085 H 
ATOM      9  H6  <0> d          -2.491   0.135   0.015  0.00  0.00     0.088 H 
ENDROOT
BRANCH   4  10
ATOM     10  C8  <0> d          -0.014   1.208   0.009  0.00  0.00     0.155 C 
ATOM     11  O1  <0> d           0.002  -0.004   0.002  0.00  0.00    -0.293 OA
BRANCH  10  12
ATOM     12  C9  <0> d           1.280   1.980   0.001  0.00  0.00    -0.017 C 
ATOM     13  H9  <0> d           2.049   1.340  -0.010  0.00  0.00     0.038 H 
ATOM     14  H10 <0> d           1.321   2.612  -0.887  0.00  0.00     0.038 H 
ATOM     15  H11 <0> d           1.338   2.602   0.893  0.00  0.00     0.038 H 
ENDBRANCH  10  12
ENDBRANCH   4  10
BRANCH   6  16
ATOM     16  N1  <0> d          -4.911   1.193   0.032  0.00  0.00    -0.399 N 
ATOM     17  H7  <0> d          -4.905   0.223   0.026  0.00  0.00     0.156 HD
ATOM     18  H8  <0> d          -5.755   1.672   0.039  0.00  0.00     0.156 HD
ENDBRANCH   6  16
BRANCH   1  19
ATOM     19  C1  <0> d          -5.028   4.031   0.049  0.00  0.00    -0.049 C 
ATOM     20  H1  <0> d          -5.340   4.204   1.079  0.00  0.00     0.033 H 
ATOM     21  H2  <0> d          -4.909   4.987  -0.460  0.00  0.00     0.033 H 
ATOM     22  H3  <0> d          -5.785   3.438  -0.465  0.00  0.00     0.033 H 
ENDBRANCH   1  19
TORSDOF 4
