REMARK  2 active torsions:
REMARK  status: ('A' for Active; 'I' for Inactive)
REMARK    1  A    between atoms: C1_1  and  N1_2 
REMARK    2  A    between atoms: C2_3  and  O2_9 
ROOT
ATOM      1  N1  <0> d           2.364   1.405  -0.013  0.00  0.00    -0.299 N 
ATOM      2  C2  <0> d           2.390   0.044  -0.021  0.00  0.00     0.144 A 
ATOM      3  C3  <0> d           1.228  -0.671  -0.013  0.00  0.00    -0.034 A 
ATOM      4  C4  <0> d           0.002  -0.004   0.002  0.00  0.00    -0.074 A 
ATOM      5  C5  <0> d          -0.017   1.364   0.009  0.00  0.00    -0.017 A 
ATOM      6  C6  <0> d           1.193   2.070   0.002  0.00  0.00     0.249 A 
ATOM      7  O1  <0> d           1.186   3.291   0.008  0.00  0.00    -0.268 OA
ATOM      8  H4  <0> d           1.256  -1.751  -0.020  0.00  0.00     0.090 H 
ATOM      9  H5  <0> d          -0.922  -0.562   0.008  0.00  0.00     0.083 H 
ATOM     10  H6  <0> d          -0.957   1.895   0.017  0.00  0.00     0.092 H 
ENDROOT
BRANCH   1  11
ATOM     11  C1  <0> d           3.623   2.154  -0.021  0.00  0.00    -0.009 C 
ATOM     12  H1  <0> d           3.925   2.345  -1.051  0.00  0.00     0.057 H 
ATOM     13  H2  <0> d           3.485   3.102   0.499  0.00  0.00     0.057 H 
ATOM     14  H3  <0> d           4.395   1.572   0.482  0.00  0.00     0.057 H 
ENDBRANCH   1  11
BRANCH   2  15
ATOM     15  O2  <0> d           3.576  -0.604  -0.035  0.00  0.00    -0.346 OA
ATOM     16  H7  <0> d           3.498  -1.567  -0.039  0.00  0.00     0.219 HD
ENDBRANCH   2  15
TORSDOF 2
