REMARK  2 active torsions:
REMARK  status: ('A' for Active; 'I' for Inactive)
REMARK    1  A    between atoms: C7_7  and  O2_13 
REMARK    2  A    between atoms: C9_10  and  O1_12 
ROOT
ATOM      1  C1  <0> d           3.200   1.144   3.789  0.00  0.00    -0.082 A 
ATOM      2  C2  <0> d           3.366   0.096   2.903  0.00  0.00    -0.082 A 
ATOM      3  C3  <0> d           2.780   0.150   1.652  0.00  0.00    -0.074 A 
ATOM      4  C4  <0> d           2.027   1.251   1.286  0.00  0.00    -0.021 A 
ATOM      5  C5  <0> d           1.861   2.300   2.173  0.00  0.00    -0.021 A 
ATOM      6  C6  <0> d           2.448   2.245   3.424  0.00  0.00    -0.074 A 
ATOM      7  C7  <0> d           1.000   3.370   1.528  0.00  0.00     0.064 C 
ATOM      8  H1  <0> d          -0.043   3.252   1.821  0.00  0.00     0.090 H 
ATOM      9  C8  <0> d           1.173   3.110   0.008  0.00  0.00    -0.009 C 
ATOM     10  C9  <0> d           1.286   1.562  -0.002  0.00  0.00     0.064 C 
ATOM     11  H2  <0> d           1.857   1.224  -0.867  0.00  0.00     0.090 H 
ATOM     12  H3  <0> d           3.657   1.103   4.766  0.00  0.00     0.083 H 
ATOM     13  H4  <0> d           3.953  -0.764   3.187  0.00  0.00     0.083 H 
ATOM     14  H5  <0> d           2.910  -0.669   0.961  0.00  0.00     0.084 H 
ATOM     15  H6  <0> d           2.319   3.063   4.117  0.00  0.00     0.084 H 
ATOM     16  H7  <0> d           2.084   3.574  -0.371  0.00  0.00     0.041 H 
ATOM     17  H8  <0> d           0.300   3.445  -0.552  0.00  0.00     0.041 H 
ENDROOT
BRANCH   7  18
ATOM     18  O2  <0> d           1.472   4.675   1.871  0.00  0.00    -0.391 OA
ATOM     19  H10 <0> d           1.387   4.889   2.810  0.00  0.00     0.210 HD
ENDBRANCH   7  18
BRANCH  10  20
ATOM     20  O1  <0> d          -0.011   0.963   0.007  0.00  0.00    -0.391 OA
ATOM     21  H9  <0> d           0.002  -0.004   0.002  0.00  0.00     0.210 HD
ENDBRANCH  10  20
TORSDOF 2
