REMARK  5 active torsions:
REMARK  status: ('A' for Active; 'I' for Inactive)
REMARK    1  A    between atoms: C1_1  and  C2_2 
REMARK    2  A    between atoms: C2_2  and  C3_3 
REMARK    3  A    between atoms: C3_3  and  C4_4 
REMARK    4  A    between atoms: C5_6  and  C8_12 
REMARK    5  A    between atoms: C8_12  and  C9_13 
ROOT
ATOM      1  C4  <0> d          -0.753   1.593  -1.232  0.00  0.00     0.046 C 
ATOM      2  H1  <0> d          -1.798   1.287  -1.183  0.00  0.00     0.084 H 
ATOM      3  C5  <0> d          -0.103   1.009  -2.491  0.00  0.00    -0.009 C 
ATOM      4  H2  <0> d           0.962   1.238  -2.492  0.00  0.00     0.047 H 
ATOM      5  C6  <0> d          -0.764   1.635  -3.724  0.00  0.00     0.028 C 
ATOM      6  O1  <0> d          -0.683   3.060  -3.621  0.00  0.00    -0.366 OA
ATOM      7  C7  <0> d          -1.295   3.588  -2.442  0.00  0.00     0.103 C 
ATOM      8  O2  <0> d          -0.673   3.020  -1.287  0.00  0.00    -0.361 OA
ATOM      9  H10 <0> d          -1.810   1.331  -3.772  0.00  0.00     0.075 H 
ATOM     10  H11 <0> d          -0.245   1.304  -4.624  0.00  0.00     0.075 H 
ATOM     11  H12 <0> d          -2.357   3.340  -2.441  0.00  0.00     0.117 H 
ATOM     12  H13 <0> d          -1.175   4.671  -2.424  0.00  0.00     0.117 H 
ENDROOT
BRANCH   1  13
ATOM     13  C3  <0> d          -0.013   1.086   0.008  0.00  0.00    -0.041 C 
ATOM     14  H8  <0> d           0.002  -0.004   0.002  0.00  0.00     0.036 H 
ATOM     15  H9  <0> d           1.010   1.463   0.000  0.00  0.00     0.036 H 
BRANCH  13  16
ATOM     16  C2  <0> d          -0.729   1.579   1.267  0.00  0.00    -0.066 C 
ATOM     17  H6  <0> d          -0.744   2.669   1.273  0.00  0.00     0.032 H 
ATOM     18  H7  <0> d          -1.751   1.202   1.275  0.00  0.00     0.032 H 
BRANCH  16  19
ATOM     19  C1  <0> d           0.011   1.072   2.506  0.00  0.00    -0.076 C 
ATOM     20  H3  <0> d           1.034   1.450   2.499  0.00  0.00     0.027 H 
ATOM     21  H4  <0> d          -0.499   1.424   3.403  0.00  0.00     0.027 H 
ATOM     22  H5  <0> d           0.026  -0.018   2.500  0.00  0.00     0.027 H 
ENDBRANCH  16  19
ENDBRANCH  13  16
ENDBRANCH   1  13
BRANCH   3  23
ATOM     23  C8  <0> d          -0.305  -0.507  -2.516  0.00  0.00    -0.061 C 
ATOM     24  H14 <0> d           0.076  -0.940  -1.591  0.00  0.00     0.033 H 
ATOM     25  H15 <0> d          -1.368  -0.731  -2.610  0.00  0.00     0.033 H 
BRANCH  23  26
ATOM     26  C9  <0> d           0.449  -1.103  -3.707  0.00  0.00    -0.076 C 
ATOM     27  H16 <0> d           0.067  -0.670  -4.632  0.00  0.00     0.027 H 
ATOM     28  H17 <0> d           1.512  -0.879  -3.612  0.00  0.00     0.027 H 
ATOM     29  H18 <0> d           0.305  -2.183  -3.724  0.00  0.00     0.027 H 
ENDBRANCH  23  26
ENDBRANCH   3  23
TORSDOF 5
