REMARK  4 active torsions:
REMARK  status: ('A' for Active; 'I' for Inactive)
REMARK    1  A    between atoms: C1_1  and  C2_2 
REMARK    2  A    between atoms: C4_4  and  C5_7 
REMARK    3  A    between atoms: C5_7  and  O3_9 
REMARK    4  A    between atoms: O3_9  and  C6_10 
ROOT
ATOM      1  C2  <0> d           1.042   1.924   0.002  0.00  0.00     0.077 A 
ATOM      2  C3  <0> d          -0.013   1.076   0.008  0.00  0.00    -0.017 A 
ATOM      3  C4  <0> d          -1.145   1.937   0.017  0.00  0.00     0.161 A 
ATOM      4  N1  <0> d          -0.672   3.159   0.025  0.00  0.00    -0.122 NA
ATOM      5  O1  <0> d           0.537   3.165   0.014  0.00  0.00    -0.218 OA
ATOM      6  H4  <0> d           0.002  -0.004   0.002  0.00  0.00     0.091 H 
ENDROOT
BRANCH   3   7
ATOM      7  C5  <0> d          -2.571   1.534   0.021  0.00  0.00     0.314 C 
ATOM      8  O2  <0> d          -2.869   0.357   0.015  0.00  0.00    -0.257 OA
BRANCH   7   9
ATOM      9  O3  <0> d          -3.537   2.473   0.029  0.00  0.00    -0.321 OA
BRANCH   9  10
ATOM     10  C6  <0> d          -4.911   2.005   0.032  0.00  0.00     0.013 C 
ATOM     11  H5  <0> d          -5.093   1.406  -0.860  0.00  0.00     0.067 H 
ATOM     12  H6  <0> d          -5.086   1.397   0.920  0.00  0.00     0.067 H 
ATOM     13  H7  <0> d          -5.586   2.861   0.040  0.00  0.00     0.067 H 
ENDBRANCH   9  10
ENDBRANCH   7   9
ENDBRANCH   3   7
BRANCH   1  14
ATOM     14  C1  <0> d           2.500   1.546  -0.014  0.00  0.00    -0.029 C 
ATOM     15  H1  <0> d           2.842   1.461  -1.046  0.00  0.00     0.036 H 
ATOM     16  H2  <0> d           3.080   2.314   0.499  0.00  0.00     0.036 H 
ATOM     17  H3  <0> d           2.634   0.591   0.493  0.00  0.00     0.036 H 
ENDBRANCH   1  14
TORSDOF 4
