REMARK  4 active torsions:
REMARK  status: ('A' for Active; 'I' for Inactive)
REMARK    1  A    between atoms: C1_1  and  C2_2 
REMARK    2  A    between atoms: C4_4  and  N3_8 
REMARK    3  A    between atoms: N1_5  and  C5_7 
REMARK       I    between atoms: N3_8  and  C6_9 
REMARK    4  A    between atoms: C6_9  and  C7_11 
ROOT
ATOM      1  C2  <0> d           0.002  -0.004   0.002  0.00  0.00     0.054 A 
ATOM      2  C3  <0> d           1.335  -0.425  -0.013  0.00  0.00    -0.014 A 
ATOM      3  C4  <0> d           2.123   0.684  -0.015  0.00  0.00     0.127 A 
ATOM      4  N1  <0> d           1.307   1.764  -0.001  0.00  0.00    -0.258 N 
ATOM      5  N2  <0> d          -0.016   1.304   0.009  0.00  0.00    -0.176 NA
ATOM      6  H4  <0> d           1.678  -1.449  -0.022  0.00  0.00     0.092 H 
ENDROOT
BRANCH   3   7
ATOM      7  N3  <0> d           3.517   0.705  -0.028  0.00  0.00    -0.312 N 
ATOM      8  C6  <0> d           4.208  -0.452  -0.041  0.00  0.00     0.219 C 
ATOM      9  O1  <0> d           3.617  -1.511  -0.042  0.00  0.00    -0.274 OA
ATOM     10  H8  <0> d           3.990   1.552  -0.027  0.00  0.00     0.170 HD
BRANCH   8  11
ATOM     11  C7  <0> d           5.715  -0.430  -0.055  0.00  0.00    -0.002 C 
ATOM     12  H9  <0> d           6.079   0.084   0.834  0.00  0.00     0.040 H 
ATOM     13  H10 <0> d           6.093  -1.452  -0.065  0.00  0.00     0.040 H 
ATOM     14  H11 <0> d           6.062   0.094  -0.946  0.00  0.00     0.040 H 
ENDBRANCH   8  11
ENDBRANCH   3   7
BRANCH   4  15
ATOM     15  C5  <0> d           1.733   3.166   0.003  0.00  0.00     0.004 C 
ATOM     16  H5  <0> d           1.849   3.508   1.031  0.00  0.00     0.059 H 
ATOM     17  H6  <0> d           2.685   3.257  -0.520  0.00  0.00     0.059 H 
ATOM     18  H7  <0> d           0.982   3.775  -0.500  0.00  0.00     0.059 H 
ENDBRANCH   4  15
BRANCH   1  19
ATOM     19  C1  <0> d          -1.208  -0.903   0.009  0.00  0.00    -0.034 C 
ATOM     20  H1  <0> d          -1.509  -1.115  -1.017  0.00  0.00     0.035 H 
ATOM     21  H2  <0> d          -0.963  -1.837   0.516  0.00  0.00     0.035 H 
ATOM     22  H3  <0> d          -2.025  -0.408   0.533  0.00  0.00     0.035 H 
ENDBRANCH   1  19
TORSDOF 4
