REMARK  4 active torsions:
REMARK  status: ('A' for Active; 'I' for Inactive)
REMARK    1  A    between atoms: C1_1  and  C2_2 
REMARK    2  A    between atoms: C2_2  and  C3_4 
REMARK    3  A    between atoms: C2_2  and  O1_12 
REMARK    4  A    between atoms: C4_5  and  C5_6 
ROOT
ATOM      1  C3  <0> d          -1.071   1.770   0.157  0.00  0.00    -0.075 C 
ATOM      2  C4  <0> d          -0.028   1.029  -0.189  0.00  0.00    -0.073 C 
ATOM      3  H5  <0> d          -2.005   1.298   0.420  0.00  0.00     0.080 H 
ATOM      4  H6  <0> d          -0.072  -0.046  -0.091  0.00  0.00     0.084 H 
ENDROOT
BRANCH   2   5
ATOM      5  C5  <0> d           1.195   1.673  -0.715  0.00  0.00    -0.019 A 
ATOM      6  C9  <0> d           1.106   2.717  -1.637  0.00  0.00     0.012 A 
ATOM      7  N1  <0> d           2.195   3.293  -2.102  0.00  0.00    -0.272 NA
ATOM      8  H10 <0> d           0.137   3.057  -1.968  0.00  0.00     0.116 H 
ATOM      9  C8  <0> d           3.401   2.908  -1.730  0.00  0.00     0.002 A 
ATOM     10  C7  <0> d           3.573   1.877  -0.824  0.00  0.00    -0.065 A 
ATOM     11  H9  <0> d           4.267   3.406  -2.139  0.00  0.00     0.114 H 
ATOM     12  C6  <0> d           2.460   1.242  -0.302  0.00  0.00    -0.070 A 
ATOM     13  H8  <0> d           4.566   1.571  -0.528  0.00  0.00     0.085 H 
ATOM     14  H7  <0> d           2.566   0.434   0.407  0.00  0.00     0.084 H 
ENDBRANCH   2   5
BRANCH   1  15
ATOM     15  C2  <0> d          -0.952   3.272   0.183  0.00  0.00     0.048 C 
ATOM     16  H1  <0> d           0.078   3.559  -0.030  0.00  0.00     0.088 H 
BRANCH  15  17
ATOM     17  C1  <0> d          -1.879   3.876  -0.874  0.00  0.00    -0.049 C 
ATOM     18  H2  <0> d          -2.909   3.589  -0.661  0.00  0.00     0.031 H 
ATOM     19  H3  <0> d          -1.793   4.962  -0.855  0.00  0.00     0.031 H 
ATOM     20  H4  <0> d          -1.596   3.506  -1.859  0.00  0.00     0.031 H 
ENDBRANCH  15  17
BRANCH  15  21
ATOM     21  O1  <0> d          -1.323   3.757   1.475  0.00  0.00    -0.392 OA
ATOM     22  H11 <0> d          -2.230   3.538   1.732  0.00  0.00     0.210 HD
ENDBRANCH  15  21
ENDBRANCH   1  15
TORSDOF 4
