REMARK  10 active torsions:
REMARK  status: ('A' for Active; 'I' for Inactive)
REMARK    1  A    between atoms: C1_1  and  C2_2 
REMARK    2  A    between atoms: C2_2  and  C3_3 
REMARK    3  A    between atoms: C3_3  and  C4_4 
REMARK    4  A    between atoms: C4_4  and  C5_6 
REMARK    5  A    between atoms: C4_4  and  C6_7 
REMARK    6  A    between atoms: C6_7  and  C7_9 
REMARK    7  A    between atoms: C6_7  and  O1_14 
REMARK    8  A    between atoms: C7_9  and  C8_11 
REMARK    9  A    between atoms: C7_9  and  C9_12 
REMARK   10  A    between atoms: C9_12  and  C10_13 
ROOT
ATOM      1  C6  <0> d           1.414   1.604  -0.046  0.00  0.00     0.042 C 
ATOM      2  H2  <0> d           1.280   2.683  -0.122  0.00  0.00     0.084 H 
ENDROOT
BRANCH   1   3
ATOM      3  C4  <0> d           2.098   1.084  -1.312  0.00  0.00    -0.032 C 
ATOM      4  H1  <0> d           3.110   1.484  -1.369  0.00  0.00     0.043 H 
BRANCH   3   5
ATOM      5  C3  <0> d           2.155  -0.444  -1.270  0.00  0.00    -0.060 C 
ATOM      6  H9  <0> d           2.644  -0.764  -0.350  0.00  0.00     0.033 H 
ATOM      7  H10 <0> d           1.143  -0.847  -1.303  0.00  0.00     0.033 H 
BRANCH   5   8
ATOM      8  C2  <0> d           2.947  -0.958  -2.474  0.00  0.00    -0.068 C 
ATOM      9  H7  <0> d           2.458  -0.638  -3.394  0.00  0.00     0.032 H 
ATOM     10  H8  <0> d           3.960  -0.555  -2.441  0.00  0.00     0.032 H 
BRANCH   8  11
ATOM     11  C1  <0> d           3.004  -2.486  -2.432  0.00  0.00    -0.077 C 
ATOM     12  H4  <0> d           3.569  -2.852  -3.290  0.00  0.00     0.027 H 
ATOM     13  H5  <0> d           3.493  -2.806  -1.512  0.00  0.00     0.027 H 
ATOM     14  H6  <0> d           1.992  -2.889  -2.465  0.00  0.00     0.027 H 
ENDBRANCH   8  11
ENDBRANCH   5   8
ENDBRANCH   3   5
BRANCH   3  15
ATOM     15  C5  <0> d           1.303   1.532  -2.541  0.00  0.00    -0.071 C 
ATOM     16  H11 <0> d           0.288   1.137  -2.480  0.00  0.00     0.028 H 
ATOM     17  H12 <0> d           1.268   2.620  -2.574  0.00  0.00     0.028 H 
ATOM     18  H13 <0> d           1.786   1.155  -3.442  0.00  0.00     0.028 H 
ENDBRANCH   3  15
ENDBRANCH   1   3
BRANCH   1  19
ATOM     19  C7  <0> d           2.285   1.284   1.171  0.00  0.00    -0.033 C 
ATOM     20  H3  <0> d           2.499   0.215   1.194  0.00  0.00     0.043 H 
BRANCH  19  21
ATOM     21  C8  <0> d           3.597   2.065   1.080  0.00  0.00    -0.071 C 
ATOM     22  H14 <0> d           4.184   1.897   1.982  0.00  0.00     0.028 H 
ATOM     23  H15 <0> d           4.162   1.727   0.211  0.00  0.00     0.028 H 
ATOM     24  H16 <0> d           3.380   3.129   0.980  0.00  0.00     0.028 H 
ENDBRANCH  19  21
BRANCH  19  25
ATOM     25  C9  <0> d           1.542   1.682   2.448  0.00  0.00    -0.063 C 
ATOM     26  H17 <0> d           1.406   2.764   2.467  0.00  0.00     0.033 H 
ATOM     27  H18 <0> d           0.568   1.193   2.470  0.00  0.00     0.033 H 
BRANCH  25  28
ATOM     28  C10 <0> d           2.357   1.249   3.668  0.00  0.00    -0.076 C 
ATOM     29  H19 <0> d           1.828   1.533   4.578  0.00  0.00     0.027 H 
ATOM     30  H20 <0> d           2.493   0.168   3.650  0.00  0.00     0.027 H 
ATOM     31  H21 <0> d           3.331   1.738   3.647  0.00  0.00     0.027 H 
ENDBRANCH  25  28
ENDBRANCH  19  25
ENDBRANCH   1  19
BRANCH   1  32
ATOM     32  O1  <0> d           0.140   0.974   0.101  0.00  0.00    -0.395 OA
ATOM     33  H22 <0> d           0.184   0.011   0.175  0.00  0.00     0.210 HD
ENDBRANCH   1  32
TORSDOF 10
