REMARK  1 active torsions:
REMARK  status: ('A' for Active; 'I' for Inactive)
REMARK    1  A    between atoms: C1_1  and  C2_2 
ROOT
ATOM      1  C2  <0> d          -0.718   1.572   1.248  0.00  0.00    -0.049 A 
ATOM      2  C3  <0> d          -2.063   1.788   1.231  0.00  0.00    -0.011 A 
ATOM      3  C4  <0> d          -2.699   2.235   2.402  0.00  0.00     0.246 A 
ATOM      4  O1  <0> d          -3.904   2.429   2.406  0.00  0.00    -0.268 OA
ATOM      5  N1  <0> d          -1.978   2.456   3.515  0.00  0.00    -0.327 N 
ATOM      6  H1  <0> d          -2.475   2.811   4.430  0.00  0.00     0.169 HD
ATOM      7  C5  <0> d          -0.632   2.248   3.536  0.00  0.00     0.019 A 
ATOM      8  C6  <0> d           0.008   1.811   2.427  0.00  0.00    -0.029 A 
ATOM      9  C7  <0> d           1.489   1.657   2.702  0.00  0.00    -0.038 C 
ATOM     10  C8  <0> d           1.610   1.639   4.241  0.00  0.00    -0.056 C 
ATOM     11  C9  <0> d           0.356   2.432   4.670  0.00  0.00    -0.026 C 
ATOM     12  H5  <0> d          -2.634   1.612   0.331  0.00  0.00     0.092 H 
ATOM     13  H6  <0> d           1.850   0.718   2.256  0.00  0.00     0.040 H 
ATOM     14  H7  <0> d           2.034   2.505   2.262  0.00  0.00     0.040 H 
ATOM     15  H8  <0> d           1.605   0.599   4.598  0.00  0.00     0.034 H 
ATOM     16  H9  <0> d           2.550   2.125   4.541  0.00  0.00     0.034 H 
ATOM     17  H10 <0> d           0.576   3.502   4.794  0.00  0.00     0.042 H 
ATOM     18  H11 <0> d          -0.075   2.035   5.601  0.00  0.00     0.042 H 
ENDROOT
BRANCH   1  19
ATOM     19  C1  <0> d          -0.013   1.086   0.008  0.00  0.00    -0.050 C 
ATOM     20  H2  <0> d          -0.744   0.958  -0.804  0.00  0.00     0.033 H 
ATOM     21  H3  <0> d           0.475   0.122   0.217  0.00  0.00     0.033 H 
ATOM     22  H4  <0> d           0.746   1.822  -0.295  0.00  0.00     0.033 H 
ENDBRANCH   1  19
TORSDOF 1
