REMARK  4 active torsions:
REMARK  status: ('A' for Active; 'I' for Inactive)
REMARK    1  A    between atoms: C1_1  and  C2_2 
REMARK    2  A    between atoms: C3_3  and  C7_8 
REMARK    3  A    between atoms: C7_8  and  O2_10 
REMARK    4  A    between atoms: O2_10  and  C8_11 
ROOT
ATOM      1  C2  <0> d           0.008   3.806   0.027  0.00  0.00     0.046 A 
ATOM      2  C3  <0> d          -1.182   3.122  -0.229  0.00  0.00     0.063 A 
ATOM      3  C4  <0> d          -1.167   1.722  -0.242  0.00  0.00    -0.064 A 
ATOM      4  C5  <0> d           0.030   1.076   0.011  0.00  0.00    -0.065 A 
ATOM      5  C6  <0> d           1.166   1.827   0.256  0.00  0.00     0.003 A 
ATOM      6  N1  <0> d           1.124   3.145   0.257  0.00  0.00    -0.265 NA
ATOM      7  H4  <0> d          -2.068   1.161  -0.441  0.00  0.00     0.085 H 
ATOM      8  H5  <0> d           0.078  -0.003   0.013  0.00  0.00     0.085 H 
ATOM      9  H6  <0> d           2.102   1.325   0.449  0.00  0.00     0.114 H 
ENDROOT
BRANCH   2  10
ATOM     10  C7  <0> d          -2.433   3.864  -0.486  0.00  0.00     0.294 C 
ATOM     11  O1  <0> d          -2.413   5.074  -0.585  0.00  0.00    -0.259 OA
BRANCH  10  12
ATOM     12  O2  <0> d          -3.597   3.197  -0.612  0.00  0.00    -0.322 OA
BRANCH  12  13
ATOM     13  C8  <0> d          -4.787   3.990  -0.864  0.00  0.00     0.013 C 
ATOM     14  H7  <0> d          -4.938   4.690  -0.043  0.00  0.00     0.067 H 
ATOM     15  H8  <0> d          -4.665   4.543  -1.795  0.00  0.00     0.067 H 
ATOM     16  H9  <0> d          -5.652   3.331  -0.944  0.00  0.00     0.067 H 
ENDBRANCH  12  13
ENDBRANCH  10  12
ENDBRANCH   2  10
BRANCH   1  17
ATOM     17  C1  <0> d           0.017   5.313   0.040  0.00  0.00    -0.035 C 
ATOM     18  H1  <0> d           0.115   5.684  -0.981  0.00  0.00     0.035 H 
ATOM     19  H2  <0> d          -0.916   5.678   0.471  0.00  0.00     0.035 H 
ATOM     20  H3  <0> d           0.857   5.667   0.637  0.00  0.00     0.035 H 
ENDBRANCH   1  17
TORSDOF 4
