REMARK  5 active torsions:
REMARK  status: ('A' for Active; 'I' for Inactive)
REMARK    1  A    between atoms: C1_1  and  C2_2 
REMARK    2  A    between atoms: C5_6  and  C7_8 
REMARK    3  A    between atoms: C7_8  and  C8_9 
REMARK    4  A    between atoms: C8_9  and  C9_11 
REMARK    5  A    between atoms: C8_9  and  O1_12 
ROOT
ATOM      1  C2  <0> d          -1.775   1.117   3.340  0.00  0.00    -0.059 A 
ATOM      2  C3  <0> d          -1.988   2.481   3.475  0.00  0.00    -0.060 A 
ATOM      3  C4  <0> d          -1.550   3.333   2.478  0.00  0.00     0.003 A 
ATOM      4  N1  <0> d          -0.933   2.862   1.412  0.00  0.00    -0.265 NA
ATOM      5  C5  <0> d          -0.718   1.572   1.248  0.00  0.00     0.037 A 
ATOM      6  C6  <0> d          -1.127   0.660   2.203  0.00  0.00    -0.053 A 
ATOM      7  H5  <0> d          -2.489   2.873   4.347  0.00  0.00     0.086 H 
ATOM      8  H6  <0> d          -1.712   4.396   2.576  0.00  0.00     0.114 H 
ATOM      9  H7  <0> d          -0.946  -0.396   2.064  0.00  0.00     0.087 H 
ENDROOT
BRANCH   5  10
ATOM     10  C7  <0> d          -0.013   1.086   0.008  0.00  0.00    -0.001 C 
ATOM     11  H8  <0> d           1.019   1.466   0.000  0.00  0.00     0.046 H 
ATOM     12  H9  <0> d           0.002  -0.014   0.002  0.00  0.00     0.046 H 
BRANCH  10  13
ATOM     13  C8  <0> d          -0.753   1.593  -1.232  0.00  0.00     0.037 C 
ATOM     14  H1  <0> d          -0.915   2.679  -1.182  0.00  0.00     0.082 H 
BRANCH  13  15
ATOM     15  C9  <0> d           0.031   1.205  -2.487  0.00  0.00    -0.052 C 
ATOM     16  H10 <0> d          -0.501   1.570  -3.378  0.00  0.00     0.030 H 
ATOM     17  H11 <0> d           0.124   0.111  -2.538  0.00  0.00     0.030 H 
ATOM     18  H12 <0> d           1.033   1.657  -2.448  0.00  0.00     0.030 H 
ENDBRANCH  13  15
BRANCH  13  19
ATOM     19  O1  <0> d          -2.054   1.005  -1.282  0.00  0.00    -0.396 OA
ATOM     20  H13 <0> d          -2.737   1.252  -2.108  0.00  0.00     0.210 HD
ENDBRANCH  13  19
ENDBRANCH  10  13
ENDBRANCH   5  10
BRANCH   1  21
ATOM     21  C1  <0> d          -2.237   0.156   4.404  0.00  0.00    -0.051 C 
ATOM     22  H2  <0> d          -2.724   0.715   5.217  0.00  0.00     0.033 H 
ATOM     23  H3  <0> d          -1.371  -0.392   4.804  0.00  0.00     0.033 H 
ATOM     24  H4  <0> d          -2.953  -0.557   3.969  0.00  0.00     0.033 H 
ENDBRANCH   1  21
TORSDOF 5
