REMARK  0 active torsions:
REMARK  status: ('A' for Active; 'I' for Inactive)
ROOT
ATOM      1  C1  <0> d          -0.013   1.076   0.008  0.00  0.00    -0.065 A 
ATOM      2  C2  <0> d          -1.204   1.745   0.017  0.00  0.00    -0.068 A 
ATOM      3  C3  <0> d          -1.175   3.151   0.029  0.00  0.00     0.012 A 
ATOM      4  C4  <0> d          -2.358   3.910   0.045  0.00  0.00    -0.068 A 
ATOM      5  C5  <0> d          -2.249   5.272   0.052  0.00  0.00    -0.065 A 
ATOM      6  C6  <0> d          -0.990   5.866   0.043  0.00  0.00     0.005 A 
ATOM      7  N1  <0> d           0.111   5.154   0.028  0.00  0.00    -0.241 NA
ATOM      8  C7  <0> d           0.076   3.817   0.021  0.00  0.00     0.159 A 
ATOM      9  N2  <0> d           1.205   3.101   0.007  0.00  0.00    -0.241 NA
ATOM     10  C8  <0> d           1.183   1.790   0.000  0.00  0.00     0.005 A 
ATOM     11  H1  <0> d           0.002  -0.004   0.002  0.00  0.00     0.085 H 
ATOM     12  H2  <0> d          -2.142   1.209   0.019  0.00  0.00     0.085 H 
ATOM     13  H3  <0> d          -3.326   3.430   0.051  0.00  0.00     0.085 H 
ATOM     14  H4  <0> d          -3.138   5.886   0.064  0.00  0.00     0.085 H 
ATOM     15  H5  <0> d          -0.918   6.944   0.049  0.00  0.00     0.114 H 
ATOM     16  H6  <0> d           2.118   1.250  -0.011  0.00  0.00     0.114 H 
ENDROOT
TORSDOF 0
