REMARK  8 active torsions:
REMARK  status: ('A' for Active; 'I' for Inactive)
REMARK    1  A    between atoms: C1_1  and  C2_2 
REMARK    2  A    between atoms: C2_2  and  C3_3 
REMARK    3  A    between atoms: C2_2  and  C4_4 
REMARK    4  A    between atoms: C4_4  and  O2_6 
REMARK    5  A    between atoms: O2_6  and  C5_7 
REMARK    6  A    between atoms: C5_7  and  C6_8 
REMARK    7  A    between atoms: C6_8  and  C7_9 
REMARK    8  A    between atoms: C7_9  and  O3_10 
ROOT
ATOM      1  C4  <0> d           3.534   5.890  -0.000  0.00  0.00     0.262 C 
ATOM      2  O1  <0> d           4.604   5.328  -0.013  0.00  0.00    -0.265 OA
ENDROOT
BRANCH   1   3
ATOM      3  C2  <0> d           3.474   7.395   0.009  0.00  0.00     0.023 C 
ATOM      4  H4  <0> d           2.937   7.742  -0.874  0.00  0.00     0.054 H 
BRANCH   3   5
ATOM      5  C1  <0> d           2.744   7.869   1.267  0.00  0.00    -0.065 C 
ATOM      6  H1  <0> d           3.281   7.522   2.151  0.00  0.00     0.028 H 
ATOM      7  H2  <0> d           2.700   8.958   1.274  0.00  0.00     0.028 H 
ATOM      8  H3  <0> d           1.732   7.465   1.275  0.00  0.00     0.028 H 
ENDBRANCH   3   5
BRANCH   3   9
ATOM      9  C3  <0> d           4.894   7.963  -0.002  0.00  0.00    -0.065 C 
ATOM     10  H5  <0> d           5.414   7.625  -0.899  0.00  0.00     0.028 H 
ATOM     11  H6  <0> d           4.850   9.052   0.004  0.00  0.00     0.028 H 
ATOM     12  H7  <0> d           5.431   7.616   0.881  0.00  0.00     0.028 H 
ENDBRANCH   3   9
ENDBRANCH   1   3
BRANCH   1  13
ATOM     13  O2  <0> d           2.400   5.172   0.007  0.00  0.00    -0.321 OA
BRANCH  13  14
ATOM     14  C5  <0> d           2.534   3.726  -0.002  0.00  0.00     0.031 C 
ATOM     15  H8  <0> d           3.088   3.407   0.881  0.00  0.00     0.075 H 
ATOM     16  H9  <0> d           3.071   3.417  -0.899  0.00  0.00     0.075 H 
BRANCH  14  17
ATOM     17  C6  <0> d           1.145   3.085   0.008  0.00  0.00    -0.025 C 
ATOM     18  H10 <0> d           0.591   3.404  -0.875  0.00  0.00     0.039 H 
ATOM     19  H11 <0> d           0.608   3.395   0.904  0.00  0.00     0.039 H 
BRANCH  17  20
ATOM     20  C7  <0> d           1.286   1.562  -0.002  0.00  0.00     0.019 C 
ATOM     21  H12 <0> d           1.840   1.243   0.881  0.00  0.00     0.074 H 
ATOM     22  H13 <0> d           1.823   1.252  -0.899  0.00  0.00     0.074 H 
BRANCH  20  23
ATOM     23  O3  <0> d          -0.011   0.963   0.007  0.00  0.00    -0.401 OA
ATOM     24  H14 <0> d           0.002  -0.004   0.002  0.00  0.00     0.209 HD
ENDBRANCH  20  23
ENDBRANCH  17  20
ENDBRANCH  14  17
ENDBRANCH  13  14
ENDBRANCH   1  13
TORSDOF 8
