REMARK  4 active torsions:
REMARK  status: ('A' for Active; 'I' for Inactive)
REMARK    1  A    between atoms: C1_1  and  C2_2 
REMARK    2  A    between atoms: C2_2  and  O1_3 
REMARK    3  A    between atoms: O1_3  and  C3_4 
REMARK    4  A    between atoms: C3_4  and  C4_6 
ROOT
ATOM      1  C4  <0> d          -0.887   1.682  -3.629  0.00  0.00     0.053 C 
ATOM      2  H1  <0> d          -1.905   1.297  -3.679  0.00  0.00     0.059 H 
ATOM      3  C5  <0> d          -0.074   1.238  -4.870  0.00  0.00    -0.031 C 
ATOM      4  C6  <0> d          -0.171   2.486  -5.784  0.00  0.00     0.020 C 
ATOM      5  O3  <0> d          -0.105   3.590  -4.856  0.00  0.00    -0.390 OA
ATOM      6  C7  <0> d          -0.888   3.221  -3.708  0.00  0.00     0.031 C 
ATOM      7  H7  <0> d           0.962   1.031  -4.602  0.00  0.00     0.037 H 
ATOM      8  H8  <0> d          -0.532   0.371  -5.345  0.00  0.00     0.037 H 
ATOM      9  H9  <0> d          -1.118   2.494  -6.323  0.00  0.00     0.074 H 
ATOM     10  H10 <0> d           0.668   2.518  -6.479  0.00  0.00     0.074 H 
ATOM     11  H11 <0> d          -1.908   3.585  -3.823  0.00  0.00     0.075 H 
ATOM     12  H12 <0> d          -0.442   3.639  -2.805  0.00  0.00     0.075 H 
ENDROOT
BRANCH   1  13
ATOM     13  C3  <0> d          -0.211   1.220  -2.363  0.00  0.00     0.265 C 
ATOM     14  O2  <0> d           0.783   0.536  -2.424  0.00  0.00    -0.265 OA
BRANCH  13  15
ATOM     15  O1  <0> d          -0.715   1.567  -1.168  0.00  0.00    -0.322 OA
BRANCH  15  16
ATOM     16  C2  <0> d          -0.013   1.086   0.008  0.00  0.00     0.025 C 
ATOM     17  H5  <0> d           0.002  -0.004   0.002  0.00  0.00     0.074 H 
ATOM     18  H6  <0> d           1.010   1.463   0.000  0.00  0.00     0.074 H 
BRANCH  16  19
ATOM     19  C1  <0> d          -0.729   1.579   1.267  0.00  0.00    -0.056 C 
ATOM     20  H2  <0> d          -0.744   2.669   1.273  0.00  0.00     0.030 H 
ATOM     21  H3  <0> d          -1.751   1.202   1.275  0.00  0.00     0.030 H 
ATOM     22  H4  <0> d          -0.202   1.218   2.150  0.00  0.00     0.030 H 
ENDBRANCH  16  19
ENDBRANCH  15  16
ENDBRANCH  13  15
ENDBRANCH   1  13
TORSDOF 4
