REMARK  0 active torsions:
REMARK  status: ('A' for Active; 'I' for Inactive)
ROOT
ATOM      1  C1  <0> d          -0.017   1.387   0.010  0.00  0.00    -0.043 A 
ATOM      2  C2  <0> d           1.149   2.100   0.002  0.00  0.00    -0.051 A 
ATOM      3  C3  <0> d           2.368   1.435  -0.013  0.00  0.00     0.082 A 
ATOM      4  C4  <0> d           2.398   0.028  -0.021  0.00  0.00     0.111 A 
ATOM      5  C5  <0> d           1.198  -0.687  -0.013  0.00  0.00    -0.014 A 
ATOM      6  C6  <0> d           0.002  -0.004   0.002  0.00  0.00     0.118 A 
ATOM      7  F1  <0> d          -1.162  -0.690   0.010  0.00  0.00    -0.206 F 
ATOM      8  N1  <0> d           3.704  -0.307  -0.035  0.00  0.00    -0.130 NA
ATOM      9  N2  <0> d           4.417   0.764  -0.037  0.00  0.00    -0.067 NA
ATOM     10  N3  <0> d           3.686   1.824  -0.024  0.00  0.00    -0.258 N 
ATOM     11  H1  <0> d          -0.962   1.908   0.026  0.00  0.00     0.088 H 
ATOM     12  H2  <0> d           1.122   3.180   0.008  0.00  0.00     0.087 H 
ATOM     13  H3  <0> d           1.208  -1.767  -0.019  0.00  0.00     0.092 H 
ATOM     14  H4  <0> d           4.009   2.739  -0.022  0.00  0.00     0.191 HD
ENDROOT
TORSDOF 0
