REMARK  2 active torsions:
REMARK  status: ('A' for Active; 'I' for Inactive)
REMARK    1  A    between atoms: C3_3  and  C6_9 
REMARK    2  A    between atoms: C4_5  and  C5_7 
ROOT
ATOM      1  C1  <0> d          -1.966   2.802  -1.721  0.00  0.00    -0.051 C 
ATOM      2  C2  <0> d          -1.427   4.187  -1.325  0.00  0.00    -0.051 C 
ATOM      3  C3  <0> d          -1.181   3.603   0.076  0.00  0.00     0.043 C 
ATOM      4  H1  <0> d          -2.035   3.702   0.747  0.00  0.00     0.058 H 
ATOM      5  C4  <0> d          -1.085   2.226  -0.600  0.00  0.00     0.043 C 
ATOM      6  H2  <0> d          -1.564   1.426  -0.036  0.00  0.00     0.058 H 
ATOM      7  H3  <0> d          -1.665   2.486  -2.720  0.00  0.00     0.034 H 
ATOM      8  H4  <0> d          -3.034   2.682  -1.542  0.00  0.00     0.034 H 
ATOM      9  H5  <0> d          -0.513   4.466  -1.848  0.00  0.00     0.034 H 
ATOM     10  H6  <0> d          -2.183   4.972  -1.345  0.00  0.00     0.034 H 
ENDROOT
BRANCH   3  11
ATOM     11  C6  <0> d           0.111   4.060   0.702  0.00  0.00     0.177 C 
ATOM     12  O2  <0> d           0.949   3.249   1.018  0.00  0.00    -0.648 OA
ATOM     13  O4  <0> d           0.332   5.368   0.908  0.00  0.00    -0.648 OA
ENDBRANCH   3  11
BRANCH   5  14
ATOM     14  C5  <0> d           0.309   1.870  -1.050  0.00  0.00     0.177 C 
ATOM     15  O1  <0> d           0.864   2.543  -1.887  0.00  0.00    -0.648 OA
ATOM     16  O3  <0> d           0.932   0.803  -0.526  0.00  0.00    -0.648 OA
ENDBRANCH   5  14
TORSDOF 2
