REMARK  1 active torsions:
REMARK  status: ('A' for Active; 'I' for Inactive)
REMARK    1  A    between atoms: C4_4  and  C7_7 
ROOT
ATOM      1  C1  <0> d           0.037   5.410  -3.534  0.00  0.00    -0.083 A 
ATOM      2  C2  <0> d          -0.082   6.018  -2.298  0.00  0.00    -0.082 A 
ATOM      3  C3  <0> d          -0.100   5.250  -1.149  0.00  0.00    -0.076 A 
ATOM      4  C4  <0> d          -0.000   3.873  -1.235  0.00  0.00    -0.043 A 
ATOM      5  C5  <0> d           0.123   3.266  -2.471  0.00  0.00    -0.076 A 
ATOM      6  C6  <0> d           0.137   4.034  -3.620  0.00  0.00    -0.082 A 
ATOM      7  H2  <0> d           0.050   6.010  -4.432  0.00  0.00     0.083 H 
ATOM      8  H3  <0> d          -0.160   7.093  -2.230  0.00  0.00     0.083 H 
ATOM      9  H4  <0> d          -0.192   5.725  -0.183  0.00  0.00     0.084 H 
ATOM     10  H5  <0> d           0.205   2.191  -2.538  0.00  0.00     0.084 H 
ATOM     11  H6  <0> d           0.229   3.559  -4.586  0.00  0.00     0.083 H 
ENDROOT
BRANCH   4  12
ATOM     12  C7  <0> d          -0.020   3.036   0.018  0.00  0.00     0.064 A 
ATOM     13  H1  <0> d           0.009   3.631   0.930  0.00  0.00     0.064 H 
ATOM     14  C9  <0> d           0.952   1.895   0.003  0.00  0.00     0.227 A 
ATOM     15  N1  <0> d          -0.011   0.966   0.007  0.00  0.00    -0.359 N 
ATOM     16  O1  <0> d           2.164   1.835  -0.008  0.00  0.00    -0.273 OA
ATOM     17  C8  <0> d          -1.087   1.948   0.016  0.00  0.00     0.010 A 
ATOM     18  H9  <0> d           0.002  -0.004   0.002  0.00  0.00     0.162 HD
ATOM     19  H7  <0> d          -1.694   1.936  -0.889  0.00  0.00     0.065 H 
ATOM     20  H8  <0> d          -1.687   1.927   0.926  0.00  0.00     0.065 H 
ENDBRANCH   4  12
TORSDOF 1
