REMARK  2 active torsions:
REMARK  status: ('A' for Active; 'I' for Inactive)
REMARK    1  A    between atoms: C1_1  and  C2_2 
REMARK    2  A    between atoms: C6_6  and  N2_8 
ROOT
ATOM      1  C2  <0> d          -3.531   1.566   0.028  0.00  0.00     0.033 A 
ATOM      2  C3  <0> d          -3.616   2.944   0.037  0.00  0.00    -0.059 A 
ATOM      3  C4  <0> d          -2.450   3.698   0.035  0.00  0.00    -0.077 A 
ATOM      4  C5  <0> d          -1.236   3.035   0.030  0.00  0.00    -0.039 A 
ATOM      5  C6  <0> d          -1.224   1.644   0.017  0.00  0.00     0.121 A 
ATOM      6  N1  <0> d          -2.358   0.961   0.018  0.00  0.00    -0.237 NA
ATOM      7  H4  <0> d          -4.580   3.431   0.044  0.00  0.00     0.086 H 
ATOM      8  H5  <0> d          -2.490   4.777   0.042  0.00  0.00     0.083 H 
ATOM      9  H6  <0> d          -0.309   3.590   0.033  0.00  0.00     0.089 H 
ENDROOT
BRANCH   1  10
ATOM     10  C1  <0> d          -4.793   0.743   0.029  0.00  0.00    -0.035 C 
ATOM     11  H1  <0> d          -5.092   0.538   1.057  0.00  0.00     0.035 H 
ATOM     12  H2  <0> d          -5.586   1.292  -0.477  0.00  0.00     0.035 H 
ATOM     13  H3  <0> d          -4.614  -0.198  -0.491  0.00  0.00     0.035 H 
ENDBRANCH   1  10
BRANCH   5  14
ATOM     14  N2  <0> d          -0.011   0.966   0.007  0.00  0.00    -0.384 N 
ATOM     15  H7  <0> d           0.002  -0.004   0.002  0.00  0.00     0.157 HD
ATOM     16  H8  <0> d           0.822   1.462   0.002  0.00  0.00     0.157 HD
ENDBRANCH   5  14
TORSDOF 2
