REMARK  3 active torsions:
REMARK  status: ('A' for Active; 'I' for Inactive)
REMARK    1  A    between atoms: C1_1  and  C2_2 
REMARK    2  A    between atoms: C2_2  and  C3_3 
REMARK    3  A    between atoms: C4_4  and  C11_13 
ROOT
ATOM      1  C3  <0> d          -0.749   3.086   1.275  0.00  0.00    -0.024 A 
ATOM      2  C4  <0> d           0.176   3.894   1.815  0.00  0.00     0.013 A 
ATOM      3  N1  <0> d          -0.178   5.202   1.626  0.00  0.00    -0.359 N 
ATOM      4  H1  <0> d           0.336   5.968   1.926  0.00  0.00     0.166 HD
ATOM      5  C5  <0> d          -1.376   5.269   0.950  0.00  0.00     0.043 A 
ATOM      6  C6  <0> d          -1.786   3.947   0.701  0.00  0.00    -0.001 A 
ATOM      7  C7  <0> d          -2.982   3.704   0.022  0.00  0.00    -0.070 A 
ATOM      8  C8  <0> d          -3.749   4.755  -0.396  0.00  0.00    -0.082 A 
ATOM      9  C9  <0> d          -3.349   6.061  -0.153  0.00  0.00    -0.081 A 
ATOM     10  C10 <0> d          -2.173   6.323   0.515  0.00  0.00    -0.056 A 
ATOM     11  H7  <0> d          -3.299   2.691  -0.171  0.00  0.00     0.084 H 
ATOM     12  H8  <0> d          -4.674   4.567  -0.921  0.00  0.00     0.083 H 
ATOM     13  H9  <0> d          -3.966   6.881  -0.490  0.00  0.00     0.083 H 
ATOM     14  H10 <0> d          -1.870   7.343   0.700  0.00  0.00     0.086 H 
ENDROOT
BRANCH   1  15
ATOM     15  C2  <0> d          -0.729   1.579   1.267  0.00  0.00    -0.042 C 
ATOM     16  H5  <0> d          -1.751   1.202   1.275  0.00  0.00     0.039 H 
ATOM     17  H6  <0> d          -0.202   1.218   2.150  0.00  0.00     0.039 H 
BRANCH  15  18
ATOM     18  C1  <0> d          -0.013   1.086   0.008  0.00  0.00    -0.073 C 
ATOM     19  H2  <0> d           0.002  -0.004   0.002  0.00  0.00     0.028 H 
ATOM     20  H3  <0> d           1.010   1.463   0.000  0.00  0.00     0.028 H 
ATOM     21  H4  <0> d          -0.540   1.447  -0.875  0.00  0.00     0.028 H 
ENDBRANCH  15  18
ENDBRANCH   1  15
BRANCH   2  22
ATOM     22  C11 <0> d           1.424   3.430   2.522  0.00  0.00    -0.037 C 
ATOM     23  H11 <0> d           2.235   3.330   1.800  0.00  0.00     0.035 H 
ATOM     24  H12 <0> d           1.703   4.158   3.283  0.00  0.00     0.035 H 
ATOM     25  H13 <0> d           1.236   2.465   2.994  0.00  0.00     0.035 H 
ENDBRANCH   2  22
TORSDOF 3
