REMARK  1 active torsions:
REMARK  status: ('A' for Active; 'I' for Inactive)
REMARK    1  A    between atoms: C6_6  and  O1_7 
ROOT
ATOM      1  C1  <0> d          -0.017   1.388   0.010  0.00  0.00    -0.049 A 
ATOM      2  C2  <0> d           1.149   2.099   0.002  0.00  0.00    -0.050 A 
ATOM      3  C3  <0> d           2.375   1.429  -0.013  0.00  0.00     0.085 A 
ATOM      4  C4  <0> d           2.397   0.024  -0.021  0.00  0.00     0.064 A 
ATOM      5  C5  <0> d           1.206  -0.686  -0.014  0.00  0.00    -0.023 A 
ATOM      6  C6  <0> d           0.002  -0.004   0.002  0.00  0.00     0.068 A 
ATOM      7  N1  <0> d           3.730  -0.336  -0.035  0.00  0.00    -0.349 N 
ATOM      8  C7  <0> d           4.460   0.814  -0.035  0.00  0.00     0.065 A 
ATOM      9  N2  <0> d           3.668   1.845  -0.023  0.00  0.00    -0.242 NA
ATOM     10  H1  <0> d          -0.962   1.910   0.026  0.00  0.00     0.087 H 
ATOM     11  H2  <0> d           1.123   3.179   0.008  0.00  0.00     0.087 H 
ATOM     12  H3  <0> d           1.217  -1.766  -0.020  0.00  0.00     0.091 H 
ATOM     13  H4  <0> d           5.539   0.861  -0.045  0.00  0.00     0.143 H 
ATOM     14  H5  <0> d           4.081  -1.240  -0.043  0.00  0.00     0.167 HD
ENDROOT
BRANCH   6  15
ATOM     15  O1  <0> d          -1.168  -0.696   0.009  0.00  0.00    -0.361 OA
ATOM     16  H6  <0> d          -1.515  -0.892  -0.872  0.00  0.00     0.217 HD
ENDBRANCH   6  15
TORSDOF 1
