REMARK  2 active torsions:
REMARK  status: ('A' for Active; 'I' for Inactive)
REMARK    1  A    between atoms: C4_4  and  O2_11 
REMARK    2  A    between atoms: C5_6  and  O1_10 
ROOT
ATOM      1  C1  <0> d           2.328  -0.833  -0.135  0.00  0.00    -0.065 C 
ATOM      2  C2  <0> d           1.039  -0.561  -0.936  0.00  0.00    -0.063 C 
ATOM      3  C3  <0> d           0.002  -0.004   0.002  0.00  0.00    -0.039 C 
ATOM      4  C4  <0> d          -0.019   1.536   0.011  0.00  0.00     0.060 C 
ATOM      5  H1  <0> d          -0.582   1.899  -0.862  0.00  0.00     0.086 H 
ATOM      6  C5  <0> d           1.393   2.153   0.000  0.00  0.00     0.060 C 
ATOM      7  H2  <0> d           1.810   2.136  -1.017  0.00  0.00     0.086 H 
ATOM      8  C6  <0> d           2.345   1.428   0.912  0.00  0.00    -0.039 C 
ATOM      9  C7  <0> d           3.110   0.375   0.085  0.00  0.00    -0.063 C 
ATOM     10  H3  <0> d           2.930  -1.562  -0.698  0.00  0.00     0.033 H 
ATOM     11  H4  <0> d           2.041  -1.266   0.834  0.00  0.00     0.033 H 
ATOM     12  H5  <0> d           1.250   0.165  -1.735  0.00  0.00     0.033 H 
ATOM     13  H6  <0> d           0.677  -1.500  -1.380  0.00  0.00     0.033 H 
ATOM     14  H7  <0> d          -0.995  -0.355  -0.303  0.00  0.00     0.036 H 
ATOM     15  H8  <0> d           0.213  -0.346   1.026  0.00  0.00     0.036 H 
ATOM     16  H9  <0> d           3.052   2.147   1.351  0.00  0.00     0.036 H 
ATOM     17  H10 <0> d           1.778   0.934   1.716  0.00  0.00     0.036 H 
ATOM     18  H11 <0> d           4.032   0.121   0.628  0.00  0.00     0.033 H 
ATOM     19  H12 <0> d           3.368   0.827  -0.884  0.00  0.00     0.033 H 
ENDROOT
BRANCH   4  20
ATOM     20  O2  <0> d          -0.708   1.982   1.181  0.00  0.00    -0.393 OA
ATOM     21  H14 <0> d          -0.830   3.058   1.371  0.00  0.00     0.210 HD
ENDBRANCH   4  20
BRANCH   6  22
ATOM     22  O1  <0> d           1.304   3.518   0.415  0.00  0.00    -0.393 OA
ATOM     23  H13 <0> d           2.213   4.135   0.474  0.00  0.00     0.210 HD
ENDBRANCH   6  22
TORSDOF 2
