REMARK  2 active torsions:
REMARK  status: ('A' for Active; 'I' for Inactive)
REMARK    1  A    between atoms: C1_1  and  C2_2 
REMARK       I    between atoms: C2_2  and  N1_4 
REMARK    2  A    between atoms: N1_4  and  C3_5 
ROOT
ATOM      1  C3  <0> d          -1.229   3.132   0.025  0.00  0.00     0.037 A 
ATOM      2  C4  <0> d          -1.221   1.749  -0.148  0.00  0.00    -0.040 A 
ATOM      3  C5  <0> d          -0.014   1.081  -0.156  0.00  0.00     0.004 A 
ATOM      4  N2  <0> d           1.122   1.737  -0.014  0.00  0.00    -0.273 NA
ATOM      5  C6  <0> d           1.157   3.046   0.146  0.00  0.00     0.004 A 
ATOM      6  C7  <0> d          -0.007   3.787   0.172  0.00  0.00    -0.040 A 
ATOM      7  H5  <0> d          -2.148   1.207  -0.269  0.00  0.00     0.089 H 
ATOM      8  H6  <0> d           0.001   0.009  -0.286  0.00  0.00     0.114 H 
ATOM      9  H7  <0> d           2.108   3.545   0.259  0.00  0.00     0.114 H 
ATOM     10  H8  <0> d           0.028   4.858   0.303  0.00  0.00     0.089 H 
ENDROOT
BRANCH   1  11
ATOM     11  N1  <0> d          -2.429   3.844   0.045  0.00  0.00    -0.327 N 
ATOM     12  C2  <0> d          -3.543   3.274   0.546  0.00  0.00     0.218 C 
ATOM     13  O1  <0> d          -3.482   2.180   1.065  0.00  0.00    -0.274 OA
ATOM     14  H4  <0> d          -2.462   4.750  -0.301  0.00  0.00     0.169 HD
BRANCH  12  15
ATOM     15  C1  <0> d          -4.863   3.996   0.460  0.00  0.00    -0.003 C 
ATOM     16  H1  <0> d          -5.364   3.728  -0.470  0.00  0.00     0.040 H 
ATOM     17  H2  <0> d          -5.489   3.710   1.306  0.00  0.00     0.040 H 
ATOM     18  H3  <0> d          -4.691   5.072   0.483  0.00  0.00     0.040 H 
ENDBRANCH  12  15
ENDBRANCH   1  11
TORSDOF 2
