REMARK  4 active torsions:
REMARK  status: ('A' for Active; 'I' for Inactive)
REMARK    1  A    between atoms: C1_1  and  C2_2 
REMARK    2  A    between atoms: C1_1  and  C4_9 
REMARK    3  A    between atoms: C2_2  and  C3_4 
REMARK    4  A    between atoms: C2_2  and  N1_8 
REMARK       I    between atoms: C4_9  and  N2_11 
ROOT
ATOM      1  C2  <0> d          -2.657   3.621   0.034  0.00  0.00     0.230 C 
ATOM      2  H1  <0> d          -3.225   3.162  -0.788  0.00  0.00     0.102 H 
ENDROOT
BRANCH   1   3
ATOM      3  C1  <0> d          -1.208   3.131   0.025  0.00  0.00     0.046 C 
ATOM      4  H2  <0> d          -0.698   3.509  -0.874  0.00  0.00     0.050 H 
ATOM      5  H3  <0> d          -0.690   3.499   0.922  0.00  0.00     0.050 H 
BRANCH   3   6
ATOM      6  C4  <0> d          -1.187   1.624   0.017  0.00  0.00     0.217 C 
ATOM      7  O1  <0> d          -2.229   1.003   0.018  0.00  0.00    -0.274 OA
ATOM      8  N2  <0> d          -0.011   0.966   0.007  0.00  0.00    -0.370 N 
ATOM      9  H6  <0> d           0.004  -0.134   0.001  0.00  0.00     0.159 HD
ATOM     10  H7  <0> d           0.934   1.529   0.006  0.00  0.00     0.159 HD
ENDBRANCH   3   6
ENDBRANCH   1   3
BRANCH   1  11
ATOM     11  C3  <0> d          -2.680   5.146  -0.083  0.00  0.00     0.418 C 
ATOM     12  F1  <0> d          -2.065   5.531  -1.279  0.00  0.00    -0.169 F 
ATOM     13  F2  <0> d          -4.005   5.595  -0.074  0.00  0.00    -0.169 F 
ATOM     14  F3  <0> d          -1.991   5.708   0.997  0.00  0.00    -0.169 F 
ENDBRANCH   1  11
BRANCH   1  15
ATOM     15  N1  <0> d          -3.303   3.217   1.290  0.00  0.00     0.092 N 
ATOM     16  H4  <0> d          -4.345   3.569   1.297  0.00  0.00     0.313 HD
ATOM     17  H5  <0> d          -3.286   2.120   1.375  0.00  0.00     0.313 HD
ENDBRANCH   1  15
TORSDOF 4
