REMARK  4 active torsions:
REMARK  status: ('A' for Active; 'I' for Inactive)
REMARK    1  A    between atoms: C1_1  and  C2_2 
REMARK    2  A    between atoms: C2_2  and  C3_3 
REMARK    3  A    between atoms: C3_3  and  C4_5 
REMARK    4  A    between atoms: C8_9  and  N1_11 
ROOT
ATOM      1  C4  <0> d          -0.048   3.850   0.023  0.00  0.00     0.012 A 
ATOM      2  C5  <0> d           1.168   3.160   0.007  0.00  0.00    -0.069 A 
ATOM      3  C6  <0> d           1.177   1.781   0.000  0.00  0.00    -0.080 A 
ATOM      4  C7  <0> d          -0.013   1.076   0.008  0.00  0.00    -0.058 A 
ATOM      5  C8  <0> d          -1.228   1.752   0.017  0.00  0.00     0.026 A 
ATOM      6  C9  <0> d          -1.250   3.137   0.031  0.00  0.00    -0.044 A 
ATOM      7  H6  <0> d           2.099   3.706   0.001  0.00  0.00     0.085 H 
ATOM      8  H7  <0> d           2.117   1.249  -0.011  0.00  0.00     0.083 H 
ATOM      9  H8  <0> d           0.002  -0.004   0.002  0.00  0.00     0.086 H 
ATOM     10  H9  <0> d          -2.193   3.664   0.043  0.00  0.00     0.088 H 
ENDROOT
BRANCH   1  11
ATOM     11  C3  <0> d          -0.062   5.322   0.030  0.00  0.00     0.159 C 
ATOM     12  O1  <0> d          -1.118   5.918   0.043  0.00  0.00    -0.292 OA
BRANCH  11  13
ATOM     13  C2  <0> d           1.236   6.088   0.021  0.00  0.00    -0.008 C 
ATOM     14  H4  <0> d           1.770   5.848   0.831  0.00  0.00     0.044 H 
ATOM     15  H5  <0> d           1.801   5.834  -0.876  0.00  0.00     0.044 H 
BRANCH  13  16
ATOM     16  C1  <0> d           0.942   7.590   0.030  0.00  0.00    -0.070 C 
ATOM     17  H1  <0> d           0.377   7.843   0.927  0.00  0.00     0.028 H 
ATOM     18  H2  <0> d           1.881   8.144   0.024  0.00  0.00     0.028 H 
ATOM     19  H3  <0> d           0.359   7.852  -0.853  0.00  0.00     0.028 H 
ENDBRANCH  13  16
ENDBRANCH  11  13
ENDBRANCH   1  11
BRANCH   5  20
ATOM     20  N1  <0> d          -2.426   1.034   0.019  0.00  0.00    -0.399 N 
ATOM     21  H10 <0> d          -2.410   0.064   0.013  0.00  0.00     0.156 HD
ATOM     22  H11 <0> d          -3.274   1.505   0.025  0.00  0.00     0.156 HD
ENDBRANCH   5  20
TORSDOF 4
