REMARK  4 active torsions:
REMARK  status: ('A' for Active; 'I' for Inactive)
REMARK    1  A    between atoms: C1_1  and  C2_2 
REMARK    2  A    between atoms: C2_2  and  C3_3 
REMARK    3  A    between atoms: C3_3  and  C4_5 
REMARK    4  A    between atoms: C3_3  and  N1_6 
ROOT
ATOM      1  C3  <0> d           0.718  -0.497  -1.257  0.00  0.00     0.011 C 
ATOM      2  H1  <0> d           1.710  -0.049  -1.310  0.00  0.00     0.072 H 
ENDROOT
BRANCH   1   3
ATOM      3  C2  <0> d           0.002  -0.004   0.002  0.00  0.00    -0.050 C 
ATOM      4  H5  <0> d           0.529  -0.365   0.885  0.00  0.00     0.035 H 
ATOM      5  H6  <0> d          -1.020  -0.381   0.010  0.00  0.00     0.035 H 
BRANCH   3   6
ATOM      6  C1  <0> d          -0.019   1.526   0.010  0.00  0.00    -0.075 C 
ATOM      7  H2  <0> d           1.004   1.903   0.003  0.00  0.00     0.027 H 
ATOM      8  H3  <0> d          -0.546   1.887  -0.873  0.00  0.00     0.027 H 
ATOM      9  H4  <0> d          -0.529   1.877   0.907  0.00  0.00     0.027 H 
ENDBRANCH   3   6
ENDBRANCH   1   3
BRANCH   1  10
ATOM     10  C4  <0> d           0.849  -2.021  -1.205  0.00  0.00    -0.057 C 
ATOM     11  H7  <0> d          -0.143  -2.469  -1.152  0.00  0.00     0.030 H 
ATOM     12  H8  <0> d           1.359  -2.373  -2.102  0.00  0.00     0.030 H 
ATOM     13  H9  <0> d           1.425  -2.306  -0.324  0.00  0.00     0.030 H 
ENDBRANCH   1  10
BRANCH   1  14
ATOM     14  N1  <0> d          -0.055  -0.114  -2.441  0.00  0.00    -0.348 N 
ATOM     15  C8  <0> d          -1.319  -0.503  -2.679  0.00  0.00     0.220 C 
ATOM     16  C7  <0> d          -1.802   0.073  -3.993  0.00  0.00     0.011 C 
ATOM     17  O1  <0> d          -1.979  -1.210  -1.947  0.00  0.00    -0.273 OA
ATOM     18  C6  <0> d          -0.505   0.512  -4.711  0.00  0.00    -0.042 C 
ATOM     19  H14 <0> d          -2.452   0.931  -3.821  0.00  0.00     0.047 H 
ATOM     20  H15 <0> d          -2.320  -0.690  -4.573  0.00  0.00     0.047 H 
ATOM     21  C5  <0> d           0.454   0.739  -3.521  0.00  0.00    -0.002 C 
ATOM     22  H12 <0> d          -0.661   1.436  -5.268  0.00  0.00     0.036 H 
ATOM     23  H13 <0> d          -0.134  -0.278  -5.365  0.00  0.00     0.036 H 
ATOM     24  H10 <0> d           0.435   1.786  -3.216  0.00  0.00     0.064 H 
ATOM     25  H11 <0> d           1.467   0.442  -3.791  0.00  0.00     0.064 H 
ENDBRANCH   1  14
TORSDOF 4
