REMARK  5 active torsions:
REMARK  status: ('A' for Active; 'I' for Inactive)
REMARK    1  A    between atoms: C1_1  and  C2_2 
REMARK    2  A    between atoms: C5_5  and  N1_11 
REMARK    3  A    between atoms: C7_7  and  C8_8 
REMARK    4  A    between atoms: C8_8  and  C9_9 
REMARK    5  A    between atoms: C8_8  and  C10_10 
ROOT
ATOM      1  C2  <0> d          -3.613   3.053   0.027  0.00  0.00    -0.055 A 
ATOM      2  C3  <0> d          -2.406   3.688  -0.203  0.00  0.00    -0.075 A 
ATOM      3  C4  <0> d          -1.231   2.964  -0.198  0.00  0.00    -0.057 A 
ATOM      4  C5  <0> d          -1.262   1.593   0.026  0.00  0.00     0.026 A 
ATOM      5  C6  <0> d          -2.476   0.958   0.256  0.00  0.00    -0.051 A 
ATOM      6  C7  <0> d          -3.647   1.690   0.256  0.00  0.00    -0.047 A 
ATOM      7  H4  <0> d          -2.383   4.753  -0.381  0.00  0.00     0.084 H 
ATOM      8  H5  <0> d          -0.288   3.462  -0.373  0.00  0.00     0.086 H 
ATOM      9  H6  <0> d          -2.503  -0.107   0.435  0.00  0.00     0.087 H 
ENDROOT
BRANCH   6  10
ATOM     10  C8  <0> d          -4.965   1.002   0.506  0.00  0.00    -0.035 C 
ATOM     11  H7  <0> d          -5.757   1.747   0.570  0.00  0.00     0.046 H 
BRANCH  10  12
ATOM     12  C9  <0> d          -5.262   0.037  -0.644  0.00  0.00    -0.069 C 
ATOM     13  H8  <0> d          -6.215  -0.460  -0.464  0.00  0.00     0.028 H 
ATOM     14  H9  <0> d          -5.314   0.594  -1.580  0.00  0.00     0.028 H 
ATOM     15  H10 <0> d          -4.469  -0.708  -0.708  0.00  0.00     0.028 H 
ENDBRANCH  10  12
BRANCH  10  16
ATOM     16  C10 <0> d          -4.891   0.221   1.820  0.00  0.00    -0.069 C 
ATOM     17  H11 <0> d          -4.679   0.908   2.639  0.00  0.00     0.028 H 
ATOM     18  H12 <0> d          -5.844  -0.277   2.000  0.00  0.00     0.028 H 
ATOM     19  H13 <0> d          -4.098  -0.524   1.756  0.00  0.00     0.028 H 
ENDBRANCH  10  16
ENDBRANCH   6  10
BRANCH   1  20
ATOM     20  C1  <0> d          -4.893   3.848   0.027  0.00  0.00    -0.051 C 
ATOM     21  H1  <0> d          -5.151   4.122   1.050  0.00  0.00     0.033 H 
ATOM     22  H2  <0> d          -4.760   4.751  -0.569  0.00  0.00     0.033 H 
ATOM     23  H3  <0> d          -5.695   3.245  -0.401  0.00  0.00     0.033 H 
ENDBRANCH   1  20
BRANCH   4  24
ATOM     24  N1  <0> d          -0.076   0.856   0.026  0.00  0.00    -0.399 N 
ATOM     25  H14 <0> d          -0.099  -0.100   0.186  0.00  0.00     0.156 HD
ATOM     26  H15 <0> d           0.771   1.300  -0.139  0.00  0.00     0.156 HD
ENDBRANCH   4  24
TORSDOF 5
