REMARK  6 active torsions:
REMARK  status: ('A' for Active; 'I' for Inactive)
REMARK    1  A    between atoms: C1_1  and  C2_2 
REMARK    2  A    between atoms: C2_2  and  C3_3 
REMARK    3  A    between atoms: C2_2  and  C4_4 
REMARK    4  A    between atoms: C4_4  and  C5_5 
REMARK    5  A    between atoms: C5_5  and  C6_6 
REMARK    6  A    between atoms: C6_6  and  C7_7 
ROOT
ATOM      1  C4  <0> d           2.755   5.077   0.003  0.00  0.00    -0.062 C 
ATOM      2  H8  <0> d           2.248   5.465  -0.880  0.00  0.00     0.033 H 
ATOM      3  H9  <0> d           2.265   5.455   0.900  0.00  0.00     0.033 H 
ENDROOT
BRANCH   1   4
ATOM      4  C2  <0> d           4.217   5.531  -0.009  0.00  0.00    -0.061 C 
ATOM      5  H4  <0> d           4.730   5.080  -0.858  0.00  0.00     0.038 H 
BRANCH   4   6
ATOM      6  C1  <0> d           4.276   7.055  -0.127  0.00  0.00    -0.073 C 
ATOM      7  H1  <0> d           3.763   7.505   0.723  0.00  0.00     0.028 H 
ATOM      8  H2  <0> d           5.317   7.378  -0.135  0.00  0.00     0.028 H 
ATOM      9  H3  <0> d           3.792   7.367  -1.052  0.00  0.00     0.028 H 
ENDBRANCH   4   6
BRANCH   4  10
ATOM     10  C3  <0> d           4.897   5.093   1.290  0.00  0.00    -0.073 C 
ATOM     11  H5  <0> d           4.854   4.007   1.374  0.00  0.00     0.028 H 
ATOM     12  H6  <0> d           5.938   5.416   1.282  0.00  0.00     0.028 H 
ATOM     13  H7  <0> d           4.383   5.543   2.139  0.00  0.00     0.028 H 
ENDBRANCH   4  10
ENDBRANCH   1   4
BRANCH   1  14
ATOM     14  C5  <0> d           2.696   3.548  -0.005  0.00  0.00    -0.056 C 
ATOM     15  H10 <0> d           3.204   3.160   0.878  0.00  0.00     0.033 H 
ATOM     16  H11 <0> d           3.187   3.170  -0.901  0.00  0.00     0.033 H 
BRANCH  14  17
ATOM     17  C6  <0> d           1.235   3.094   0.007  0.00  0.00     0.016 C 
ATOM     18  H12 <0> d           0.727   3.482  -0.876  0.00  0.00     0.049 H 
ATOM     19  H13 <0> d           0.744   3.473   0.904  0.00  0.00     0.049 H 
BRANCH  17  20
ATOM     20  C7  <0> d           1.177   1.588  -0.001  0.00  0.00     0.172 C 
ATOM     21  O1  <0> d           2.199   0.944  -0.014  0.00  0.00    -0.648 OA
ATOM     22  O2  <0> d          -0.011   0.963   0.007  0.00  0.00    -0.648 OA
ENDBRANCH  17  20
ENDBRANCH  14  17
ENDBRANCH   1  14
TORSDOF 6
