REMARK  7 active torsions:
REMARK  status: ('A' for Active; 'I' for Inactive)
REMARK    1  A    between atoms: C1_1  and  C2_2 
REMARK    2  A    between atoms: C2_2  and  C3_3 
REMARK    3  A    between atoms: C3_3  and  C4_4 
REMARK    4  A    between atoms: C4_4  and  N1_5 
REMARK       I    between atoms: N1_5  and  C5_6 
REMARK    5  A    between atoms: C5_6  and  C6_8 
REMARK    6  A    between atoms: C6_8  and  C7_9 
REMARK    7  A    between atoms: C8_10  and  C9_11 
ROOT
ATOM      1  N1  <0> d          -2.787  -2.571   0.015  0.00  0.00    -0.361 N 
ATOM      2  C5  <0> d          -3.015  -3.899   0.010  0.00  0.00     0.221 C 
ATOM      3  O1  <0> d          -2.083  -4.674  -0.003  0.00  0.00    -0.273 OA
ATOM      4  H10 <0> d          -3.533  -1.950   0.025  0.00  0.00     0.162 HD
ENDROOT
BRANCH   1   5
ATOM      5  C4  <0> d          -1.413  -2.063   0.004  0.00  0.00    -0.005 C 
ATOM      6  H8  <0> d          -0.902  -2.415  -0.892  0.00  0.00     0.064 H 
ATOM      7  H9  <0> d          -0.885  -2.425   0.887  0.00  0.00     0.064 H 
BRANCH   5   8
ATOM      8  C3  <0> d          -1.433  -0.534   0.013  0.00  0.00    -0.051 C 
ATOM      9  H6  <0> d          -1.944  -0.182   0.910  0.00  0.00     0.035 H 
ATOM     10  H7  <0> d          -1.960  -0.173  -0.870  0.00  0.00     0.035 H 
BRANCH   8  11
ATOM     11  C2  <0> d           0.002  -0.004   0.002  0.00  0.00    -0.067 C 
ATOM     12  H4  <0> d           0.512  -0.356  -0.895  0.00  0.00     0.032 H 
ATOM     13  H5  <0> d           0.529  -0.365   0.885  0.00  0.00     0.032 H 
BRANCH  11  14
ATOM     14  C1  <0> d          -0.019   1.526   0.010  0.00  0.00    -0.076 C 
ATOM     15  H1  <0> d           1.004   1.903   0.003  0.00  0.00     0.027 H 
ATOM     16  H2  <0> d          -0.546   1.887  -0.873  0.00  0.00     0.027 H 
ATOM     17  H3  <0> d          -0.529   1.877   0.907  0.00  0.00     0.027 H 
ENDBRANCH  11  14
ENDBRANCH   8  11
ENDBRANCH   5   8
ENDBRANCH   1   5
BRANCH   2  18
ATOM     18  C6  <0> d          -4.429  -4.420   0.021  0.00  0.00     0.024 C 
ATOM     19  H11 <0> d          -4.939  -4.069   0.917  0.00  0.00     0.053 H 
ATOM     20  H12 <0> d          -4.956  -4.059  -0.863  0.00  0.00     0.053 H 
BRANCH  18  21
ATOM     21  C7  <0> d          -4.409  -5.927   0.012  0.00  0.00    -0.099 C 
ATOM     22  C8  <0> d          -5.042  -6.596   0.944  0.00  0.00    -0.110 C 
ATOM     23  H14 <0> d          -5.578  -6.068   1.718  0.00  0.00     0.075 H 
ATOM     24  H13 <0> d          -3.872  -6.456  -0.762  0.00  0.00     0.077 H 
BRANCH  22  25
ATOM     25  C9  <0> d          -5.021  -8.103   0.936  0.00  0.00    -0.060 C 
ATOM     26  H15 <0> d          -3.992  -8.453   1.014  0.00  0.00     0.032 H 
ATOM     27  H16 <0> d          -5.597  -8.479   1.781  0.00  0.00     0.032 H 
ATOM     28  H17 <0> d          -5.459  -8.467   0.007  0.00  0.00     0.032 H 
ENDBRANCH  22  25
ENDBRANCH  18  21
ENDBRANCH   2  18
TORSDOF 7
