REMARK  3 active torsions:
REMARK  status: ('A' for Active; 'I' for Inactive)
REMARK    1  A    between atoms: C1_1  and  C2_2 
REMARK    2  A    between atoms: C3_3  and  C7_9 
REMARK    3  A    between atoms: C6_7  and  N2_8 
ROOT
ATOM      1  C2  <0> d           2.319   1.468  -0.006  0.00  0.00    -0.016 A 
ATOM      2  C3  <0> d           2.399   0.095  -0.267  0.00  0.00     0.066 A 
ATOM      3  C4  <0> d           1.228  -0.664  -0.257  0.00  0.00     0.019 A 
ATOM      4  N1  <0> d           0.064  -0.101  -0.005  0.00  0.00    -0.270 NA
ATOM      5  C5  <0> d          -0.049   1.188   0.245  0.00  0.00     0.028 A 
ATOM      6  C6  <0> d           1.069   2.016   0.254  0.00  0.00     0.050 A 
ATOM      7  H4  <0> d           1.276  -1.724  -0.457  0.00  0.00     0.116 H 
ATOM      8  H5  <0> d          -1.024   1.609   0.442  0.00  0.00     0.118 H 
ENDROOT
BRANCH   1   9
ATOM      9  C1  <0> d           3.556   2.329  -0.006  0.00  0.00    -0.048 C 
ATOM     10  H1  <0> d           3.790   2.629  -1.028  0.00  0.00     0.033 H 
ATOM     11  H2  <0> d           3.382   3.216   0.602  0.00  0.00     0.033 H 
ATOM     12  H3  <0> d           4.392   1.764   0.406  0.00  0.00     0.033 H 
ENDBRANCH   1   9
BRANCH   6  13
ATOM     13  N2  <0> d           0.936   3.381   0.521  0.00  0.00    -0.397 N 
ATOM     14  H6  <0> d           0.060   3.757   0.701  0.00  0.00     0.156 HD
ATOM     15  H7  <0> d           1.719   3.953   0.525  0.00  0.00     0.156 HD
ENDBRANCH   6  13
BRANCH   2  16
ATOM     16  C7  <0> d           3.703  -0.541  -0.549  0.00  0.00     0.211 C 
ATOM     17  O1  <0> d           4.700   0.143  -0.664  0.00  0.00    -0.644 OA
ATOM     18  O2  <0> d           3.785  -1.879  -0.679  0.00  0.00    -0.644 OA
ENDBRANCH   2  16
TORSDOF 3
