REMARK  4 active torsions:
REMARK  status: ('A' for Active; 'I' for Inactive)
REMARK    1  A    between atoms: C1_1  and  C2_2 
REMARK    2  A    between atoms: C3_3  and  C5_8 
REMARK    3  A    between atoms: C5_8  and  O2_10 
REMARK    4  A    between atoms: O2_10  and  C6_11 
ROOT
ATOM      1  C2  <0> d           0.002  -0.004   0.002  0.00  0.00     0.041 A 
ATOM      2  C3  <0> d          -0.016   1.361   0.009  0.00  0.00     0.155 A 
ATOM      3  N1  <0> d           1.273   1.787  -0.001  0.00  0.00    -0.236 NA
ATOM      4  C4  <0> d           2.059   0.750  -0.014  0.00  0.00     0.065 A 
ATOM      5  N2  <0> d           1.302  -0.379  -0.012  0.00  0.00    -0.352 N 
ATOM      6  H1  <0> d           1.567  -1.447  -0.021  0.00  0.00     0.166 HD
ATOM      7  H5  <0> d           3.138   0.781  -0.024  0.00  0.00     0.143 H 
ENDROOT
BRANCH   2   8
ATOM      8  C5  <0> d          -1.215   2.215   0.020  0.00  0.00     0.313 C 
ATOM      9  O1  <0> d          -2.321   1.710   0.023  0.00  0.00    -0.257 OA
BRANCH   8  10
ATOM     10  O2  <0> d          -1.087   3.557   0.027  0.00  0.00    -0.321 OA
BRANCH  10  11
ATOM     11  C6  <0> d          -2.312   4.336   0.037  0.00  0.00     0.013 C 
ATOM     12  H6  <0> d          -2.064   5.408   0.042  0.00  0.00     0.067 H 
ATOM     13  H7  <0> d          -2.895   4.090   0.937  0.00  0.00     0.067 H 
ATOM     14  H8  <0> d          -2.904   4.100  -0.859  0.00  0.00     0.067 H 
ENDBRANCH  10  11
ENDBRANCH   8  10
ENDBRANCH   2   8
BRANCH   1  15
ATOM     15  C1  <0> d          -1.196  -0.918   0.008  0.00  0.00    -0.035 C 
ATOM     16  H2  <0> d          -2.116  -0.316   0.020  0.00  0.00     0.035 H 
ATOM     17  H3  <0> d          -1.164  -1.558   0.902  0.00  0.00     0.035 H 
ATOM     18  H4  <0> d          -1.181  -1.548  -0.894  0.00  0.00     0.035 H 
ENDBRANCH   1  15
TORSDOF 4
