REMARK  6 active torsions:
REMARK  status: ('A' for Active; 'I' for Inactive)
REMARK    1  A    between atoms: C1_1  and  C2_2 
REMARK    2  A    between atoms: C2_2  and  C3_3 
REMARK    3  A    between atoms: C2_2  and  C4_4 
REMARK    4  A    between atoms: C2_2  and  C5_5 
REMARK    5  A    between atoms: C5_5  and  C6_7 
REMARK    6  A    between atoms: C5_5  and  O1_12 
ROOT
ATOM      1  C5  <0> d           1.002   1.438  -0.306  0.00  0.00     0.045 C 
ATOM      2  H1  <0> d           0.642   2.464  -0.234  0.00  0.00     0.084 H 
ENDROOT
BRANCH   1   3
ATOM      3  C2  <0> d           2.208   1.385  -1.247  0.00  0.00    -0.025 C 
BRANCH   3   4
ATOM      4  C1  <0> d           1.842   2.039  -2.581  0.00  0.00    -0.067 C 
ATOM      5  H2  <0> d           1.559   3.078  -2.411  0.00  0.00     0.028 H 
ATOM      6  H3  <0> d           2.701   2.002  -3.251  0.00  0.00     0.028 H 
ATOM      7  H4  <0> d           1.007   1.504  -3.031  0.00  0.00     0.028 H 
ENDBRANCH   3   4
BRANCH   3   8
ATOM      8  C3  <0> d           3.381   2.137  -0.615  0.00  0.00    -0.067 C 
ATOM      9  H5  <0> d           3.641   1.671   0.335  0.00  0.00     0.028 H 
ATOM     10  H6  <0> d           4.240   2.100  -1.285  0.00  0.00     0.028 H 
ATOM     11  H7  <0> d           3.098   3.176  -0.445  0.00  0.00     0.028 H 
ENDBRANCH   3   8
BRANCH   3  12
ATOM     12  C4  <0> d           2.606  -0.073  -1.486  0.00  0.00    -0.067 C 
ATOM     13  H8  <0> d           1.719  -0.655  -1.734  0.00  0.00     0.028 H 
ATOM     14  H9  <0> d           3.317  -0.125  -2.309  0.00  0.00     0.028 H 
ATOM     15  H10 <0> d           3.064  -0.476  -0.583  0.00  0.00     0.028 H 
ENDBRANCH   3  12
ENDBRANCH   1   3
BRANCH   1  16
ATOM     16  C6  <0> d           1.416   0.943   1.081  0.00  0.00    -0.029 C 
ATOM     17  C10 <0> d           0.261   1.143   2.078  0.00  0.00    -0.059 C 
ATOM     18  C9  <0> d          -0.112  -0.258   2.606  0.00  0.00    -0.065 C 
ATOM     19  H18 <0> d           0.585   1.778   2.902  0.00  0.00     0.033 H 
ATOM     20  H19 <0> d          -0.594   1.593   1.574  0.00  0.00     0.033 H 
ATOM     21  C8  <0> d           1.171  -1.099   2.393  0.00  0.00    -0.065 C 
ATOM     22  H16 <0> d          -0.366  -0.211   3.665  0.00  0.00     0.033 H 
ATOM     23  H17 <0> d          -0.940  -0.674   2.032  0.00  0.00     0.033 H 
ATOM     24  C7  <0> d           1.704  -0.572   1.038  0.00  0.00    -0.059 C 
ATOM     25  H14 <0> d           1.891  -0.912   3.190  0.00  0.00     0.033 H 
ATOM     26  H15 <0> d           0.931  -2.160   2.328  0.00  0.00     0.033 H 
ATOM     27  H12 <0> d           1.170  -1.038   0.210  0.00  0.00     0.033 H 
ATOM     28  H13 <0> d           2.776  -0.754   0.952  0.00  0.00     0.033 H 
ATOM     29  H11 <0> d           2.300   1.483   1.421  0.00  0.00     0.043 H 
ENDBRANCH   1  16
BRANCH   1  30
ATOM     30  O1  <0> d          -0.038   0.603  -0.819  0.00  0.00    -0.394 OA
ATOM     31  H20 <0> d           0.212  -0.326  -0.910  0.00  0.00     0.210 HD
ENDBRANCH   1  30
TORSDOF 6
