REMARK  3 active torsions:
REMARK  status: ('A' for Active; 'I' for Inactive)
REMARK    1  A    between atoms: C1_1  and  C2_2 
REMARK    2  A    between atoms: C4_5  and  C6_9 
REMARK    3  A    between atoms: C4_5  and  C7_10 
ROOT
ATOM      1  C2  <0> d          -2.211   2.225   0.686  0.00  0.00     0.022 C 
ATOM      2  H1  <0> d          -2.686   3.102   1.125  0.00  0.00     0.054 H 
ATOM      3  C3  <0> d          -0.781   2.043   1.251  0.00  0.00    -0.031 C 
ATOM      4  C4  <0> d          -0.019   1.526   0.010  0.00  0.00     0.026 C 
ATOM      5  N1  <0> d          -0.765   2.030  -1.148  0.00  0.00    -0.352 N 
ATOM      6  C5  <0> d          -2.002   2.424  -0.799  0.00  0.00     0.222 C 
ATOM      7  O1  <0> d          -2.829   2.874  -1.563  0.00  0.00    -0.273 OA
ATOM      8  H5  <0> d          -0.767   1.305   2.053  0.00  0.00     0.037 H 
ATOM      9  H6  <0> d          -0.371   2.994   1.591  0.00  0.00     0.037 H 
ATOM     10  H7  <0> d          -0.411   2.073  -2.051  0.00  0.00     0.163 HD
ENDROOT
BRANCH   4  11
ATOM     11  C6  <0> d           0.002  -0.004   0.002  0.00  0.00    -0.053 C 
ATOM     12  H8  <0> d           0.518  -0.365   0.891  0.00  0.00     0.030 H 
ATOM     13  H9  <0> d          -1.021  -0.381  -0.003  0.00  0.00     0.030 H 
ATOM     14  H10 <0> d           0.523  -0.355  -0.888  0.00  0.00     0.030 H 
ENDBRANCH   4  11
BRANCH   4  15
ATOM     15  C7  <0> d           1.410   2.074  -0.000  0.00  0.00    -0.053 C 
ATOM     16  H11 <0> d           1.928   1.719  -0.891  0.00  0.00     0.030 H 
ATOM     17  H12 <0> d           1.381   3.164  -0.007  0.00  0.00     0.030 H 
ATOM     18  H13 <0> d           1.938   1.730   0.889  0.00  0.00     0.030 H 
ENDBRANCH   4  15
BRANCH   1  19
ATOM     19  C1  <0> d          -3.055   0.975   0.945  0.00  0.00    -0.065 C 
ATOM     20  H2  <0> d          -2.557   0.105   0.516  0.00  0.00     0.028 H 
ATOM     21  H3  <0> d          -3.174   0.833   2.019  0.00  0.00     0.028 H 
ATOM     22  H4  <0> d          -4.035   1.096   0.483  0.00  0.00     0.028 H 
ENDBRANCH   1  19
TORSDOF 3
