REMARK  3 active torsions:
REMARK  status: ('A' for Active; 'I' for Inactive)
REMARK    1  A    between atoms: C1_1  and  C2_2 
REMARK    2  A    between atoms: C2_2  and  N1_3 
REMARK    3  A    between atoms: N1_3  and  C3_4 
ROOT
ATOM      1  C3  <0> d           0.830  -1.831  -1.430  0.00  0.00     0.721 A 
ATOM      2  N2  <0> d           0.344  -2.687  -0.542  0.00  0.00    -0.074 NA
ATOM      3  C4  <0> d           0.454  -3.990  -0.725  0.00  0.00     0.042 A 
ATOM      4  C5  <0> d           1.107  -4.462  -1.872  0.00  0.00     0.080 A 
ATOM      5  C6  <0> d           1.611  -3.523  -2.782  0.00  0.00     0.042 A 
ATOM      6  N3  <0> d           1.454  -2.237  -2.528  0.00  0.00    -0.074 NA
ATOM      7  C7  <0> d           1.254  -5.866  -2.107  0.00  0.00     0.102 C 
ATOM      8  N4  <0> d           1.371  -6.981  -2.295  0.00  0.00    -0.191 NA
ATOM      9  H7  <0> d           0.052  -4.681   0.000  0.00  0.00     0.118 H 
ATOM     10  H8  <0> d           2.121  -3.847  -3.677  0.00  0.00     0.118 H 
ENDROOT
BRANCH   1  11
ATOM     11  N1  <0> d           0.688  -0.476  -1.203  0.00  0.00    -0.223 N 
ATOM     12  H6  <0> d           1.042   0.162  -1.842  0.00  0.00     0.177 HD
BRANCH  11  13
ATOM     13  C2  <0> d           0.002  -0.004   0.002  0.00  0.00     0.006 C 
ATOM     14  H4  <0> d           0.529  -0.365   0.885  0.00  0.00     0.064 H 
ATOM     15  H5  <0> d          -1.020  -0.381   0.010  0.00  0.00     0.064 H 
BRANCH  13  16
ATOM     16  C1  <0> d          -0.019   1.526   0.010  0.00  0.00    -0.061 C 
ATOM     17  H1  <0> d           1.004   1.903   0.003  0.00  0.00     0.029 H 
ATOM     18  H2  <0> d          -0.546   1.887  -0.873  0.00  0.00     0.029 H 
ATOM     19  H3  <0> d          -0.529   1.877   0.907  0.00  0.00     0.029 H 
ENDBRANCH  13  16
ENDBRANCH  11  13
ENDBRANCH   1  11
TORSDOF 3
