REMARK  3 active torsions:
REMARK  status: ('A' for Active; 'I' for Inactive)
REMARK    1  A    between atoms: C1_1  and  C2_2 
REMARK    2  A    between atoms: C3_3  and  C8_12 
REMARK    3  A    between atoms: C4_4  and  C7_9 
REMARK       I    between atoms: C7_9  and  N1_11 
ROOT
ATOM      1  C2  <0> d          -0.041  -0.035  -0.032  0.00  0.00    -0.057 C 
ATOM      2  C3  <0> d          -1.150  -0.712  -0.054  0.00  0.00    -0.065 C 
ATOM      3  C4  <0> d          -1.183  -2.214   0.015  0.00  0.00     0.065 C 
ATOM      4  H1  <0> d          -1.476  -2.525   1.017  0.00  0.00     0.065 H 
ATOM      5  C5  <0> d           0.206  -2.772  -0.306  0.00  0.00     0.035 C 
ATOM      6  O1  <0> d           1.174  -2.049   0.465  0.00  0.00    -0.386 OA
ATOM      7  C6  <0> d           1.310  -0.687   0.048  0.00  0.00     0.040 C 
ATOM      8  H5  <0> d           0.246  -3.830  -0.045  0.00  0.00     0.076 H 
ATOM      9  H6  <0> d           0.416  -2.648  -1.369  0.00  0.00     0.076 H 
ATOM     10  H7  <0> d           1.788  -0.651  -0.931  0.00  0.00     0.081 H 
ATOM     11  H8  <0> d           1.928  -0.151   0.769  0.00  0.00     0.081 H 
ENDROOT
BRANCH   3  12
ATOM     12  C7  <0> d          -2.179  -2.740  -0.986  0.00  0.00     0.225 C 
ATOM     13  O2  <0> d          -1.809  -3.069  -2.093  0.00  0.00    -0.273 OA
ATOM     14  N1  <0> d          -3.480  -2.846  -0.651  0.00  0.00    -0.369 N 
ATOM     15  H9  <0> d          -3.775  -2.583   0.235  0.00  0.00     0.159 HD
ATOM     16  H10 <0> d          -4.121  -3.185  -1.295  0.00  0.00     0.159 HD
ENDBRANCH   3  12
BRANCH   2  17
ATOM     17  C8  <0> d          -2.454   0.037  -0.151  0.00  0.00    -0.053 C 
ATOM     18  H11 <0> d          -2.263   1.109  -0.093  0.00  0.00     0.033 H 
ATOM     19  H12 <0> d          -2.937  -0.195  -1.100  0.00  0.00     0.033 H 
ATOM     20  H13 <0> d          -3.106  -0.260   0.670  0.00  0.00     0.033 H 
ENDBRANCH   2  17
BRANCH   1  21
ATOM     21  C1  <0> d          -0.112   1.469  -0.095  0.00  0.00    -0.052 C 
ATOM     22  H2  <0> d           0.896   1.882  -0.072  0.00  0.00     0.033 H 
ATOM     23  H3  <0> d          -0.607   1.770  -1.018  0.00  0.00     0.033 H 
ATOM     24  H4  <0> d          -0.678   1.842   0.759  0.00  0.00     0.033 H 
ENDBRANCH   1  21
TORSDOF 3
