REMARK  3 active torsions:
REMARK  status: ('A' for Active; 'I' for Inactive)
REMARK    1  A    between atoms: C1_1  and  C2_2 
REMARK    2  A    between atoms: C2_2  and  O2_4 
REMARK    3  A    between atoms: O2_4  and  C3_5 
ROOT
ATOM      1  C3  <0> d          -1.086  -2.047   0.001  0.00  0.00     0.172 A 
ATOM      2  C4  <0> d          -2.258  -2.793   0.003  0.00  0.00    -0.031 A 
ATOM      3  C5  <0> d          -2.177  -4.174  -0.006  0.00  0.00    -0.077 A 
ATOM      4  C6  <0> d          -0.921  -4.764  -0.015  0.00  0.00    -0.066 A 
ATOM      5  C7  <0> d           0.202  -3.960  -0.016  0.00  0.00     0.005 A 
ATOM      6  N1  <0> d           0.093  -2.646  -0.013  0.00  0.00    -0.237 NA
ATOM      7  H4  <0> d          -3.219  -2.301   0.011  0.00  0.00     0.090 H 
ATOM      8  H5  <0> d          -3.071  -4.780  -0.004  0.00  0.00     0.083 H 
ATOM      9  H6  <0> d          -0.822  -5.839  -0.022  0.00  0.00     0.085 H 
ATOM     10  H7  <0> d           1.183  -4.414  -0.024  0.00  0.00     0.114 H 
ENDROOT
BRANCH   1  11
ATOM     11  O2  <0> d          -1.152  -0.691   0.009  0.00  0.00    -0.260 OA
BRANCH  11  12
ATOM     12  C2  <0> d           0.002  -0.004   0.002  0.00  0.00     0.261 C 
ATOM     13  O1  <0> d           1.056  -0.594  -0.011  0.00  0.00    -0.265 OA
BRANCH  12  14
ATOM     14  C1  <0> d          -0.018   1.503   0.010  0.00  0.00     0.004 C 
ATOM     15  H1  <0> d           1.004   1.880   0.003  0.00  0.00     0.041 H 
ATOM     16  H2  <0> d          -0.545   1.864  -0.873  0.00  0.00     0.041 H 
ATOM     17  H3  <0> d          -0.529   1.854   0.907  0.00  0.00     0.041 H 
ENDBRANCH  12  14
ENDBRANCH  11  12
ENDBRANCH   1  11
TORSDOF 3
