REMARK  0 active torsions:
REMARK  status: ('A' for Active; 'I' for Inactive)
ROOT
ATOM      1  C1  <0> d           1.275   1.764  -0.001  0.00  0.00     0.064 A 
ATOM      2  N1  <0> d          -0.016   1.357   0.009  0.00  0.00    -0.352 N 
ATOM      3  H1  <0> d          -0.827   1.943   0.020  0.00  0.00     0.166 HD
ATOM      4  C2  <0> d           0.002  -0.004   0.002  0.00  0.00     0.035 A 
ATOM      5  C3  <0> d           1.285  -0.387  -0.010  0.00  0.00     0.058 A 
ATOM      6  N2  <0> d           2.049   0.709  -0.013  0.00  0.00    -0.246 NA
ATOM      7  C4  <0> d           1.750  -1.834  -0.019  0.00  0.00    -0.023 C 
ATOM      8  C5  <0> d           1.312  -2.455   1.316  0.00  0.00    -0.060 C 
ATOM      9  C6  <0> d          -0.146  -2.843   1.282  0.00  0.00    -0.064 C 
ATOM     10  C7  <0> d          -1.148  -1.716   1.335  0.00  0.00    -0.060 C 
ATOM     11  C8  <0> d          -1.185  -0.950   0.003  0.00  0.00    -0.025 C 
ATOM     12  H2  <0> d           1.611   2.791   0.001  0.00  0.00     0.143 H 
ATOM     13  H3  <0> d           2.836  -1.875  -0.109  0.00  0.00     0.042 H 
ATOM     14  H4  <0> d           1.288  -2.370  -0.848  0.00  0.00     0.042 H 
ATOM     15  H5  <0> d           1.471  -1.732   2.116  0.00  0.00     0.033 H 
ATOM     16  H6  <0> d           1.913  -3.342   1.512  0.00  0.00     0.033 H 
ATOM     17  H7  <0> d          -0.338  -3.505   2.127  0.00  0.00     0.033 H 
ATOM     18  H8  <0> d          -0.323  -3.409   0.368  0.00  0.00     0.033 H 
ATOM     19  H9  <0> d          -0.873  -1.030   2.135  0.00  0.00     0.033 H 
ATOM     20  H10 <0> d          -2.137  -2.127   1.539  0.00  0.00     0.033 H 
ATOM     21  H11 <0> d          -2.113  -0.383  -0.073  0.00  0.00     0.042 H 
ATOM     22  H12 <0> d          -1.106  -1.647  -0.831  0.00  0.00     0.042 H 
ENDROOT
TORSDOF 0
