REMARK  1 active torsions:
REMARK  status: ('A' for Active; 'I' for Inactive)
REMARK    1  A    between atoms: C1_1  and  C2_2 
ROOT
ATOM      1  C2  <0> d          -1.642   5.442  -0.362  0.00  0.00     0.045 C 
ATOM      2  H1  <0> d          -2.064   6.296   0.168  0.00  0.00     0.084 H 
ATOM      3  C3  <0> d          -2.369   4.136   0.038  0.00  0.00    -0.014 C 
ATOM      4  C4  <0> d          -1.234   3.131   0.031  0.00  0.00    -0.022 A 
ATOM      5  C5  <0> d          -1.219   1.754   0.017  0.00  0.00    -0.074 A 
ATOM      6  C6  <0> d          -0.013   1.076   0.008  0.00  0.00    -0.082 A 
ATOM      7  C7  <0> d           1.174   1.786   0.000  0.00  0.00    -0.080 A 
ATOM      8  C8  <0> d           1.161   3.165   0.011  0.00  0.00    -0.050 A 
ATOM      9  C9  <0> d          -0.049   3.855   0.029  0.00  0.00     0.075 A 
ATOM     10  O1  <0> d          -0.289   5.195   0.059  0.00  0.00    -0.345 OA
ATOM     11  H5  <0> d          -3.128   3.872  -0.699  0.00  0.00     0.044 H 
ATOM     12  H6  <0> d          -2.807   4.223   1.032  0.00  0.00     0.044 H 
ATOM     13  H7  <0> d          -2.148   1.203   0.019  0.00  0.00     0.084 H 
ATOM     14  H8  <0> d           0.002  -0.004   0.002  0.00  0.00     0.083 H 
ATOM     15  H9  <0> d           2.116   1.258  -0.014  0.00  0.00     0.083 H 
ATOM     16  H10 <0> d           2.092   3.712   0.005  0.00  0.00     0.087 H 
ENDROOT
BRANCH   1  17
ATOM     17  C1  <0> d          -1.708   5.659  -1.875  0.00  0.00    -0.051 C 
ATOM     18  H2  <0> d          -2.751   5.727  -2.187  0.00  0.00     0.030 H 
ATOM     19  H3  <0> d          -1.191   6.583  -2.133  0.00  0.00     0.030 H 
ATOM     20  H4  <0> d          -1.231   4.821  -2.383  0.00  0.00     0.030 H 
ENDBRANCH   1  17
TORSDOF 1
