REMARK  3 active torsions:
REMARK  status: ('A' for Active; 'I' for Inactive)
REMARK    1  A    between atoms: C1_1  and  O1_2 
REMARK    2  A    between atoms: O1_2  and  C2_3 
REMARK    3  A    between atoms: C5_6  and  N2_9 
ROOT
ATOM      1  C2  <0> d           0.606  -0.607  -1.055  0.00  0.00     0.203 A 
ATOM      2  C3  <0> d           0.650  -1.996  -1.121  0.00  0.00     0.171 A 
ATOM      3  C4  <0> d           1.268  -2.600  -2.203  0.00  0.00    -0.015 A 
ATOM      4  C5  <0> d           1.823  -1.786  -3.190  0.00  0.00     0.046 A 
ATOM      5  C6  <0> d           1.739  -0.409  -3.055  0.00  0.00     0.030 A 
ATOM      6  N1  <0> d           1.138   0.133  -2.012  0.00  0.00    -0.232 NA
ATOM      7  F1  <0> d           0.100  -2.745  -0.141  0.00  0.00    -0.201 F 
ATOM      8  H4  <0> d           1.318  -3.676  -2.281  0.00  0.00     0.092 H 
ATOM      9  H5  <0> d           2.166   0.229  -3.815  0.00  0.00     0.118 H 
ENDROOT
BRANCH   1  10
ATOM     10  O1  <0> d           0.002  -0.004   0.002  0.00  0.00    -0.337 OA
BRANCH  10  11
ATOM     11  C1  <0> d          -0.017   1.425   0.010  0.00  0.00     0.012 C 
ATOM     12  H1  <0> d           1.005   1.802   0.002  0.00  0.00     0.067 H 
ATOM     13  H2  <0> d          -0.544   1.786  -0.873  0.00  0.00     0.067 H 
ATOM     14  H3  <0> d          -0.527   1.776   0.907  0.00  0.00     0.067 H 
ENDBRANCH  10  11
ENDBRANCH   1  10
BRANCH   4  15
ATOM     15  N2  <0> d           2.457  -2.352  -4.302  0.00  0.00    -0.398 N 
ATOM     16  H6  <0> d           2.512  -3.317  -4.389  0.00  0.00     0.156 HD
ATOM     17  H7  <0> d           2.841  -1.780  -4.984  0.00  0.00     0.156 HD
ENDBRANCH   4  15
TORSDOF 3
