REMARK  4 active torsions:
REMARK  status: ('A' for Active; 'I' for Inactive)
REMARK    1  A    between atoms: C1_1  and  S1_2 
REMARK    2  A    between atoms: S1_2  and  C2_3 
REMARK    3  A    between atoms: C3_4  and  N4_10 
REMARK    4  A    between atoms: C4_5  and  N3_9 
ROOT
ATOM      1  C2  <0> d           1.117   2.013   0.002  0.00  0.00     0.124 A 
ATOM      2  C3  <0> d           2.334   1.329  -0.013  0.00  0.00     0.107 A 
ATOM      3  C4  <0> d           2.306  -0.067  -0.020  0.00  0.00     0.151 A 
ATOM      4  N1  <0> d           1.128  -0.688  -0.012  0.00  0.00    -0.223 NA
ATOM      5  C5  <0> d           0.002  -0.004   0.002  0.00  0.00     0.090 A 
ATOM      6  N2  <0> d          -0.016   1.313   0.009  0.00  0.00    -0.233 NA
ATOM      7  H4  <0> d          -0.935  -0.540   0.009  0.00  0.00     0.146 H 
ENDROOT
BRANCH   1   8
ATOM      8  S1  <0> d           1.081   3.775   0.011  0.00  0.00    -0.112 SA
BRANCH   8   9
ATOM      9  C1  <0> d          -0.688   4.177   0.030  0.00  0.00    -0.029 C 
ATOM     10  H1  <0> d          -1.148   3.752   0.922  0.00  0.00     0.042 H 
ATOM     11  H2  <0> d          -0.814   5.260   0.037  0.00  0.00     0.042 H 
ATOM     12  H3  <0> d          -1.164   3.761  -0.858  0.00  0.00     0.042 H 
ENDBRANCH   8   9
ENDBRANCH   1   8
BRANCH   2  13
ATOM     13  N4  <0> d           3.554   2.025  -0.021  0.00  0.00    -0.394 N 
ATOM     14  H7  <0> d           4.392   1.537  -0.031  0.00  0.00     0.156 HD
ATOM     15  H8  <0> d           3.558   2.995  -0.015  0.00  0.00     0.156 HD
ENDBRANCH   2  13
BRANCH   3  16
ATOM     16  N3  <0> d           3.489  -0.796  -0.035  0.00  0.00    -0.382 N 
ATOM     17  H5  <0> d           3.460  -1.766  -0.040  0.00  0.00     0.157 HD
ATOM     18  H6  <0> d           4.343  -0.336  -0.041  0.00  0.00     0.157 HD
ENDBRANCH   3  16
TORSDOF 4
