REMARK  5 active torsions:
REMARK  status: ('A' for Active; 'I' for Inactive)
REMARK    1  A    between atoms: C1_1  and  C2_2 
REMARK    2  A    between atoms: C2_2  and  C3_3 
REMARK    3  A    between atoms: C3_3  and  C4_5 
REMARK    4  A    between atoms: C4_5  and  C5_7 
REMARK    5  A    between atoms: C4_5  and  C6_8 
ROOT
ATOM      1  C4  <0> d          -2.186   3.509  -1.499  0.00  0.00     0.048 C 
ATOM      2  H1  <0> d          -2.387   3.199  -2.428  0.00  0.00     0.058 H 
ENDROOT
BRANCH   1   3
ATOM      3  C3  <0> d          -3.377   4.250  -0.948  0.00  0.00     0.135 C 
ATOM      4  O1  <0> d          -3.599   4.239   0.239  0.00  0.00    -0.297 OA
BRANCH   3   5
ATOM      5  C2  <0> d          -4.292   5.004  -1.879  0.00  0.00    -0.013 C 
ATOM      6  H5  <0> d          -3.770   5.708  -2.360  0.00  0.00     0.043 H 
ATOM      7  H6  <0> d          -4.723   4.313  -2.603  0.00  0.00     0.043 H 
BRANCH   5   8
ATOM      8  C1  <0> d          -5.412   5.661  -1.071  0.00  0.00    -0.070 C 
ATOM      9  H2  <0> d          -6.074   6.207  -1.744  0.00  0.00     0.028 H 
ATOM     10  H3  <0> d          -5.981   4.893  -0.546  0.00  0.00     0.028 H 
ATOM     11  H4  <0> d          -4.981   6.352  -0.346  0.00  0.00     0.028 H 
ENDBRANCH   5   8
ENDBRANCH   3   5
ENDBRANCH   1   3
BRANCH   1  12
ATOM     12  C5  <0> d          -0.973   4.440  -1.523  0.00  0.00    -0.062 C 
ATOM     13  H7  <0> d          -0.111   3.904  -1.921  0.00  0.00     0.028 H 
ATOM     14  H8  <0> d          -1.188   5.302  -2.155  0.00  0.00     0.028 H 
ATOM     15  H9  <0> d          -0.754   4.778  -0.510  0.00  0.00     0.028 H 
ENDBRANCH   1  12
BRANCH   1  16
ATOM     16  C6  <0> d          -1.883   2.299  -0.612  0.00  0.00     0.140 C 
ATOM     17  O3  <0> d          -1.517   2.735   0.715  0.00  0.00    -0.358 OA
ATOM     18  C8  <0> d          -0.778   1.605   1.245  0.00  0.00     0.042 C 
ATOM     19  C7  <0> d          -0.013   1.086   0.008  0.00  0.00     0.042 C 
ATOM     20  H13 <0> d          -1.459   0.843   1.625  0.00  0.00     0.077 H 
ATOM     21  H14 <0> d          -0.084   1.926   2.022  0.00  0.00     0.077 H 
ATOM     22  O2  <0> d          -0.748   1.582  -1.125  0.00  0.00    -0.358 OA
ATOM     23  H11 <0> d           0.002  -0.004   0.002  0.00  0.00     0.077 H 
ATOM     24  H12 <0> d           1.004   1.478   0.000  0.00  0.00     0.077 H 
ATOM     25  H10 <0> d          -2.752   1.643  -0.565  0.00  0.00     0.130 H 
ENDBRANCH   1  16
TORSDOF 5
