REMARK  6 active torsions:
REMARK  status: ('A' for Active; 'I' for Inactive)
REMARK    1  A    between atoms: C1_1  and  C2_2 
REMARK    2  A    between atoms: C2_2  and  C3_3 
REMARK    3  A    between atoms: C3_3  and  C4_5 
REMARK    4  A    between atoms: C3_3  and  C5_6 
REMARK    5  A    between atoms: C5_6  and  C6_8 
REMARK    6  A    between atoms: C5_6  and  N1_12 
ROOT
ATOM      1  C3  <0> d           0.969  -0.571  -1.120  0.00  0.00    -0.020 C 
ATOM      2  H1  <0> d           2.045  -0.414  -1.051  0.00  0.00     0.043 H 
ENDROOT
BRANCH   1   3
ATOM      3  C2  <0> d           0.290  -0.015   0.134  0.00  0.00    -0.063 C 
ATOM      4  H6  <0> d           0.610  -0.588   1.004  0.00  0.00     0.033 H 
ATOM      5  H7  <0> d          -0.792  -0.092   0.026  0.00  0.00     0.033 H 
BRANCH   3   6
ATOM      6  C1  <0> d           0.681   1.453   0.316  0.00  0.00    -0.076 C 
ATOM      7  H3  <0> d           1.763   1.530   0.424  0.00  0.00     0.027 H 
ATOM      8  H4  <0> d           0.361   2.025  -0.554  0.00  0.00     0.027 H 
ATOM      9  H5  <0> d           0.198   1.849   1.210  0.00  0.00     0.027 H 
ENDBRANCH   3   6
ENDBRANCH   1   3
BRANCH   1  10
ATOM     10  C4  <0> d           0.426   0.149  -2.356  0.00  0.00    -0.071 C 
ATOM     11  H8  <0> d           0.462   1.226  -2.193  0.00  0.00     0.028 H 
ATOM     12  H9  <0> d           1.034  -0.108  -3.223  0.00  0.00     0.028 H 
ATOM     13  H10 <0> d          -0.605  -0.158  -2.532  0.00  0.00     0.028 H 
ENDBRANCH   1  10
BRANCH   1  14
ATOM     14  C5  <0> d           0.679  -2.069  -1.235  0.00  0.00     0.225 C 
ATOM     15  H2  <0> d          -0.390  -2.222  -1.383  0.00  0.00     0.102 H 
BRANCH  14  16
ATOM     16  C6  <0> d           1.447  -2.648  -2.425  0.00  0.00     0.418 C 
ATOM     17  F1  <0> d           2.804  -2.332  -2.301  0.00  0.00    -0.169 F 
ATOM     18  F2  <0> d           1.292  -4.038  -2.449  0.00  0.00    -0.169 F 
ATOM     19  F3  <0> d           0.947  -2.102  -3.612  0.00  0.00    -0.169 F 
ENDBRANCH  14  16
BRANCH  14  20
ATOM     20  N1  <0> d           1.103  -2.746  -0.002  0.00  0.00     0.092 N 
ATOM     21  H11 <0> d           0.864  -3.726  -0.026  0.00  0.00     0.313 HD
ATOM     22  H12 <0> d           2.091  -2.619   0.158  0.00  0.00     0.313 HD
ENDBRANCH  14  20
ENDBRANCH   1  14
TORSDOF 6
