REMARK  6 active torsions:
REMARK  status: ('A' for Active; 'I' for Inactive)
REMARK    1  A    between atoms: C1_1  and  C2_2 
REMARK    2  A    between atoms: C2_2  and  C3_3 
REMARK    3  A    between atoms: C3_3  and  C4_4 
REMARK    4  A    between atoms: C4_4  and  C5_5 
REMARK    5  A    between atoms: C4_4  and  C6_6 
REMARK    6  A    between atoms: C4_4  and  O1_7 
ROOT
ATOM      1  C4  <0> d          -0.017   1.425   0.010  0.00  0.00     0.051 C 
ENDROOT
BRANCH   1   2
ATOM      2  C3  <0> d          -0.733   1.918   1.269  0.00  0.00    -0.037 C 
ATOM      3  H6  <0> d          -0.206   1.557   2.152  0.00  0.00     0.037 H 
ATOM      4  H7  <0> d          -0.748   3.008   1.275  0.00  0.00     0.037 H 
BRANCH   2   5
ATOM      5  C2  <0> d          -2.169   1.389   1.280  0.00  0.00    -0.066 C 
ATOM      6  H4  <0> d          -2.696   1.750   0.397  0.00  0.00     0.032 H 
ATOM      7  H5  <0> d          -2.154   0.299   1.274  0.00  0.00     0.032 H 
BRANCH   5   8
ATOM      8  C1  <0> d          -2.885   1.882   2.538  0.00  0.00    -0.076 C 
ATOM      9  H1  <0> d          -2.358   1.521   3.421  0.00  0.00     0.027 H 
ATOM     10  H2  <0> d          -2.900   2.972   2.544  0.00  0.00     0.027 H 
ATOM     11  H3  <0> d          -3.908   1.505   2.546  0.00  0.00     0.027 H 
ENDBRANCH   5   8
ENDBRANCH   2   5
ENDBRANCH   1   2
BRANCH   1  12
ATOM     12  C5  <0> d           1.418   1.954  -0.001  0.00  0.00    -0.048 C 
ATOM     13  H8  <0> d           1.928   1.603  -0.898  0.00  0.00     0.031 H 
ATOM     14  H9  <0> d           1.403   3.044   0.005  0.00  0.00     0.031 H 
ATOM     15  H10 <0> d           1.945   1.593   0.882  0.00  0.00     0.031 H 
ENDBRANCH   1  12
BRANCH   1  16
ATOM     16  C6  <0> d          -0.757   1.932  -1.230  0.00  0.00    -0.048 C 
ATOM     17  H11 <0> d          -1.780   1.554  -1.222  0.00  0.00     0.031 H 
ATOM     18  H12 <0> d          -0.772   3.022  -1.224  0.00  0.00     0.031 H 
ATOM     19  H13 <0> d          -0.247   1.580  -2.126  0.00  0.00     0.031 H 
ENDBRANCH   1  16
BRANCH   1  20
ATOM     20  O1  <0> d           0.002  -0.004   0.002  0.00  0.00    -0.391 OA
ATOM     21  H14 <0> d           0.456  -0.395   0.761  0.00  0.00     0.210 HD
ENDBRANCH   1  20
TORSDOF 6
