REMARK  4 active torsions:
REMARK  status: ('A' for Active; 'I' for Inactive)
REMARK    1  A    between atoms: C1_1  and  N1_2 
REMARK    2  A    between atoms: C3_6  and  C4_7 
REMARK    3  A    between atoms: C4_7  and  C5_8 
REMARK    4  A    between atoms: C5_8  and  C6_9 
ROOT
ATOM      1  N1  <0> d           1.068   1.894   0.002  0.00  0.00    -0.331 N 
ATOM      2  C2  <0> d          -0.013   1.076   0.008  0.00  0.00     0.088 A 
ATOM      3  N2  <0> d          -1.074   1.835   0.017  0.00  0.00    -0.143 NA
ATOM      4  N3  <0> d          -0.722   3.072   0.025  0.00  0.00    -0.135 NA
ATOM      5  C3  <0> d           0.580   3.158   0.013  0.00  0.00     0.129 A 
ATOM      6  H4  <0> d           0.002  -0.004   0.002  0.00  0.00     0.146 H 
ENDROOT
BRANCH   5   7
ATOM      7  C4  <0> d           1.391   4.428   0.013  0.00  0.00     0.001 C 
ATOM      8  H5  <0> d           0.842   5.210   0.536  0.00  0.00     0.045 H 
ATOM      9  H6  <0> d           2.342   4.252   0.516  0.00  0.00     0.045 H 
BRANCH   7  10
ATOM     10  C5  <0> d           1.652   4.865  -1.430  0.00  0.00     0.022 C 
ATOM     11  H7  <0> d           2.202   4.083  -1.954  0.00  0.00     0.049 H 
ATOM     12  H8  <0> d           0.702   5.041  -1.934  0.00  0.00     0.049 H 
BRANCH  10  13
ATOM     13  C6  <0> d           2.463   6.135  -1.431  0.00  0.00     0.172 C 
ATOM     14  O1  <0> d           2.799   6.639  -0.385  0.00  0.00    -0.648 OA
ATOM     15  O2  <0> d           2.814   6.707  -2.594  0.00  0.00    -0.648 OA
ENDBRANCH  10  13
ENDBRANCH   7  10
ENDBRANCH   5   7
BRANCH   1  16
ATOM     16  C1  <0> d           2.477   1.492  -0.014  0.00  0.00    -0.012 C 
ATOM     17  H1  <0> d           2.816   1.398  -1.045  0.00  0.00     0.057 H 
ATOM     18  H2  <0> d           3.075   2.246   0.498  0.00  0.00     0.057 H 
ATOM     19  H3  <0> d           2.587   0.534   0.494  0.00  0.00     0.057 H 
ENDBRANCH   1  16
TORSDOF 4
