REMARK  2 active torsions:
REMARK  status: ('A' for Active; 'I' for Inactive)
REMARK    1  A    between atoms: C1_1  and  C2_2 
REMARK    2  A    between atoms: C5_5  and  O2_11 
ROOT
ATOM      1  C2  <0> d           1.415   2.066  -0.000  0.00  0.00     0.017 C 
ATOM      2  C3  <0> d          -0.019   1.524   0.010  0.00  0.00    -0.049 C 
ATOM      3  C4  <0> d           0.002  -0.004   0.002  0.00  0.00    -0.035 C 
ATOM      4  C5  <0> d           1.440  -0.522   0.050  0.00  0.00     0.064 C 
ATOM      5  C6  <0> d           2.144   0.041   1.285  0.00  0.00    -0.035 C 
ATOM      6  C7  <0> d           2.127   1.569   1.265  0.00  0.00    -0.049 C 
ATOM      7  C8  <0> d           2.185  -0.060  -1.213  0.00  0.00     0.019 C 
ATOM      8  C9  <0> d           2.134   1.460  -1.196  0.00  0.00     0.138 C 
ATOM      9  O1  <0> d           2.627   2.135  -2.068  0.00  0.00    -0.297 OA
ATOM     10  H4  <0> d          -0.548   1.883  -0.872  0.00  0.00     0.034 H 
ATOM     11  H5  <0> d          -0.531   1.874   0.906  0.00  0.00     0.034 H 
ATOM     12  H6  <0> d          -0.543  -0.376   0.870  0.00  0.00     0.037 H 
ATOM     13  H7  <0> d          -0.480  -0.365  -0.906  0.00  0.00     0.037 H 
ATOM     14  H8  <0> d           1.634  -0.312   2.181  0.00  0.00     0.037 H 
ATOM     15  H9  <0> d           3.176  -0.307   1.300  0.00  0.00     0.037 H 
ATOM     16  H10 <0> d           1.599   1.937   2.145  0.00  0.00     0.034 H 
ATOM     17  H11 <0> d           3.151   1.943   1.274  0.00  0.00     0.034 H 
ATOM     18  H12 <0> d           3.126  -0.396  -1.187  0.00  0.00     0.049 H 
ATOM     19  H13 <0> d           1.687  -0.442  -2.104  0.00  0.00     0.049 H 
ENDROOT
BRANCH   1  20
ATOM     20  C1  <0> d           1.419   3.594  -0.062  0.00  0.00    -0.062 C 
ATOM     21  H1  <0> d           0.899   3.994   0.809  0.00  0.00     0.029 H 
ATOM     22  H2  <0> d           2.447   3.955  -0.068  0.00  0.00     0.029 H 
ATOM     23  H3  <0> d           0.912   3.922  -0.970  0.00  0.00     0.029 H 
ENDBRANCH   1  20
BRANCH   4  24
ATOM     24  O2  <0> d           1.432  -1.950   0.113  0.00  0.00    -0.389 OA
ATOM     25  H14 <0> d           2.314  -2.346   0.146  0.00  0.00     0.210 HD
ENDBRANCH   4  24
TORSDOF 2
