REMARK  3 active torsions:
REMARK  status: ('A' for Active; 'I' for Inactive)
REMARK    1  A    between atoms: C1_1  and  C2_2 
REMARK    2  A    between atoms: C2_2  and  S1_3 
REMARK    3  A    between atoms: S1_3  and  C3_4 
ROOT
ATOM      1  S1  <0> d           1.921  -2.016  -0.027  0.00  0.00    -0.091 SA
ENDROOT
BRANCH   1   2
ATOM      2  C2  <0> d           3.701  -1.685  -0.042  0.00  0.00    -0.019 C 
ATOM      3  H5  <0> d           3.955  -1.109  -0.932  0.00  0.00     0.049 H 
ATOM      4  H6  <0> d           3.973  -1.118   0.848  0.00  0.00     0.049 H 
BRANCH   2   5
ATOM      5  C1  <0> d           4.466  -3.010  -0.057  0.00  0.00    -0.068 C 
ATOM      6  H2  <0> d           5.537  -2.811  -0.066  0.00  0.00     0.028 H 
ATOM      7  H3  <0> d           4.211  -3.587   0.833  0.00  0.00     0.028 H 
ATOM      8  H4  <0> d           4.194  -3.577  -0.947  0.00  0.00     0.028 H 
ENDBRANCH   2   5
ENDBRANCH   1   2
BRANCH   1   9
ATOM      9  C3  <0> d           1.303  -0.366  -0.012  0.00  0.00     0.183 A 
ATOM     10  N3  <0> d           2.028   0.733  -0.013  0.00  0.00    -0.215 NA
ATOM     11  C4  <0> d           1.226   1.799   0.000  0.00  0.00     0.108 A 
ATOM     12  N2  <0> d          -0.017   1.400   0.010  0.00  0.00    -0.166 NA
ATOM     13  H7  <0> d           1.554   2.828   0.002  0.00  0.00     0.149 H 
ATOM     14  N1  <0> d           0.002  -0.004   0.002  0.00  0.00    -0.254 N 
ATOM     15  H1  <0> d          -0.766  -0.596   0.006  0.00  0.00     0.191 HD
ENDBRANCH   1   9
TORSDOF 3
