REMARK  8 active torsions:
REMARK  status: ('A' for Active; 'I' for Inactive)
REMARK    1  A    between atoms: C1_1  and  C2_2 
REMARK    2  A    between atoms: C2_2  and  C3_3 
REMARK    3  A    between atoms: C3_3  and  C4_4 
REMARK    4  A    between atoms: C4_4  and  C5_5 
REMARK    5  A    between atoms: C5_5  and  C6_7 
REMARK    6  A    between atoms: C5_5  and  C8_9 
REMARK    7  A    between atoms: C6_7  and  C7_8 
REMARK    8  A    between atoms: C8_9  and  O1_10 
ROOT
ATOM      1  C5  <0> d           1.357  -2.209  -2.660  0.00  0.00    -0.034 C 
ATOM      2  H1  <0> d           1.202  -1.764  -3.643  0.00  0.00     0.043 H 
ENDROOT
BRANCH   1   3
ATOM      3  C4  <0> d           0.646  -1.365  -1.601  0.00  0.00    -0.060 C 
ATOM      4  H9  <0> d           0.874  -1.758  -0.610  0.00  0.00     0.033 H 
ATOM      5  H10 <0> d          -0.431  -1.403  -1.768  0.00  0.00     0.033 H 
BRANCH   3   6
ATOM      6  C3  <0> d           1.126   0.085  -1.696  0.00  0.00    -0.065 C 
ATOM      7  H7  <0> d           0.898   0.478  -2.687  0.00  0.00     0.033 H 
ATOM      8  H8  <0> d           2.202   0.123  -1.529  0.00  0.00     0.033 H 
BRANCH   6   9
ATOM      9  C2  <0> d           0.415   0.929  -0.637  0.00  0.00    -0.069 C 
ATOM     10  H5  <0> d           0.643   0.535   0.354  0.00  0.00     0.032 H 
ATOM     11  H6  <0> d          -0.662   0.890  -0.804  0.00  0.00     0.032 H 
BRANCH   9  12
ATOM     12  C1  <0> d           0.895   2.378  -0.733  0.00  0.00    -0.077 C 
ATOM     13  H2  <0> d           1.971   2.416  -0.565  0.00  0.00     0.027 H 
ATOM     14  H3  <0> d           0.667   2.772  -1.723  0.00  0.00     0.027 H 
ATOM     15  H4  <0> d           0.388   2.979   0.023  0.00  0.00     0.027 H 
ENDBRANCH   9  12
ENDBRANCH   6   9
ENDBRANCH   3   6
ENDBRANCH   1   3
BRANCH   1  16
ATOM     16  C6  <0> d           2.855  -2.257  -2.353  0.00  0.00    -0.063 C 
ATOM     17  H11 <0> d           3.237  -1.242  -2.247  0.00  0.00     0.033 H 
ATOM     18  H12 <0> d           3.018  -2.805  -1.425  0.00  0.00     0.033 H 
BRANCH  16  19
ATOM     19  C7  <0> d           3.588  -2.961  -3.497  0.00  0.00    -0.076 C 
ATOM     20  H13 <0> d           4.664  -2.862  -3.354  0.00  0.00     0.027 H 
ATOM     21  H14 <0> d           3.318  -4.017  -3.505  0.00  0.00     0.027 H 
ATOM     22  H15 <0> d           3.303  -2.506  -4.445  0.00  0.00     0.027 H 
ENDBRANCH  16  19
ENDBRANCH   1  16
BRANCH   1  23
ATOM     23  C8  <0> d           0.788  -3.629  -2.648  0.00  0.00     0.020 C 
ATOM     24  H16 <0> d           1.044  -4.115  -1.706  0.00  0.00     0.074 H 
ATOM     25  H17 <0> d          -0.297  -3.586  -2.752  0.00  0.00     0.074 H 
BRANCH  23  26
ATOM     26  O1  <0> d           1.342  -4.373  -3.735  0.00  0.00    -0.400 OA
ATOM     27  H18 <0> d           1.024  -5.285  -3.788  0.00  0.00     0.209 HD
ENDBRANCH  23  26
ENDBRANCH   1  23
TORSDOF 8
