REMARK  1 active torsions:
REMARK  status: ('A' for Active; 'I' for Inactive)
REMARK    1  A    between atoms: N1_4  and  C5_6 
ROOT
ATOM      1  C1  <0> d          -0.019   1.539   0.011  0.00  0.00    -0.048 C 
ATOM      2  C2  <0> d           1.488   1.907  -0.002  0.00  0.00    -0.048 C 
ATOM      3  C3  <0> d           2.092   0.776   0.868  0.00  0.00     0.012 C 
ATOM      4  N1  <0> d           1.313  -0.426   0.518  0.00  0.00    -0.211 N 
ATOM      5  C4  <0> d           0.002  -0.004   0.002  0.00  0.00     0.012 C 
ATOM      6  H1  <0> d          -0.500   1.913   0.914  0.00  0.00     0.035 H 
ATOM      7  H2  <0> d          -0.517   1.923  -0.880  0.00  0.00     0.035 H 
ATOM      8  H3  <0> d           1.889   1.877  -1.015  0.00  0.00     0.035 H 
ATOM      9  H4  <0> d           1.656   2.882   0.455  0.00  0.00     0.035 H 
ATOM     10  H5  <0> d           3.144   0.630   0.624  0.00  0.00     0.065 H 
ATOM     11  H6  <0> d           1.976   1.008   1.926  0.00  0.00     0.065 H 
ATOM     12  H7  <0> d          -0.790  -0.389   0.644  0.00  0.00     0.065 H 
ATOM     13  H8  <0> d          -0.132  -0.371  -1.016  0.00  0.00     0.065 H 
ENDROOT
BRANCH   4  14
ATOM     14  C5  <0> d           1.743  -1.732   0.651  0.00  0.00     0.764 A 
ATOM     15  N2  <0> d           1.058  -2.832   0.342  0.00  0.00     0.067 NA
ATOM     16  N3  <0> d           1.809  -3.845   0.613  0.00  0.00    -0.006 NA
ATOM     17  N4  <0> d           2.934  -3.426   1.078  0.00  0.00    -0.006 NA
ATOM     18  N5  <0> d           2.927  -2.137   1.109  0.00  0.00     0.067 NA
ENDBRANCH   4  14
TORSDOF 1
