REMARK  5 active torsions:
REMARK  status: ('A' for Active; 'I' for Inactive)
REMARK    1  A    between atoms: C1_1  and  C2_2 
REMARK    2  A    between atoms: C2_2  and  O1_3 
REMARK    3  A    between atoms: O1_3  and  C3_4 
REMARK    4  A    between atoms: C6_7  and  N2_11 
REMARK    5  A    between atoms: C8_9  and  N1_10 
ROOT
ATOM      1  C3  <0> d          -3.648   3.010   0.036  0.00  0.00     0.095 A 
ATOM      2  C4  <0> d          -2.456   3.715   0.034  0.00  0.00    -0.046 A 
ATOM      3  C5  <0> d          -1.251   3.037   0.030  0.00  0.00    -0.055 A 
ATOM      4  C6  <0> d          -1.232   1.649   0.017  0.00  0.00     0.028 A 
ATOM      5  C7  <0> d          -2.425   0.939   0.019  0.00  0.00    -0.030 A 
ATOM      6  C8  <0> d          -3.634   1.617   0.028  0.00  0.00     0.061 A 
ATOM      7  H6  <0> d          -2.468   4.795   0.040  0.00  0.00     0.087 H 
ATOM      8  H7  <0> d          -0.322   3.589   0.033  0.00  0.00     0.087 H 
ATOM      9  H8  <0> d          -2.411  -0.141   0.013  0.00  0.00     0.090 H 
ENDROOT
BRANCH   1  10
ATOM     10  O1  <0> d          -4.834   3.679   0.044  0.00  0.00    -0.349 OA
BRANCH  10  11
ATOM     11  C2  <0> d          -4.774   5.106   0.052  0.00  0.00     0.023 C 
ATOM     12  H4  <0> d          -4.241   5.443   0.942  0.00  0.00     0.074 H 
ATOM     13  H5  <0> d          -4.249   5.453  -0.838  0.00  0.00     0.074 H 
BRANCH  11  14
ATOM     14  C1  <0> d          -6.193   5.677   0.061  0.00  0.00    -0.056 C 
ATOM     15  H1  <0> d          -6.718   5.330   0.952  0.00  0.00     0.030 H 
ATOM     16  H2  <0> d          -6.147   6.766   0.067  0.00  0.00     0.030 H 
ATOM     17  H3  <0> d          -6.726   5.340  -0.828  0.00  0.00     0.030 H 
ENDBRANCH  11  14
ENDBRANCH  10  11
ENDBRANCH   1  10
BRANCH   6  18
ATOM     18  N1  <0> d          -4.838   0.904   0.029  0.00  0.00    -0.397 N 
ATOM     19  H9  <0> d          -4.827  -0.066   0.024  0.00  0.00     0.156 HD
ATOM     20  H10 <0> d          -5.683   1.379   0.036  0.00  0.00     0.156 HD
ENDBRANCH   6  18
BRANCH   4  21
ATOM     21  N2  <0> d          -0.011   0.966   0.007  0.00  0.00    -0.399 N 
ATOM     22  H11 <0> d           0.002  -0.004   0.002  0.00  0.00     0.156 HD
ATOM     23  H12 <0> d           0.822   1.462   0.002  0.00  0.00     0.156 HD
ENDBRANCH   4  21
TORSDOF 5
