REMARK  0 active torsions:
REMARK  status: ('A' for Active; 'I' for Inactive)
ROOT
ATOM      1  C1  <0> d          -0.017   1.377   0.010  0.00  0.00    -0.082 A 
ATOM      2  C2  <0> d           1.171   2.084   0.002  0.00  0.00    -0.080 A 
ATOM      3  C3  <0> d           2.374   1.409  -0.017  0.00  0.00    -0.050 A 
ATOM      4  C4  <0> d           2.396   0.018  -0.026  0.00  0.00     0.085 A 
ATOM      5  C5  <0> d           1.207  -0.689  -0.012  0.00  0.00    -0.024 A 
ATOM      6  C6  <0> d           0.002  -0.004   0.002  0.00  0.00    -0.074 A 
ATOM      7  C7  <0> d           1.177  -2.196   0.001  0.00  0.00    -0.030 C 
ATOM      8  C8  <0> d           2.514  -2.747  -0.504  0.00  0.00     0.020 C 
ATOM      9  C9  <0> d           3.619  -1.941   0.150  0.00  0.00     0.264 C 
ATOM     10  O1  <0> d           4.472  -2.467   0.824  0.00  0.00    -0.265 OA
ATOM     11  O2  <0> d           3.604  -0.609  -0.056  0.00  0.00    -0.278 OA
ATOM     12  H1  <0> d          -0.959   1.903   0.026  0.00  0.00     0.083 H 
ATOM     13  H2  <0> d           1.157   3.164   0.011  0.00  0.00     0.083 H 
ATOM     14  H3  <0> d           3.302   1.962  -0.025  0.00  0.00     0.087 H 
ATOM     15  H4  <0> d          -0.928  -0.554   0.007  0.00  0.00     0.084 H 
ATOM     16  H5  <0> d           1.003  -2.546   1.018  0.00  0.00     0.041 H 
ATOM     17  H6  <0> d           0.373  -2.548  -0.645  0.00  0.00     0.041 H 
ATOM     18  H7  <0> d           2.610  -3.797  -0.227  0.00  0.00     0.048 H 
ATOM     19  H8  <0> d           2.572  -2.643  -1.587  0.00  0.00     0.048 H 
ENDROOT
TORSDOF 0
