REMARK  7 active torsions:
REMARK  status: ('A' for Active; 'I' for Inactive)
REMARK    1  A    between atoms: C1_1  and  C2_2 
REMARK    2  A    between atoms: C2_2  and  C3_3 
REMARK    3  A    between atoms: C3_3  and  C4_5 
REMARK    4  A    between atoms: C3_3  and  C5_6 
REMARK    5  A    between atoms: C5_6  and  O2_8 
REMARK    6  A    between atoms: O2_8  and  C6_9 
REMARK    7  A    between atoms: C6_9  and  C7_10 
ROOT
ATOM      1  C3  <0> d          -2.164   1.050   1.278  0.00  0.00     0.026 C 
ATOM      2  H1  <0> d          -2.152  -0.036   1.182  0.00  0.00     0.054 H 
ENDROOT
BRANCH   1   3
ATOM      3  C2  <0> d          -0.729   1.579   1.267  0.00  0.00    -0.057 C 
ATOM      4  H5  <0> d          -0.202   1.218   2.150  0.00  0.00     0.033 H 
ATOM      5  H6  <0> d          -0.744   2.669   1.273  0.00  0.00     0.033 H 
BRANCH   3   6
ATOM      6  C1  <0> d          -0.013   1.086   0.008  0.00  0.00    -0.076 C 
ATOM      7  H2  <0> d           0.002  -0.004   0.002  0.00  0.00     0.027 H 
ATOM      8  H3  <0> d           1.010   1.463   0.000  0.00  0.00     0.027 H 
ATOM      9  H4  <0> d          -0.540   1.447  -0.875  0.00  0.00     0.027 H 
ENDBRANCH   3   6
ENDBRANCH   1   3
BRANCH   1  10
ATOM     10  C4  <0> d          -2.940   1.656   0.107  0.00  0.00    -0.064 C 
ATOM     11  H7  <0> d          -3.963   1.278   0.114  0.00  0.00     0.028 H 
ATOM     12  H8  <0> d          -2.953   2.741   0.202  0.00  0.00     0.028 H 
ATOM     13  H9  <0> d          -2.458   1.379  -0.831  0.00  0.00     0.028 H 
ENDBRANCH   1  10
BRANCH   1  14
ATOM     14  C5  <0> d          -2.831   1.432   2.574  0.00  0.00     0.262 C 
ATOM     15  O1  <0> d          -2.221   2.064   3.404  0.00  0.00    -0.265 OA
BRANCH  14  16
ATOM     16  O2  <0> d          -4.103   1.071   2.806  0.00  0.00    -0.322 OA
BRANCH  16  17
ATOM     17  C6  <0> d          -4.681   1.474   4.076  0.00  0.00     0.025 C 
ATOM     18  H10 <0> d          -4.100   1.044   4.892  0.00  0.00     0.074 H 
ATOM     19  H11 <0> d          -4.666   2.561   4.154  0.00  0.00     0.074 H 
BRANCH  17  20
ATOM     20  C7  <0> d          -6.125   0.977   4.160  0.00  0.00    -0.056 C 
ATOM     21  H12 <0> d          -6.140  -0.110   4.082  0.00  0.00     0.030 H 
ATOM     22  H13 <0> d          -6.559   1.279   5.113  0.00  0.00     0.030 H 
ATOM     23  H14 <0> d          -6.705   1.407   3.344  0.00  0.00     0.030 H 
ENDBRANCH  17  20
ENDBRANCH  16  17
ENDBRANCH  14  16
ENDBRANCH   1  14
TORSDOF 7
