REMARK  1 active torsions:
REMARK  status: ('A' for Active; 'I' for Inactive)
REMARK    1  A    between atoms: C1_1  and  C2_2 
ROOT
ATOM      1  C2  <0> d           2.406  -0.098  -0.021  0.00  0.00    -0.029 A 
ATOM      2  C3  <0> d           1.199  -0.722  -0.013  0.00  0.00    -0.075 A 
ATOM      3  C4  <0> d           0.002  -0.004   0.002  0.00  0.00    -0.080 A 
ATOM      4  C5  <0> d          -0.016   1.354   0.009  0.00  0.00    -0.051 A 
ATOM      5  C6  <0> d           1.198   2.063   0.002  0.00  0.00     0.109 A 
ATOM      6  C7  <0> d           2.459   1.307  -0.015  0.00  0.00     0.115 A 
ATOM      7  N1  <0> d           3.406   2.231  -0.019  0.00  0.00    -0.155 NA
ATOM      8  N2  <0> d           2.853   3.394  -0.007  0.00  0.00    -0.196 N 
ATOM      9  H1  <0> d           3.367   4.251  -0.007  0.00  0.00     0.213 HD
ATOM     10  N3  <0> d           1.567   3.334   0.005  0.00  0.00    -0.155 NA
ATOM     11  H5  <0> d           1.165  -1.801  -0.018  0.00  0.00     0.084 H 
ATOM     12  H6  <0> d          -0.934  -0.543   0.008  0.00  0.00     0.083 H 
ATOM     13  H7  <0> d          -0.957   1.886   0.017  0.00  0.00     0.087 H 
ENDROOT
BRANCH   1  14
ATOM     14  C1  <0> d           3.678  -0.906  -0.037  0.00  0.00    -0.049 C 
ATOM     15  H2  <0> d           3.974  -1.096  -1.069  0.00  0.00     0.033 H 
ATOM     16  H3  <0> d           4.466  -0.352   0.472  0.00  0.00     0.033 H 
ATOM     17  H4  <0> d           3.512  -1.854   0.474  0.00  0.00     0.033 H 
ENDBRANCH   1  14
TORSDOF 1
