REMARK  1 active torsions:
REMARK  status: ('A' for Active; 'I' for Inactive)
REMARK    1  A    between atoms: C3_3  and  N2_11 
ROOT
ATOM      1  C1  <0> d           2.423   0.038  -0.021  0.00  0.00    -0.058 A 
ATOM      2  C2  <0> d           2.396   1.415  -0.013  0.00  0.00    -0.053 A 
ATOM      3  C3  <0> d           1.179   2.090   0.002  0.00  0.00     0.068 A 
ATOM      4  C4  <0> d          -0.017   1.377   0.010  0.00  0.00     0.182 A 
ATOM      5  C5  <0> d           0.002  -0.004   0.002  0.00  0.00     0.177 A 
ATOM      6  C6  <0> d           1.226  -0.684  -0.013  0.00  0.00     0.086 A 
ATOM      7  C7  <0> d           1.252  -2.116  -0.021  0.00  0.00     0.102 C 
ATOM      8  N1  <0> d           1.272  -3.252  -0.027  0.00  0.00    -0.191 NA
ATOM      9  F1  <0> d          -1.158  -0.697   0.009  0.00  0.00    -0.201 F 
ATOM     10  F2  <0> d          -1.196   2.036   0.019  0.00  0.00    -0.200 F 
ATOM     11  H1  <0> d           3.369  -0.483  -0.033  0.00  0.00     0.086 H 
ATOM     12  H2  <0> d           3.321   1.972  -0.019  0.00  0.00     0.087 H 
ENDROOT
BRANCH   3  13
ATOM     13  N2  <0> d           1.158   3.483   0.010  0.00  0.00    -0.397 N 
ATOM     14  H3  <0> d           0.310   3.955   0.020  0.00  0.00     0.156 HD
ATOM     15  H4  <0> d           1.990   3.981   0.004  0.00  0.00     0.156 HD
ENDBRANCH   3  13
TORSDOF 1
