REMARK  0 active torsions:
REMARK  status: ('A' for Active; 'I' for Inactive)
ROOT
ATOM      1  C1  <0> d          -0.017   1.380   0.010  0.00  0.00    -0.043 A 
ATOM      2  C2  <0> d           1.171   2.088   0.002  0.00  0.00    -0.052 A 
ATOM      3  C3  <0> d           2.379   1.411  -0.012  0.00  0.00     0.062 A 
ATOM      4  C4  <0> d           2.402   0.018  -0.017  0.00  0.00     0.098 A 
ATOM      5  C5  <0> d           1.208  -0.685  -0.012  0.00  0.00    -0.011 A 
ATOM      6  C6  <0> d           0.002  -0.004   0.002  0.00  0.00     0.119 A 
ATOM      7  F1  <0> d          -1.160  -0.693   0.008  0.00  0.00    -0.206 F 
ATOM      8  O1  <0> d           3.581  -0.658  -0.022  0.00  0.00    -0.347 OA
ATOM      9  C7  <0> d           4.748   0.040  -0.462  0.00  0.00     0.041 C 
ATOM     10  C8  <0> d           4.826   1.386   0.273  0.00  0.00     0.013 C 
ATOM     11  N1  <0> d           3.588   2.127  -0.024  0.00  0.00    -0.386 N 
ATOM     12  H1  <0> d          -0.959   1.907   0.026  0.00  0.00     0.088 H 
ATOM     13  H2  <0> d           1.157   3.168   0.007  0.00  0.00     0.087 H 
ATOM     14  H3  <0> d           1.217  -1.765  -0.018  0.00  0.00     0.092 H 
ATOM     15  H4  <0> d           5.635  -0.552  -0.236  0.00  0.00     0.077 H 
ATOM     16  H5  <0> d           4.687   0.214  -1.536  0.00  0.00     0.077 H 
ATOM     17  H6  <0> d           4.908   1.217   1.347  0.00  0.00     0.067 H 
ATOM     18  H7  <0> d           5.689   1.951  -0.080  0.00  0.00     0.067 H 
ATOM     19  H8  <0> d           3.607   3.077  -0.220  0.00  0.00     0.159 HD
ENDROOT
TORSDOF 0
