REMARK  5 active torsions:
REMARK  status: ('A' for Active; 'I' for Inactive)
REMARK    1  A    between atoms: C1_1  and  C2_2 
REMARK    2  A    between atoms: C2_2  and  C3_3 
REMARK    3  A    between atoms: C2_2  and  C4_4 
REMARK    4  A    between atoms: C4_4  and  C5_5 
REMARK    5  A    between atoms: C5_5  and  C7_7 
ROOT
ATOM      1  C4  <0> d          -1.433  -0.534   0.013  0.00  0.00    -0.043 C 
ATOM      2  H8  <0> d          -1.419  -1.620   0.097  0.00  0.00     0.040 H 
ATOM      3  H9  <0> d          -1.970  -0.111   0.862  0.00  0.00     0.040 H 
ENDROOT
BRANCH   1   4
ATOM      4  C2  <0> d           0.002  -0.004   0.002  0.00  0.00    -0.058 C 
ATOM      5  H4  <0> d           0.512  -0.356  -0.895  0.00  0.00     0.039 H 
BRANCH   4   6
ATOM      6  C1  <0> d          -0.019   1.526   0.010  0.00  0.00    -0.073 C 
ATOM      7  H1  <0> d           1.004   1.903   0.003  0.00  0.00     0.028 H 
ATOM      8  H2  <0> d          -0.546   1.887  -0.873  0.00  0.00     0.028 H 
ATOM      9  H3  <0> d          -0.529   1.877   0.907  0.00  0.00     0.028 H 
ENDBRANCH   4   6
BRANCH   4  10
ATOM     10  C3  <0> d           0.742  -0.511   1.242  0.00  0.00    -0.073 C 
ATOM     11  H5  <0> d           0.232  -0.159   2.138  0.00  0.00     0.028 H 
ATOM     12  H6  <0> d           0.757  -1.601   1.236  0.00  0.00     0.028 H 
ATOM     13  H7  <0> d           1.765  -0.134   1.234  0.00  0.00     0.028 H 
ENDBRANCH   4  10
ENDBRANCH   1   4
BRANCH   1  14
ATOM     14  C5  <0> d          -2.125  -0.137  -1.266  0.00  0.00    -0.093 C 
ATOM     15  C6  <0> d          -2.158  -0.969  -2.278  0.00  0.00    -0.119 C 
ATOM     16  H10 <0> d          -1.689  -1.938  -2.195  0.00  0.00     0.067 H 
ATOM     17  H11 <0> d          -2.653  -0.685  -3.195  0.00  0.00     0.067 H 
BRANCH  14  18
ATOM     18  C7  <0> d          -2.778   1.216  -1.381  0.00  0.00    -0.055 C 
ATOM     19  H12 <0> d          -2.055   1.937  -1.763  0.00  0.00     0.033 H 
ATOM     20  H13 <0> d          -3.625   1.153  -2.065  0.00  0.00     0.033 H 
ATOM     21  H14 <0> d          -3.127   1.536  -0.400  0.00  0.00     0.033 H 
ENDBRANCH  14  18
ENDBRANCH   1  14
TORSDOF 5
