REMARK  2 active torsions:
REMARK  status: ('A' for Active; 'I' for Inactive)
REMARK    1  A    between atoms: C1_1  and  N1_2 
REMARK    2  A    between atoms: C4_6  and  C5_7 
ROOT
ATOM      1  N1  <0> d           0.166   3.927   0.016  0.00  0.00    -0.339 N 
ATOM      2  C2  <0> d           0.671   5.174   0.024  0.00  0.00     0.066 A 
ATOM      3  N2  <0> d           1.978   5.109   0.010  0.00  0.00    -0.253 NA
ATOM      4  C3  <0> d           2.364   3.833  -0.000  0.00  0.00     0.036 A 
ATOM      5  C4  <0> d           1.239   3.056   0.007  0.00  0.00     0.130 A 
ATOM      6  H4  <0> d           0.089   6.084   0.034  0.00  0.00     0.143 H 
ATOM      7  H5  <0> d           3.384   3.477  -0.013  0.00  0.00     0.118 H 
ENDROOT
BRANCH   1   8
ATOM      8  C1  <0> d          -1.252   3.562   0.021  0.00  0.00    -0.013 C 
ATOM      9  H1  <0> d          -1.600   3.466   1.049  0.00  0.00     0.057 H 
ATOM     10  H2  <0> d          -1.829   4.336  -0.487  0.00  0.00     0.057 H 
ATOM     11  H3  <0> d          -1.385   2.612  -0.498  0.00  0.00     0.057 H 
ENDBRANCH   1   8
BRANCH   5  12
ATOM     12  C5  <0> d           1.182   1.591  -0.001  0.00  0.00     0.228 C 
ATOM     13  O1  <0> d           2.211   0.943  -0.014  0.00  0.00    -0.643 OA
ATOM     14  O2  <0> d          -0.011   0.963   0.007  0.00  0.00    -0.643 OA
ENDBRANCH   5  12
TORSDOF 2
