REMARK  0 active torsions:
REMARK  status: ('A' for Active; 'I' for Inactive)
ROOT
ATOM      1  C1  <0> d          -2.300   3.779   0.328  0.00  0.00    -0.091 C 
ATOM      2  C2  <0> d          -1.185   3.107   0.027  0.00  0.00     0.094 C 
ATOM      3  C3  <0> d          -1.186   1.631   0.017  0.00  0.00     0.272 C 
ATOM      4  O1  <0> d          -2.236   1.018   0.020  0.00  0.00    -0.266 OA
ATOM      5  N1  <0> d          -0.011   0.966   0.007  0.00  0.00    -0.318 N 
ATOM      6  H1  <0> d           0.002  -0.004   0.002  0.00  0.00     0.169 HD
ATOM      7  C4  <0> d           1.189   1.689  -0.000  0.00  0.00     0.094 C 
ATOM      8  C5  <0> d           2.345   1.075   0.267  0.00  0.00    -0.091 C 
ATOM      9  C6  <0> d           1.167   3.133  -0.306  0.00  0.00     0.272 C 
ATOM     10  O2  <0> d           2.198   3.719  -0.574  0.00  0.00    -0.266 OA
ATOM     11  N2  <0> d          -0.008   3.798  -0.285  0.00  0.00    -0.318 N 
ATOM     12  H2  <0> d          -0.036   4.747  -0.486  0.00  0.00     0.169 HD
ATOM     13  H3  <0> d          -2.296   4.859   0.331  0.00  0.00     0.070 H 
ATOM     14  H4  <0> d          -3.206   3.242   0.568  0.00  0.00     0.070 H 
ATOM     15  H5  <0> d           2.357   0.019   0.491  0.00  0.00     0.070 H 
ATOM     16  H6  <0> d           3.268   1.636   0.261  0.00  0.00     0.070 H 
ENDROOT
TORSDOF 0
