REMARK  2 active torsions:
REMARK  status: ('A' for Active; 'I' for Inactive)
REMARK    1  A    between atoms: C1_1  and  C2_2 
REMARK    2  A    between atoms: C7_8  and  N3_11 
ROOT
ATOM      1  C2  <0> d          -0.718   1.572   1.248  0.00  0.00     0.049 A 
ATOM      2  C3  <0> d          -0.132   1.836   2.437  0.00  0.00     0.010 A 
ATOM      3  N1  <0> d          -1.117   2.251   3.290  0.00  0.00    -0.314 N 
ATOM      4  C4  <0> d          -1.101   2.642   4.600  0.00  0.00    -0.014 A 
ATOM      5  C5  <0> d          -2.240   3.012   5.223  0.00  0.00    -0.065 A 
ATOM      6  C6  <0> d          -3.463   2.999   4.533  0.00  0.00    -0.053 A 
ATOM      7  C7  <0> d          -3.496   2.610   3.224  0.00  0.00     0.072 A 
ATOM      8  C8  <0> d          -2.292   2.226   2.587  0.00  0.00     0.160 A 
ATOM      9  N2  <0> d          -2.025   1.819   1.354  0.00  0.00    -0.232 NA
ATOM     10  H4  <0> d           0.918   1.739   2.669  0.00  0.00     0.115 H 
ATOM     11  H5  <0> d          -0.167   2.657   5.141  0.00  0.00     0.112 H 
ATOM     12  H6  <0> d          -2.210   3.319   6.258  0.00  0.00     0.085 H 
ATOM     13  H7  <0> d          -4.372   3.295   5.035  0.00  0.00     0.087 H 
ENDROOT
BRANCH   1  14
ATOM     14  C1  <0> d          -0.013   1.086   0.008  0.00  0.00    -0.034 C 
ATOM     15  H1  <0> d           0.002  -0.004   0.002  0.00  0.00     0.035 H 
ATOM     16  H2  <0> d           1.010   1.463   0.000  0.00  0.00     0.035 H 
ATOM     17  H3  <0> d          -0.540   1.447  -0.875  0.00  0.00     0.035 H 
ENDBRANCH   1  14
BRANCH   7  18
ATOM     18  N3  <0> d          -4.704   2.591   2.523  0.00  0.00    -0.396 N 
ATOM     19  H8  <0> d          -5.525   2.856   2.965  0.00  0.00     0.156 HD
ATOM     20  H9  <0> d          -4.721   2.314   1.593  0.00  0.00     0.156 HD
ENDBRANCH   7  18
TORSDOF 2
