REMARK  5 active torsions:
REMARK  status: ('A' for Active; 'I' for Inactive)
REMARK    1  A    between atoms: C1_1  and  C2_2 
REMARK    2  A    between atoms: C2_2  and  C3_3 
REMARK    3  A    between atoms: C3_3  and  C4_4 
REMARK       I    between atoms: C4_4  and  N1_6 
REMARK    4  A    between atoms: N1_6  and  C5_7 
REMARK    5  A    between atoms: N1_6  and  C6_8 
ROOT
ATOM      1  C4  <0> d          -0.014   1.209   0.009  0.00  0.00     0.218 C 
ATOM      2  O1  <0> d           0.002  -0.004   0.002  0.00  0.00    -0.273 OA
ATOM      3  N1  <0> d           1.143   1.898   0.001  0.00  0.00    -0.361 N 
ENDROOT
BRANCH   1   4
ATOM      4  C3  <0> d          -1.330   1.944   0.019  0.00  0.00     0.009 C 
ATOM      5  H6  <0> d          -1.392   2.565   0.913  0.00  0.00     0.047 H 
ATOM      6  H7  <0> d          -1.400   2.575  -0.867  0.00  0.00     0.047 H 
BRANCH   4   7
ATOM      7  C2  <0> d          -2.479   0.934   0.019  0.00  0.00    -0.061 C 
ATOM      8  H4  <0> d          -2.417   0.313  -0.875  0.00  0.00     0.033 H 
ATOM      9  H5  <0> d          -2.408   0.304   0.905  0.00  0.00     0.033 H 
BRANCH   7  10
ATOM     10  C1  <0> d          -3.814   1.681   0.029  0.00  0.00    -0.076 C 
ATOM     11  H1  <0> d          -3.876   2.302   0.923  0.00  0.00     0.027 H 
ATOM     12  H2  <0> d          -3.885   2.312  -0.857  0.00  0.00     0.027 H 
ATOM     13  H3  <0> d          -4.633   0.962   0.029  0.00  0.00     0.027 H 
ENDBRANCH   7  10
ENDBRANCH   4   7
ENDBRANCH   1   4
BRANCH   3  14
ATOM     14  C5  <0> d           2.422   1.183  -0.015  0.00  0.00    -0.017 C 
ATOM     15  H8  <0> d           2.729   1.011  -1.046  0.00  0.00     0.056 H 
ATOM     16  H9  <0> d           3.179   1.780   0.495  0.00  0.00     0.056 H 
ATOM     17  H10 <0> d           2.309   0.226   0.495  0.00  0.00     0.056 H 
ENDBRANCH   3  14
BRANCH   3  18
ATOM     18  C6  <0> d           1.124   3.363   0.009  0.00  0.00    -0.017 C 
ATOM     19  H11 <0> d           1.129   3.721   1.039  0.00  0.00     0.056 H 
ATOM     20  H12 <0> d           2.004   3.741  -0.511  0.00  0.00     0.056 H 
ATOM     21  H13 <0> d           0.224   3.717  -0.494  0.00  0.00     0.056 H 
ENDBRANCH   3  18
TORSDOF 5
