REMARK  2 active torsions:
REMARK  status: ('A' for Active; 'I' for Inactive)
REMARK    1  A    between atoms: C1_1  and  C2_2 
REMARK    2  A    between atoms: C2_2  and  C3_3 
ROOT
ATOM      1  C3  <0> d           0.707  -0.490  -1.238  0.00  0.00     0.054 A 
ATOM      2  C4  <0> d           0.845  -1.869  -1.467  0.00  0.00    -0.052 A 
ATOM      3  C5  <0> d           1.489  -2.277  -2.600  0.00  0.00    -0.014 A 
ATOM      4  C6  <0> d           1.978  -1.282  -3.474  0.00  0.00     0.261 A 
ATOM      5  O1  <0> d           2.561  -1.594  -4.500  0.00  0.00    -0.267 OA
ATOM      6  N1  <0> d           1.795   0.016  -3.163  0.00  0.00    -0.243 N 
ATOM      7  H1  <0> d           2.132   0.698  -3.765  0.00  0.00     0.192 HD
ATOM      8  N2  <0> d           1.181   0.373  -2.093  0.00  0.00    -0.177 NA
ATOM      9  H7  <0> d           0.451  -2.589  -0.764  0.00  0.00     0.086 H 
ATOM     10  H8  <0> d           1.620  -3.326  -2.821  0.00  0.00     0.092 H 
ENDROOT
BRANCH   1  11
ATOM     11  C2  <0> d           0.002  -0.004   0.002  0.00  0.00    -0.026 C 
ATOM     12  H5  <0> d           0.529  -0.365   0.885  0.00  0.00     0.041 H 
ATOM     13  H6  <0> d          -1.020  -0.381   0.010  0.00  0.00     0.041 H 
BRANCH  11  14
ATOM     14  C1  <0> d          -0.019   1.526   0.010  0.00  0.00    -0.071 C 
ATOM     15  H2  <0> d           1.004   1.903   0.003  0.00  0.00     0.028 H 
ATOM     16  H3  <0> d          -0.546   1.887  -0.873  0.00  0.00     0.028 H 
ATOM     17  H4  <0> d          -0.529   1.877   0.907  0.00  0.00     0.028 H 
ENDBRANCH  11  14
ENDBRANCH   1  11
TORSDOF 2
