REMARK  1 active torsions:
REMARK  status: ('A' for Active; 'I' for Inactive)
REMARK    1  A    between atoms: C4_4  and  N1_7 
ROOT
ATOM      1  C1  <0> d          -0.017   1.379   0.010  0.00  0.00    -0.083 A 
ATOM      2  C2  <0> d           1.170   2.089   0.002  0.00  0.00    -0.081 A 
ATOM      3  C3  <0> d           2.377   1.419  -0.013  0.00  0.00    -0.057 A 
ATOM      4  C4  <0> d           2.399   0.031  -0.021  0.00  0.00     0.039 A 
ATOM      5  C5  <0> d           1.207  -0.680  -0.013  0.00  0.00    -0.057 A 
ATOM      6  C6  <0> d           0.002  -0.004   0.002  0.00  0.00    -0.081 A 
ATOM      7  H1  <0> d          -0.960   1.905   0.026  0.00  0.00     0.083 H 
ATOM      8  H2  <0> d           1.152   3.169   0.008  0.00  0.00     0.083 H 
ATOM      9  H3  <0> d           3.304   1.974  -0.020  0.00  0.00     0.086 H 
ATOM     10  H4  <0> d           1.221  -1.760  -0.019  0.00  0.00     0.086 H 
ATOM     11  H5  <0> d          -0.926  -0.556   0.008  0.00  0.00     0.083 H 
ENDROOT
BRANCH   4  12
ATOM     12  N1  <0> d           3.624  -0.652  -0.037  0.00  0.00    -0.315 N 
ATOM     13  C9  <0> d           4.861  -0.092  -0.048  0.00  0.00     0.070 A 
ATOM     14  N2  <0> d           5.750  -1.048  -0.058  0.00  0.00    -0.254 NA
ATOM     15  H8  <0> d           5.074   0.967  -0.045  0.00  0.00     0.144 H 
ATOM     16  C8  <0> d           5.126  -2.235  -0.065  0.00  0.00     0.019 A 
ATOM     17  C7  <0> d           3.798  -2.012  -0.052  0.00  0.00     0.003 A 
ATOM     18  H7  <0> d           5.606  -3.202  -0.078  0.00  0.00     0.117 H 
ATOM     19  H6  <0> d           3.020  -2.761  -0.053  0.00  0.00     0.114 H 
ENDBRANCH   4  12
TORSDOF 1
