REMARK  8 active torsions:
REMARK  status: ('A' for Active; 'I' for Inactive)
REMARK    1  A    between atoms: C1_1  and  C2_2 
REMARK    2  A    between atoms: C2_2  and  C3_3 
REMARK    3  A    between atoms: C3_3  and  O1_4 
REMARK    4  A    between atoms: O1_4  and  C4_5 
REMARK    5  A    between atoms: C4_5  and  C5_6 
REMARK    6  A    between atoms: C5_6  and  O3_8 
REMARK    7  A    between atoms: O3_8  and  C6_9 
REMARK    8  A    between atoms: C6_9  and  C7_10 
ROOT
ATOM      1  C4  <0> d          -2.711  -2.561   0.014  0.00  0.00     0.099 C 
ATOM      2  H8  <0> d          -3.248  -2.252   0.911  0.00  0.00     0.089 H 
ATOM      3  H9  <0> d          -3.265  -2.242  -0.869  0.00  0.00     0.089 H 
ENDROOT
BRANCH   1   4
ATOM      4  O1  <0> d          -1.414  -1.962   0.005  0.00  0.00    -0.381 OA
BRANCH   4   5
ATOM      5  C3  <0> d          -1.433  -0.534   0.013  0.00  0.00     0.020 C 
ATOM      6  H6  <0> d          -1.944  -0.182   0.910  0.00  0.00     0.074 H 
ATOM      7  H7  <0> d          -1.960  -0.173  -0.870  0.00  0.00     0.074 H 
BRANCH   5   8
ATOM      8  C2  <0> d           0.002  -0.004   0.002  0.00  0.00    -0.049 C 
ATOM      9  H4  <0> d           0.512  -0.356  -0.895  0.00  0.00     0.035 H 
ATOM     10  H5  <0> d           0.529  -0.365   0.885  0.00  0.00     0.035 H 
BRANCH   8  11
ATOM     11  C1  <0> d          -0.019   1.526   0.010  0.00  0.00    -0.075 C 
ATOM     12  H1  <0> d           1.004   1.903   0.003  0.00  0.00     0.027 H 
ATOM     13  H2  <0> d          -0.546   1.887  -0.873  0.00  0.00     0.027 H 
ATOM     14  H3  <0> d          -0.529   1.877   0.907  0.00  0.00     0.027 H 
ENDBRANCH   8  11
ENDBRANCH   5   8
ENDBRANCH   4   5
ENDBRANCH   1   4
BRANCH   1  15
ATOM     15  C5  <0> d          -2.572  -4.062   0.005  0.00  0.00     0.282 C 
ATOM     16  O2  <0> d          -1.474  -4.567  -0.008  0.00  0.00    -0.263 OA
BRANCH  15  17
ATOM     17  O3  <0> d          -3.667  -4.838   0.011  0.00  0.00    -0.320 OA
BRANCH  17  18
ATOM     18  C6  <0> d          -3.461  -6.252   0.002  0.00  0.00     0.026 C 
ATOM     19  H10 <0> d          -2.909  -6.532  -0.895  0.00  0.00     0.074 H 
ATOM     20  H11 <0> d          -2.892  -6.542   0.885  0.00  0.00     0.074 H 
BRANCH  18  21
ATOM     21  C7  <0> d          -4.815  -6.965   0.011  0.00  0.00    -0.056 C 
ATOM     22  H12 <0> d          -4.657  -8.043   0.003  0.00  0.00     0.030 H 
ATOM     23  H13 <0> d          -5.367  -6.684   0.907  0.00  0.00     0.030 H 
ATOM     24  H14 <0> d          -5.384  -6.675  -0.872  0.00  0.00     0.030 H 
ENDBRANCH  18  21
ENDBRANCH  17  18
ENDBRANCH  15  17
ENDBRANCH   1  15
TORSDOF 8
