REMARK  2 active torsions:
REMARK  status: ('A' for Active; 'I' for Inactive)
REMARK    1  A    between atoms: C2_2  and  C7_9 
REMARK    2  A    between atoms: C3_3  and  C4_6 
ROOT
ATOM      1  C1  <0> d          -0.013   1.076   0.008  0.00  0.00     0.048 A 
ATOM      2  C2  <0> d          -1.194   1.952   0.018  0.00  0.00     0.092 A 
ATOM      3  C3  <0> d          -0.642   3.211   0.025  0.00  0.00     0.101 A 
ATOM      4  O1  <0> d           0.682   3.039   0.012  0.00  0.00    -0.217 OA
ATOM      5  N1  <0> d           1.010   1.878   0.003  0.00  0.00    -0.140 NA
ATOM      6  H1  <0> d           0.002  -0.004   0.002  0.00  0.00     0.119 H 
ENDROOT
BRANCH   3   7
ATOM      7  C4  <0> d          -1.383   4.523   0.040  0.00  0.00    -0.004 A 
ATOM      8  C6  <0> d          -1.126   5.466   1.216  0.00  0.00    -0.055 A 
ATOM      9  C5  <0> d          -0.564   5.799  -0.168  0.00  0.00    -0.055 A 
ATOM     10  H5  <0> d          -1.965   6.063   1.575  0.00  0.00     0.034 H 
ATOM     11  H6  <0> d          -0.421   5.138   1.980  0.00  0.00     0.034 H 
ATOM     12  H3  <0> d           0.510   5.689  -0.315  0.00  0.00     0.034 H 
ATOM     13  H4  <0> d          -1.034   6.613  -0.720  0.00  0.00     0.034 H 
ATOM     14  H2  <0> d          -2.390   4.498  -0.375  0.00  0.00     0.050 H 
ENDBRANCH   3   7
BRANCH   2  15
ATOM     15  C7  <0> d          -2.618   1.575   0.021  0.00  0.00     0.213 C 
ATOM     16  O2  <0> d          -3.475   2.436   0.029  0.00  0.00    -0.644 OA
ATOM     17  O3  <0> d          -2.970   0.274   0.016  0.00  0.00    -0.644 OA
ENDBRANCH   2  15
TORSDOF 2
