REMARK  4 active torsions:
REMARK  status: ('A' for Active; 'I' for Inactive)
REMARK    1  A    between atoms: C1_1  and  C2_2 
REMARK    2  A    between atoms: C2_2  and  O1_3 
REMARK    3  A    between atoms: O1_3  and  C3_4 
REMARK    4  A    between atoms: C3_4  and  C4_5 
ROOT
ATOM      1  C4  <0> d          -0.018   1.503   0.010  0.00  0.00    -0.035 A 
ATOM      2  C5  <0> d          -1.225   2.178   0.020  0.00  0.00    -0.075 A 
ATOM      3  C6  <0> d          -1.244   3.560   0.032  0.00  0.00    -0.082 A 
ATOM      4  C7  <0> d          -0.056   4.267   0.025  0.00  0.00    -0.083 A 
ATOM      5  C8  <0> d           1.151   3.592   0.010  0.00  0.00    -0.082 A 
ATOM      6  C9  <0> d           1.169   2.210   0.003  0.00  0.00    -0.075 A 
ATOM      7  H8  <0> d          -2.153   1.625   0.021  0.00  0.00     0.084 H 
ATOM      8  H9  <0> d          -2.186   4.087   0.044  0.00  0.00     0.083 H 
ATOM      9  H10 <0> d          -0.070   5.347   0.031  0.00  0.00     0.083 H 
ATOM     10  H11 <0> d           2.078   4.145   0.004  0.00  0.00     0.083 H 
ATOM     11  H12 <0> d           2.112   1.683  -0.009  0.00  0.00     0.084 H 
ENDROOT
BRANCH   1  12
ATOM     12  C3  <0> d           0.002  -0.004   0.002  0.00  0.00     0.043 C 
ATOM     13  H6  <0> d          -0.888  -0.377  -0.505  0.00  0.00     0.081 H 
ATOM     14  H7  <0> d           0.892  -0.352  -0.522  0.00  0.00     0.081 H 
BRANCH  12  15
ATOM     15  O1  <0> d           0.021  -0.488   1.347  0.00  0.00    -0.387 OA
BRANCH  15  16
ATOM     16  C2  <0> d           0.042  -1.913   1.452  0.00  0.00     0.017 C 
ATOM     17  H4  <0> d          -0.847  -2.325   0.974  0.00  0.00     0.073 H 
ATOM     18  H5  <0> d           0.932  -2.301   0.957  0.00  0.00     0.073 H 
BRANCH  16  19
ATOM     19  C1  <0> d           0.061  -2.315   2.928  0.00  0.00    -0.056 C 
ATOM     20  H1  <0> d           0.077  -3.402   3.008  0.00  0.00     0.030 H 
ATOM     21  H2  <0> d           0.950  -1.903   3.405  0.00  0.00     0.030 H 
ATOM     22  H3  <0> d          -0.829  -1.927   3.422  0.00  0.00     0.030 H 
ENDBRANCH  16  19
ENDBRANCH  15  16
ENDBRANCH  12  15
ENDBRANCH   1  12
TORSDOF 4
