REMARK  1 active torsions:
REMARK  status: ('A' for Active; 'I' for Inactive)
REMARK    1  A    between atoms: C1_1  and  N1_2 
ROOT
ATOM      1  N1  <0> d           0.002  -0.004   0.002  0.00  0.00    -0.359 N 
ATOM      2  C2  <0> d           0.008  -0.783  -1.120  0.00  0.00    -0.018 A 
ATOM      3  C3  <0> d           0.028  -2.082  -0.776  0.00  0.00    -0.038 A 
ATOM      4  C4  <0> d           0.035  -2.140   0.687  0.00  0.00     0.084 A 
ATOM      5  C5  <0> d           0.024  -0.801   1.124  0.00  0.00     0.062 A 
ATOM      6  C6  <0> d           0.032  -0.539   2.490  0.00  0.00    -0.053 A 
ATOM      7  C7  <0> d           0.056  -1.611   3.364  0.00  0.00    -0.064 A 
ATOM      8  C8  <0> d           0.069  -2.904   2.863  0.00  0.00     0.003 A 
ATOM      9  N2  <0> d           0.053  -3.135   1.568  0.00  0.00    -0.259 NA
ATOM     10  H4  <0> d          -0.002  -0.411  -2.134  0.00  0.00     0.111 H 
ATOM     11  H5  <0> d           0.037  -2.925  -1.452  0.00  0.00     0.089 H 
ATOM     12  H6  <0> d           0.022   0.476   2.859  0.00  0.00     0.087 H 
ATOM     13  H7  <0> d           0.063  -1.443   4.430  0.00  0.00     0.085 H 
ATOM     14  H8  <0> d           0.088  -3.738   3.549  0.00  0.00     0.114 H 
ENDROOT
BRANCH   1  15
ATOM     15  C1  <0> d          -0.018   1.461   0.010  0.00  0.00    -0.014 C 
ATOM     16  H1  <0> d           1.005   1.838   0.002  0.00  0.00     0.057 H 
ATOM     17  H2  <0> d          -0.545   1.822  -0.873  0.00  0.00     0.057 H 
ATOM     18  H3  <0> d          -0.528   1.812   0.907  0.00  0.00     0.057 H 
ENDBRANCH   1  15
TORSDOF 1
