REMARK  1 active torsions:
REMARK  status: ('A' for Active; 'I' for Inactive)
REMARK    1  A    between atoms: C1_1  and  C2_2 
ROOT
ATOM      1  C2  <0> d          -0.718   1.572   1.248  0.00  0.00     0.032 A 
ATOM      2  C3  <0> d           0.013   1.802   2.400  0.00  0.00    -0.058 A 
ATOM      3  C4  <0> d          -0.637   2.249   3.537  0.00  0.00    -0.058 A 
ATOM      4  C5  <0> d          -2.021   2.451   3.474  0.00  0.00     0.085 A 
ATOM      5  C6  <0> d          -2.687   2.196   2.272  0.00  0.00     0.147 A 
ATOM      6  N1  <0> d          -2.021   1.776   1.215  0.00  0.00    -0.240 NA
ATOM      7 Cl1  <0> d          -4.402   2.439   2.169  0.00  0.00    -0.061 Cl
ATOM      8  C7  <0> d          -2.742   2.913   4.622  0.00  0.00     0.102 C 
ATOM      9  N2  <0> d          -3.314   3.280   5.533  0.00  0.00    -0.191 NA
ATOM     10  H4  <0> d           1.080   1.635   2.411  0.00  0.00     0.086 H 
ATOM     11  H5  <0> d          -0.090   2.437   4.449  0.00  0.00     0.086 H 
ENDROOT
BRANCH   1  12
ATOM     12  C1  <0> d          -0.013   1.086   0.008  0.00  0.00    -0.035 C 
ATOM     13  H1  <0> d           0.002  -0.004   0.002  0.00  0.00     0.035 H 
ATOM     14  H2  <0> d           1.010   1.463   0.000  0.00  0.00     0.035 H 
ATOM     15  H3  <0> d          -0.540   1.447  -0.875  0.00  0.00     0.035 H 
ENDBRANCH   1  12
TORSDOF 1
