REMARK  1 active torsions:
REMARK  status: ('A' for Active; 'I' for Inactive)
REMARK    1  A    between atoms: C2_2  and  C4_7 
ROOT
ATOM      1  C1  <0> d           1.286   1.769  -0.001  0.00  0.00     0.011 A 
ATOM      2  C2  <0> d           2.054   0.663  -0.014  0.00  0.00     0.156 A 
ATOM      3  N1  <0> d           1.244  -0.406  -0.012  0.00  0.00    -0.238 NA
ATOM      4  C3  <0> d           0.002  -0.004   0.002  0.00  0.00     0.064 A 
ATOM      5  N2  <0> d          -0.016   1.346   0.009  0.00  0.00    -0.358 N 
ATOM      6  H1  <0> d          -0.829   1.929   0.020  0.00  0.00     0.166 HD
ATOM      7  H2  <0> d           1.630   2.792   0.001  0.00  0.00     0.114 H 
ATOM      8  H3  <0> d          -0.867  -0.645   0.006  0.00  0.00     0.143 H 
ENDROOT
BRANCH   2   9
ATOM      9  C4  <0> d           3.561   0.632  -0.028  0.00  0.00     0.435 C 
ATOM     10  F1  <0> d           3.999  -0.691  -0.154  0.00  0.00    -0.165 F 
ATOM     11  F2  <0> d           4.033   1.384  -1.109  0.00  0.00    -0.165 F 
ATOM     12  F3  <0> d           4.049   1.173   1.166  0.00  0.00    -0.165 F 
ENDBRANCH   2   9
TORSDOF 1
