REMARK  3 active torsions:
REMARK  status: ('A' for Active; 'I' for Inactive)
REMARK    1  A    between atoms: C1_1  and  C2_2 
REMARK    2  A    between atoms: C2_2  and  O2_4 
REMARK    3  A    between atoms: O2_4  and  C3_5 
ROOT
ATOM      1  C3  <0> d           0.002  -0.004   0.002  0.00  0.00     0.052 C 
ATOM      2  H1  <0> d           0.893  -0.368  -0.509  0.00  0.00     0.084 H 
ATOM      3  C4  <0> d          -0.053  -0.552   1.446  0.00  0.00    -0.037 C 
ATOM      4  C5  <0> d          -1.368  -1.388   1.501  0.00  0.00    -0.051 C 
ATOM      5  H2  <0> d          -1.432  -2.124   2.302  0.00  0.00     0.040 H 
ATOM      6  C6  <0> d          -2.509  -0.327   1.437  0.00  0.00    -0.061 C 
ATOM      7  C7  <0> d          -2.453   0.220  -0.012  0.00  0.00    -0.059 C 
ATOM      8  C8  <0> d          -1.283  -0.561  -0.683  0.00  0.00    -0.028 C 
ATOM      9  H3  <0> d          -1.272  -0.580  -1.773  0.00  0.00     0.043 H 
ATOM     10  C9  <0> d          -1.414  -1.952   0.036  0.00  0.00    -0.056 C 
ATOM     11  H7  <0> d           0.810  -1.187   1.645  0.00  0.00     0.037 H 
ATOM     12  H8  <0> d          -0.095   0.269   2.163  0.00  0.00     0.037 H 
ATOM     13  H9  <0> d          -3.474  -0.795   1.630  0.00  0.00     0.033 H 
ATOM     14  H10 <0> d          -2.324   0.473   2.154  0.00  0.00     0.033 H 
ATOM     15  H11 <0> d          -2.241   1.290  -0.005  0.00  0.00     0.033 H 
ATOM     16  H12 <0> d          -3.390   0.023  -0.534  0.00  0.00     0.033 H 
ATOM     17  H13 <0> d          -0.567  -2.603  -0.178  0.00  0.00     0.034 H 
ATOM     18  H14 <0> d          -2.363  -2.440  -0.184  0.00  0.00     0.034 H 
ENDROOT
BRANCH   1  19
ATOM     19  O2  <0> d          -0.018   1.448   0.010  0.00  0.00    -0.316 OA
BRANCH  19  20
ATOM     20  C2  <0> d           1.170   2.073   0.002  0.00  0.00     0.255 C 
ATOM     21  O1  <0> d           2.192   1.429  -0.011  0.00  0.00    -0.266 OA
BRANCH  20  22
ATOM     22  C1  <0> d           1.228   3.579   0.010  0.00  0.00     0.004 C 
ATOM     23  H4  <0> d           0.216   3.982   0.021  0.00  0.00     0.041 H 
ATOM     24  H5  <0> d           1.764   3.918   0.896  0.00  0.00     0.041 H 
ATOM     25  H6  <0> d           1.747   3.927  -0.884  0.00  0.00     0.041 H 
ENDBRANCH  20  22
ENDBRANCH  19  20
ENDBRANCH   1  19
TORSDOF 3
