REMARK  8 active torsions:
REMARK  status: ('A' for Active; 'I' for Inactive)
REMARK    1  A    between atoms: C1_1  and  C2_2 
REMARK    2  A    between atoms: C2_2  and  C3_3 
REMARK    3  A    between atoms: C2_2  and  C4_4 
REMARK    4  A    between atoms: C2_2  and  O2_10 
REMARK    5  A    between atoms: C5_5  and  C6_6 
REMARK    6  A    between atoms: C6_6  and  C7_7 
REMARK    7  A    between atoms: C6_6  and  C8_8 
REMARK    8  A    between atoms: C6_6  and  O1_9 
ROOT
ATOM      1  C4  <0> d           0.018  -1.178  -0.004  0.00  0.00    -0.066 C 
ATOM      2  C5  <0> d           0.002  -0.004   0.002  0.00  0.00    -0.066 C 
ENDROOT
BRANCH   1   3
ATOM      3  C2  <0> d           0.038  -2.650  -0.013  0.00  0.00     0.114 C 
BRANCH   3   4
ATOM      4  C1  <0> d           0.754  -3.143  -1.271  0.00  0.00    -0.038 C 
ATOM      5  H1  <0> d           1.777  -2.766  -1.279  0.00  0.00     0.033 H 
ATOM      6  H2  <0> d           0.769  -4.233  -1.277  0.00  0.00     0.033 H 
ATOM      7  H3  <0> d           0.227  -2.782  -2.154  0.00  0.00     0.033 H 
ENDBRANCH   3   4
BRANCH   3   8
ATOM      8  C3  <0> d           0.778  -3.157   1.227  0.00  0.00    -0.038 C 
ATOM      9  H4  <0> d           0.268  -2.805   2.124  0.00  0.00     0.033 H 
ATOM     10  H5  <0> d           0.793  -4.247   1.221  0.00  0.00     0.033 H 
ATOM     11  H6  <0> d           1.800  -2.779   1.219  0.00  0.00     0.033 H 
ENDBRANCH   3   8
BRANCH   3  12
ATOM     12  O2  <0> d          -1.303  -3.144  -0.002  0.00  0.00    -0.378 OA
ATOM     13  H14 <0> d          -1.817  -2.870   0.769  0.00  0.00     0.211 HD
ENDBRANCH   3  12
ENDBRANCH   1   3
BRANCH   2  14
ATOM     14  C6  <0> d          -0.018   1.468   0.010  0.00  0.00     0.114 C 
BRANCH  14  15
ATOM     15  C7  <0> d          -0.758   1.975  -1.229  0.00  0.00    -0.038 C 
ATOM     16  H7  <0> d          -1.780   1.597  -1.222  0.00  0.00     0.033 H 
ATOM     17  H8  <0> d          -0.773   3.064  -1.223  0.00  0.00     0.033 H 
ATOM     18  H9  <0> d          -0.248   1.623  -2.126  0.00  0.00     0.033 H 
ENDBRANCH  14  15
BRANCH  14  19
ATOM     19  C8  <0> d          -0.734   1.961   1.269  0.00  0.00    -0.038 C 
ATOM     20  H10 <0> d          -0.207   1.600   2.152  0.00  0.00     0.033 H 
ATOM     21  H11 <0> d          -0.749   3.051   1.275  0.00  0.00     0.033 H 
ATOM     22  H12 <0> d          -1.757   1.584   1.277  0.00  0.00     0.033 H 
ENDBRANCH  14  19
BRANCH  14  23
ATOM     23  O1  <0> d           1.323   1.962  -0.000  0.00  0.00    -0.378 OA
ATOM     24  H13 <0> d           1.837   1.688  -0.771  0.00  0.00     0.211 HD
ENDBRANCH  14  23
ENDBRANCH   2  14
TORSDOF 8
