REMARK  2 active torsions:
REMARK  status: ('A' for Active; 'I' for Inactive)
REMARK    1  A    between atoms: N1_4  and  C5_6 
REMARK    2  A    between atoms: C8_9  and  O1_12 
ROOT
ATOM      1  C5  <0> d           1.744  -1.746  -0.025  0.00  0.00     0.038 A 
ATOM      2  C6  <0> d           3.103  -2.029  -0.035  0.00  0.00    -0.054 A 
ATOM      3  C7  <0> d           3.534  -3.341  -0.047  0.00  0.00    -0.049 A 
ATOM      4  C8  <0> d           2.610  -4.375  -0.050  0.00  0.00     0.065 A 
ATOM      5  C9  <0> d           1.252  -4.093  -0.040  0.00  0.00    -0.049 A 
ATOM      6  C10 <0> d           0.820  -2.781  -0.021  0.00  0.00    -0.054 A 
ATOM      7  H5  <0> d           3.822  -1.224  -0.033  0.00  0.00     0.087 H 
ATOM      8  H6  <0> d           4.592  -3.561  -0.054  0.00  0.00     0.087 H 
ATOM      9  H7  <0> d           0.533  -4.898  -0.042  0.00  0.00     0.087 H 
ATOM     10  H8  <0> d          -0.238  -2.562  -0.009  0.00  0.00     0.087 H 
ENDROOT
BRANCH   1  11
ATOM     11  N1  <0> d           1.305  -0.413  -0.013  0.00  0.00    -0.333 N 
ATOM     12  C3  <0> d           2.109   0.690  -0.014  0.00  0.00    -0.015 A 
ATOM     13  C2  <0> d           1.322   1.786  -0.001  0.00  0.00    -0.066 A 
ATOM     14  H3  <0> d           3.189   0.687  -0.025  0.00  0.00     0.112 H 
ATOM     15  C1  <0> d          -0.016   1.345   0.009  0.00  0.00    -0.066 A 
ATOM     16  H2  <0> d           1.657   2.813   0.001  0.00  0.00     0.085 H 
ATOM     17  C4  <0> d           0.002  -0.004   0.002  0.00  0.00    -0.015 A 
ATOM     18  H1  <0> d          -0.895   1.972   0.025  0.00  0.00     0.085 H 
ATOM     19  H4  <0> d          -0.864  -0.649   0.007  0.00  0.00     0.112 H 
ENDBRANCH   1  11
BRANCH   4  20
ATOM     20  O1  <0> d           3.036  -5.666  -0.062  0.00  0.00    -0.361 OA
ATOM     21  H9  <0> d           3.164  -6.047   0.817  0.00  0.00     0.217 HD
ENDBRANCH   4  20
TORSDOF 2
