REMARK  0 active torsions:
REMARK  status: ('A' for Active; 'I' for Inactive)
ROOT
ATOM      1  C1  <0> d          -0.014   1.211   0.009  0.00  0.00     0.332 A 
ATOM      2  O1  <0> d           0.002  -0.004   0.002  0.00  0.00    -0.246 OA
ATOM      3  N1  <0> d          -1.191   1.869   0.018  0.00  0.00    -0.260 N 
ATOM      4  H1  <0> d          -2.024   1.373   0.019  0.00  0.00     0.175 HD
ATOM      5  C2  <0> d          -1.209   3.216   0.030  0.00  0.00     0.332 A 
ATOM      6  O2  <0> d          -2.269   3.810   0.043  0.00  0.00    -0.246 OA
ATOM      7  N2  <0> d          -0.051   3.906   0.023  0.00  0.00    -0.260 N 
ATOM      8  H2  <0> d          -0.064   4.876   0.028  0.00  0.00     0.175 HD
ATOM      9  C3  <0> d           1.125   3.248   0.009  0.00  0.00     0.332 A 
ATOM     10  O3  <0> d           2.169   3.870   0.003  0.00  0.00    -0.246 OA
ATOM     11  N3  <0> d           1.143   1.901   0.001  0.00  0.00    -0.260 N 
ATOM     12  H3  <0> d           1.990   1.427  -0.009  0.00  0.00     0.175 HD
ENDROOT
TORSDOF 0
