REMARK  3 active torsions:
REMARK  status: ('A' for Active; 'I' for Inactive)
REMARK    1  A    between atoms: C1_1  and  C2_2 
REMARK    2  A    between atoms: C3_3  and  O3_10 
REMARK    3  A    between atoms: N1_8  and  O2_9 
ROOT
ATOM      1  C2  <0> d           1.389   2.912  -0.001  0.00  0.00     0.073 A 
ATOM      2  C3  <0> d           2.611   3.502  -0.004  0.00  0.00     0.090 A 
ATOM      3  C4  <0> d           3.771   2.709  -0.019  0.00  0.00    -0.044 A 
ATOM      4  C5  <0> d           3.650   1.350  -0.025  0.00  0.00    -0.012 A 
ATOM      5  C6  <0> d           2.369   0.772  -0.016  0.00  0.00     0.271 A 
ATOM      6  O1  <0> d           2.249  -0.443  -0.021  0.00  0.00    -0.266 OA
ATOM      7  N1  <0> d           1.275   1.556  -0.002  0.00  0.00    -0.190 N 
ATOM      8  H4  <0> d           4.748   3.170  -0.027  0.00  0.00     0.088 H 
ATOM      9  H5  <0> d           4.530   0.724  -0.038  0.00  0.00     0.092 H 
ENDROOT
BRANCH   1  10
ATOM     10  C1  <0> d           0.148   3.766   0.009  0.00  0.00    -0.032 C 
ATOM     11  H1  <0> d          -0.144   3.971   1.039  0.00  0.00     0.035 H 
ATOM     12  H2  <0> d           0.349   4.705  -0.505  0.00  0.00     0.035 H 
ATOM     13  H3  <0> d          -0.660   3.239  -0.499  0.00  0.00     0.035 H 
ENDBRANCH   1  10
BRANCH   7  14
ATOM     14  O2  <0> d          -0.011   0.963   0.007  0.00  0.00    -0.280 OA
ATOM     15  H6  <0> d           0.002  -0.004   0.002  0.00  0.00     0.245 HD
ENDBRANCH   7  14
BRANCH   2  16
ATOM     16  O3  <0> d           2.713   4.859   0.002  0.00  0.00    -0.359 OA
ATOM     17  H7  <0> d           3.624   5.185  -0.005  0.00  0.00     0.217 HD
ENDBRANCH   2  16
TORSDOF 3
