REMARK  6 active torsions:
REMARK  status: ('A' for Active; 'I' for Inactive)
REMARK    1  A    between atoms: C1_1  and  C2_2 
REMARK    2  A    between atoms: C3_3  and  N3_11 
REMARK    3  A    between atoms: C4_4  and  C8_10 
REMARK    4  A    between atoms: N1_5  and  C5_7 
REMARK    5  A    between atoms: C5_7  and  C6_8 
REMARK    6  A    between atoms: C5_7  and  C7_9 
ROOT
ATOM      1  C2  <0> d          -1.557   2.921   2.708  0.00  0.00     0.079 A 
ATOM      2  C3  <0> d          -1.776   1.599   3.121  0.00  0.00     0.076 A 
ATOM      3  C4  <0> d          -1.239   0.776   2.185  0.00  0.00     0.055 A 
ATOM      4  N1  <0> d          -0.698   1.558   1.213  0.00  0.00    -0.268 N 
ATOM      5  N2  <0> d          -0.908   2.896   1.572  0.00  0.00    -0.175 NA
ENDROOT
BRANCH   4   6
ATOM      6  C5  <0> d          -0.013   1.086   0.008  0.00  0.00     0.028 C 
ATOM      7  H4  <0> d          -0.020  -0.014   0.041  0.00  0.00     0.074 H 
BRANCH   6   8
ATOM      8  C6  <0> d           1.423   1.615  -0.003  0.00  0.00    -0.056 C 
ATOM      9  H5  <0> d           1.938   1.261  -0.908  0.00  0.00     0.030 H 
ATOM     10  H6  <0> d           1.955   1.251   0.888  0.00  0.00     0.030 H 
ATOM     11  H7  <0> d           1.408   2.715   0.003  0.00  0.00     0.030 H 
ENDBRANCH   6   8
BRANCH   6  12
ATOM     12  C7  <0> d          -0.753   1.593  -1.232  0.00  0.00    -0.056 C 
ATOM     13  H8  <0> d          -0.238   1.238  -2.136  0.00  0.00     0.030 H 
ATOM     14  H9  <0> d          -0.767   2.693  -1.225  0.00  0.00     0.030 H 
ATOM     15  H10 <0> d          -1.785   1.212  -1.224  0.00  0.00     0.030 H 
ENDBRANCH   6  12
ENDBRANCH   4   6
BRANCH   3  16
ATOM     16  C8  <0> d          -1.242  -0.731   2.217  0.00  0.00    -0.034 C 
ATOM     17  H11 <0> d          -0.733  -1.117   1.322  0.00  0.00     0.035 H 
ATOM     18  H12 <0> d          -2.280  -1.095   2.234  0.00  0.00     0.035 H 
ATOM     19  H13 <0> d          -0.716  -1.079   3.118  0.00  0.00     0.035 H 
ENDBRANCH   3  16
BRANCH   2  20
ATOM     20  N3  <0> d          -2.437   1.197   4.298  0.00  0.00    -0.396 N 
ATOM     21  H14 <0> d          -2.554   0.127   4.525  0.00  0.00     0.156 HD
ATOM     22  H15 <0> d          -2.836   1.953   4.990  0.00  0.00     0.156 HD
ENDBRANCH   2  20
BRANCH   1  23
ATOM     23  C1  <0> d          -1.988   4.160   3.450  0.00  0.00    -0.032 C 
ATOM     24  H1  <0> d          -2.513   3.871   4.373  0.00  0.00     0.035 H 
ATOM     25  H2  <0> d          -2.663   4.752   2.814  0.00  0.00     0.035 H 
ATOM     26  H3  <0> d          -1.104   4.761   3.705  0.00  0.00     0.035 H 
ENDBRANCH   1  23
TORSDOF 6
