REMARK  3 active torsions:
REMARK  status: ('A' for Active; 'I' for Inactive)
REMARK    1  A    between atoms: C1_1  and  C2_2 
REMARK    2  A    between atoms: C3_4  and  C6_9 
REMARK    3  A    between atoms: C5_6  and  O1_8 
ROOT
ATOM      1  C2  <0> d          -3.614   2.030   0.031  0.00  0.00     0.126 A 
ATOM      2  N1  <0> d          -2.462   1.395   0.021  0.00  0.00    -0.227 NA
ATOM      3  C3  <0> d          -1.311   2.067   0.019  0.00  0.00     0.139 A 
ATOM      4  C4  <0> d          -1.343   3.458   0.033  0.00  0.00     0.003 A 
ATOM      5  C5  <0> d          -2.588   4.090   0.037  0.00  0.00     0.166 A 
ATOM      6  N2  <0> d          -3.686   3.346   0.039  0.00  0.00    -0.210 NA
ATOM      7  H4  <0> d          -0.429   4.034   0.036  0.00  0.00     0.094 H 
ENDROOT
BRANCH   1   8
ATOM      8  C1  <0> d          -4.890   1.228   0.032  0.00  0.00    -0.019 C 
ATOM      9  H1  <0> d          -5.193   1.029   1.060  0.00  0.00     0.037 H 
ATOM     10  H2  <0> d          -5.674   1.792  -0.475  0.00  0.00     0.037 H 
ATOM     11  H3  <0> d          -4.727   0.284  -0.489  0.00  0.00     0.037 H 
ENDBRANCH   1   8
BRANCH   5  12
ATOM     12  O1  <0> d          -2.672   5.442   0.045  0.00  0.00    -0.345 OA
ATOM     13  H5  <0> d          -2.693   5.830   0.931  0.00  0.00     0.219 HD
ENDBRANCH   5  12
BRANCH   3  14
ATOM     14  C6  <0> d          -0.016   1.342   0.009  0.00  0.00     0.229 C 
ATOM     15  O2  <0> d           1.027   1.963   0.003  0.00  0.00    -0.643 OA
ATOM     16  O3  <0> d           0.002  -0.004   0.002  0.00  0.00    -0.643 OA
ENDBRANCH   3  14
TORSDOF 3
