REMARK  5 active torsions:
REMARK  status: ('A' for Active; 'I' for Inactive)
REMARK    1  A    between atoms: C1_1  and  C2_2 
REMARK    2  A    between atoms: C2_2  and  C3_3 
REMARK    3  A    between atoms: C3_3  and  C4_5 
REMARK    4  A    between atoms: C3_3  and  N1_7 
REMARK    5  A    between atoms: C4_5  and  O1_6 
ROOT
ATOM      1  C3  <0> d          -2.516   1.385   0.016  0.00  0.00     0.054 C 
ATOM      2  H1  <0> d          -3.282   2.039   0.433  0.00  0.00     0.079 H 
ENDROOT
BRANCH   1   3
ATOM      3  C2  <0> d          -2.829   1.105  -1.455  0.00  0.00    -0.046 C 
ATOM      4  H5  <0> d          -2.019   0.522  -1.894  0.00  0.00     0.035 H 
ATOM      5  H6  <0> d          -3.761   0.543  -1.527  0.00  0.00     0.035 H 
BRANCH   3   6
ATOM      6  C1  <0> d          -2.972   2.429  -2.207  0.00  0.00    -0.075 C 
ATOM      7  H2  <0> d          -3.715   3.052  -1.709  0.00  0.00     0.027 H 
ATOM      8  H3  <0> d          -2.012   2.946  -2.218  0.00  0.00     0.027 H 
ATOM      9  H4  <0> d          -3.290   2.233  -3.231  0.00  0.00     0.027 H 
ENDBRANCH   3   6
ENDBRANCH   1   3
BRANCH   1  10
ATOM     10  C4  <0> d          -2.493   0.067   0.793  0.00  0.00     0.037 C 
ATOM     11  H7  <0> d          -1.796  -0.623   0.318  0.00  0.00     0.077 H 
ATOM     12  H8  <0> d          -2.175   0.255   1.819  0.00  0.00     0.077 H 
BRANCH  10  13
ATOM     13  O1  <0> d          -3.803  -0.505   0.798  0.00  0.00    -0.399 OA
ATOM     14  H9  <0> d          -3.863  -1.345   1.274  0.00  0.00     0.209 HD
ENDBRANCH  10  13
ENDBRANCH   1  10
BRANCH   1  15
ATOM     15  N1  <0> d          -1.208   2.036   0.121  0.00  0.00    -0.274 N 
ATOM     16  N2  <0> d          -0.977   3.416   0.195  0.00  0.00    -0.185 NA
ATOM     17  C7  <0> d           0.314   3.611   0.274  0.00  0.00     0.023 A 
ATOM     18  C6  <0> d           0.946   2.364   0.259  0.00  0.00    -0.048 A 
ATOM     19  H12 <0> d           0.806   4.570   0.341  0.00  0.00     0.117 H 
ATOM     20  C5  <0> d          -0.012   1.413   0.168  0.00  0.00     0.000 A 
ATOM     21  H11 <0> d           2.011   2.191   0.311  0.00  0.00     0.087 H 
ATOM     22  H10 <0> d           0.152   0.346   0.133  0.00  0.00     0.114 H 
ENDBRANCH   1  15
TORSDOF 5
