REMARK  0 active torsions:
REMARK  status: ('A' for Active; 'I' for Inactive)
ROOT
ATOM      1  C1  <0> d          -1.074   3.031  -0.635  0.00  0.00     0.051 C 
ATOM      2  C2  <0> d          -0.435   3.084   0.789  0.00  0.00     0.085 C 
ATOM      3  C3  <0> d           1.100   3.043   0.511  0.00  0.00     0.051 C 
ATOM      4  O1  <0> d           1.300   1.706  -0.001  0.00  0.00    -0.336 OA
ATOM      5  C4  <0> d          -0.013   1.086   0.008  0.00  0.00     0.234 C 
ATOM      6  O2  <0> d          -0.748   1.684  -1.092  0.00  0.00    -0.336 OA
ATOM      7  O3  <0> d          -0.638   1.682   1.188  0.00  0.00    -0.329 OA
ATOM      8  H1  <0> d          -2.154   3.170  -0.578  0.00  0.00     0.078 H 
ATOM      9  H2  <0> d          -0.624   3.778  -1.288  0.00  0.00     0.078 H 
ATOM     10  H3  <0> d          -0.793   3.865   1.460  0.00  0.00     0.090 H 
ATOM     11  H4  <0> d           1.663   3.191   1.433  0.00  0.00     0.078 H 
ATOM     12  H5  <0> d           1.377   3.787  -0.235  0.00  0.00     0.078 H 
ATOM     13  H6  <0> d           0.002  -0.004   0.002  0.00  0.00     0.179 H 
ENDROOT
TORSDOF 0
