REMARK  6 active torsions:
REMARK  status: ('A' for Active; 'I' for Inactive)
REMARK    1  A    between atoms: C1_1  and  C2_2 
REMARK    2  A    between atoms: C4_4  and  C9_11 
REMARK    3  A    between atoms: N1_5  and  C5_7 
REMARK    4  A    between atoms: C5_7  and  C6_8 
REMARK    5  A    between atoms: C6_8  and  C7_9 
REMARK    6  A    between atoms: C6_8  and  C8_10 
ROOT
ATOM      1  C2  <0> d           1.264   0.746   4.159  0.00  0.00     0.053 A 
ATOM      2  C3  <0> d           0.396  -0.349   4.098  0.00  0.00    -0.035 A 
ATOM      3  C4  <0> d          -0.430  -0.168   3.043  0.00  0.00     0.028 A 
ATOM      4  N1  <0> d          -0.092   0.997   2.451  0.00  0.00    -0.274 N 
ATOM      5  N2  <0> d           0.972   1.554   3.172  0.00  0.00    -0.177 NA
ATOM      6  H4  <0> d           0.386  -1.190   4.777  0.00  0.00     0.089 H 
ENDROOT
BRANCH   4   7
ATOM      7  C5  <0> d          -0.729   1.579   1.267  0.00  0.00     0.020 C 
ATOM      8  H5  <0> d          -1.785   1.274   1.231  0.00  0.00     0.068 H 
ATOM      9  H6  <0> d          -0.666   2.676   1.318  0.00  0.00     0.068 H 
BRANCH   7  10
ATOM     10  C6  <0> d          -0.013   1.086   0.008  0.00  0.00    -0.044 C 
ATOM     11  H7  <0> d           0.002  -0.014   0.002  0.00  0.00     0.041 H 
BRANCH  10  12
ATOM     12  C7  <0> d           1.423   1.615  -0.003  0.00  0.00    -0.072 C 
ATOM     13  H8  <0> d           1.938   1.261  -0.908  0.00  0.00     0.028 H 
ATOM     14  H9  <0> d           1.955   1.251   0.888  0.00  0.00     0.028 H 
ATOM     15  H10 <0> d           1.408   2.715   0.003  0.00  0.00     0.028 H 
ENDBRANCH  10  12
BRANCH  10  16
ATOM     16  C8  <0> d          -0.753   1.593  -1.232  0.00  0.00    -0.072 C 
ATOM     17  H11 <0> d          -0.238   1.238  -2.136  0.00  0.00     0.028 H 
ATOM     18  H12 <0> d          -0.768   2.693  -1.225  0.00  0.00     0.028 H 
ATOM     19  H13 <0> d          -1.785   1.212  -1.224  0.00  0.00     0.028 H 
ENDBRANCH  10  16
ENDBRANCH   7  10
ENDBRANCH   4   7
BRANCH   3  20
ATOM     20  C9  <0> d          -1.530  -1.100   2.604  0.00  0.00    -0.036 C 
ATOM     21  H14 <0> d          -2.030  -0.686   1.716  0.00  0.00     0.035 H 
ATOM     22  H15 <0> d          -2.261  -1.213   3.418  0.00  0.00     0.035 H 
ATOM     23  H16 <0> d          -1.101  -2.083   2.359  0.00  0.00     0.035 H 
ENDBRANCH   3  20
BRANCH   1  24
ATOM     24  C1  <0> d           2.347   0.960   5.185  0.00  0.00    -0.034 C 
ATOM     25  H1  <0> d           2.357   0.115   5.889  0.00  0.00     0.035 H 
ATOM     26  H2  <0> d           2.153   1.893   5.734  0.00  0.00     0.035 H 
ATOM     27  H3  <0> d           3.322   1.028   4.680  0.00  0.00     0.035 H 
ENDBRANCH   1  24
TORSDOF 6
