REMARK  0 active torsions:
REMARK  status: ('A' for Active; 'I' for Inactive)
ROOT
ATOM      1  C1  <0> d          -0.017   1.379   0.010  0.00  0.00    -0.074 A 
ATOM      2  C2  <0> d           1.187   2.073   0.002  0.00  0.00    -0.040 A 
ATOM      3  C3  <0> d           2.381   1.371  -0.013  0.00  0.00     0.114 A 
ATOM      4  N1  <0> d           3.685   1.786  -0.024  0.00  0.00    -0.351 N 
ATOM      5  C4  <0> d           4.485   0.662  -0.037  0.00  0.00    -0.006 A 
ATOM      6  C5  <0> d           3.701  -0.412  -0.036  0.00  0.00     0.005 A 
ATOM      7  N2  <0> d           2.381   0.009  -0.021  0.00  0.00    -0.274 N 
ATOM      8  C6  <0> d           1.222  -0.677  -0.013  0.00  0.00     0.253 A 
ATOM      9  C7  <0> d           0.002  -0.004   0.002  0.00  0.00    -0.017 A 
ATOM     10  O1  <0> d           1.241  -1.899  -0.020  0.00  0.00    -0.268 OA
ATOM     11  H1  <0> d          -0.955   1.913   0.026  0.00  0.00     0.083 H 
ATOM     12  H2  <0> d           1.191   3.153   0.007  0.00  0.00     0.089 H 
ATOM     13  H3  <0> d           5.565   0.655  -0.048  0.00  0.00     0.113 H 
ATOM     14  H4  <0> d           4.035  -1.439  -0.045  0.00  0.00     0.114 H 
ATOM     15  H5  <0> d          -0.924  -0.560   0.008  0.00  0.00     0.092 H 
ATOM     16  H6  <0> d           3.992   2.706  -0.021  0.00  0.00     0.166 HD
ENDROOT
TORSDOF 0
