REMARK  4 active torsions:
REMARK  status: ('A' for Active; 'I' for Inactive)
REMARK    1  A    between atoms: C1_1  and  C2_2 
REMARK    2  A    between atoms: C2_2  and  C3_3 
REMARK    3  A    between atoms: C2_2  and  C4_4 
REMARK    4  A    between atoms: C7_10  and  N3_12 
ROOT
ATOM      1  C4  <0> d           0.707  -0.490  -1.238  0.00  0.00     0.112 A 
ATOM      2  N1  <0> d           1.282  -1.709  -1.231  0.00  0.00    -0.311 N 
ATOM      3  H1  <0> d           1.237  -2.260  -0.434  0.00  0.00     0.170 HD
ATOM      4  C5  <0> d           1.919  -2.168  -2.329  0.00  0.00     0.250 A 
ATOM      5  O1  <0> d           2.441  -3.272  -2.329  0.00  0.00    -0.268 OA
ATOM      6  C6  <0> d           1.970  -1.353  -3.468  0.00  0.00     0.026 A 
ATOM      7  C7  <0> d           1.363  -0.110  -3.417  0.00  0.00     0.128 A 
ATOM      8  N2  <0> d           0.742   0.278  -2.292  0.00  0.00    -0.218 NA
ATOM      9  H9  <0> d           2.472  -1.687  -4.364  0.00  0.00     0.098 H 
ENDROOT
BRANCH   1  10
ATOM     10  C2  <0> d           0.002  -0.004   0.002  0.00  0.00    -0.003 C 
ATOM     11  H5  <0> d           0.529  -0.365   0.885  0.00  0.00     0.050 H 
BRANCH  10  12
ATOM     12  C1  <0> d          -0.019   1.526   0.010  0.00  0.00    -0.067 C 
ATOM     13  H2  <0> d           1.004   1.903   0.003  0.00  0.00     0.028 H 
ATOM     14  H3  <0> d          -0.546   1.887  -0.873  0.00  0.00     0.028 H 
ATOM     15  H4  <0> d          -0.529   1.877   0.907  0.00  0.00     0.028 H 
ENDBRANCH  10  12
BRANCH  10  16
ATOM     16  C3  <0> d          -1.433  -0.534   0.013  0.00  0.00    -0.067 C 
ATOM     17  H6  <0> d          -1.960  -0.173  -0.870  0.00  0.00     0.028 H 
ATOM     18  H7  <0> d          -1.419  -1.623   0.007  0.00  0.00     0.028 H 
ATOM     19  H8  <0> d          -1.944  -0.182   0.910  0.00  0.00     0.028 H 
ENDBRANCH  10  16
ENDBRANCH   1  10
BRANCH   7  20
ATOM     20  N3  <0> d           1.391   0.723  -4.517  0.00  0.00    -0.384 N 
ATOM     21  H10 <0> d           1.837   0.438  -5.330  0.00  0.00     0.157 HD
ATOM     22  H11 <0> d           0.964   1.593  -4.478  0.00  0.00     0.157 HD
ENDBRANCH   7  20
TORSDOF 4
