REMARK  5 active torsions:
REMARK  status: ('A' for Active; 'I' for Inactive)
REMARK    1  A    between atoms: C1_1  and  C2_2 
REMARK    2  A    between atoms: C3_3  and  C9_12 
REMARK    3  A    between atoms: C4_4  and  C7_9 
REMARK    4  A    between atoms: C5_7  and  C6_8 
REMARK    5  A    between atoms: C7_9  and  C8_11 
ROOT
ATOM      1  C2  <0> d           0.002  -0.004   0.002  0.00  0.00    -0.032 A 
ATOM      2  C3  <0> d           0.008  -0.819  -1.131  0.00  0.00    -0.024 A 
ATOM      3  C4  <0> d           0.028  -2.130  -0.685  0.00  0.00     0.085 A 
ATOM      4  N1  <0> d           0.034  -2.096   0.693  0.00  0.00    -0.356 N 
ATOM      5  H1  <0> d           0.047  -2.870   1.278  0.00  0.00     0.166 HD
ATOM      6  C5  <0> d           0.024  -0.808   1.094  0.00  0.00     0.012 A 
ENDROOT
BRANCH   3   7
ATOM      7  C7  <0> d           0.040  -3.289  -1.494  0.00  0.00     0.172 C 
ATOM      8  O1  <0> d           0.032  -3.185  -2.704  0.00  0.00    -0.291 OA
BRANCH   7   9
ATOM      9  C8  <0> d           0.061  -4.653  -0.855  0.00  0.00    -0.015 C 
ATOM     10  H8  <0> d           0.065  -4.546   0.230  0.00  0.00     0.038 H 
ATOM     11  H9  <0> d          -0.823  -5.212  -1.161  0.00  0.00     0.038 H 
ATOM     12  H10 <0> d           0.957  -5.188  -1.170  0.00  0.00     0.038 H 
ENDBRANCH   7   9
ENDBRANCH   3   7
BRANCH   2  13
ATOM     13  C9  <0> d          -0.005  -0.360  -2.567  0.00  0.00    -0.048 C 
ATOM     14  H11 <0> d           1.019  -0.235  -2.917  0.00  0.00     0.033 H 
ATOM     15  H12 <0> d          -0.512  -1.105  -3.181  0.00  0.00     0.033 H 
ATOM     16  H13 <0> d          -0.533   0.591  -2.639  0.00  0.00     0.033 H 
ENDBRANCH   2  13
BRANCH   1  17
ATOM     17  C1  <0> d          -0.018   1.503   0.010  0.00  0.00    -0.049 C 
ATOM     18  H2  <0> d           1.004   1.880   0.003  0.00  0.00     0.033 H 
ATOM     19  H3  <0> d          -0.545   1.864  -0.873  0.00  0.00     0.033 H 
ATOM     20  H4  <0> d          -0.529   1.854   0.907  0.00  0.00     0.033 H 
ENDBRANCH   1  17
BRANCH   6  21
ATOM     21  C6  <0> d           0.032  -0.338   2.526  0.00  0.00    -0.037 C 
ATOM     22  H5  <0> d          -0.994  -0.238   2.882  0.00  0.00     0.035 H 
ATOM     23  H6  <0> d           0.562  -1.063   3.143  0.00  0.00     0.035 H 
ATOM     24  H7  <0> d           0.534   0.628   2.588  0.00  0.00     0.035 H 
ENDBRANCH   6  21
TORSDOF 5
