REMARK  3 active torsions:
REMARK  status: ('A' for Active; 'I' for Inactive)
REMARK    1  A    between atoms: C1_1  and  N1_2 
REMARK    2  A    between atoms: N1_2  and  C2_3 
REMARK    3  A    between atoms: N1_2  and  C3_4 
ROOT
ATOM      1  C3  <0> d           0.002  -0.004   0.002  0.00  0.00     0.030 A 
ATOM      2  C4  <0> d           1.218  -0.675  -0.013  0.00  0.00    -0.061 A 
ATOM      3  C5  <0> d           2.401   0.037  -0.021  0.00  0.00    -0.081 A 
ATOM      4  C6  <0> d           2.385   1.423  -0.013  0.00  0.00    -0.081 A 
ATOM      5  C7  <0> d           1.189   2.106   0.002  0.00  0.00    -0.061 A 
ATOM      6  C8  <0> d          -0.017   1.399   0.010  0.00  0.00     0.066 A 
ATOM      7  C9  <0> d          -1.264   2.103   0.019  0.00  0.00     0.101 C 
ATOM      8  N2  <0> d          -2.254   2.661   0.027  0.00  0.00    -0.191 NA
ATOM      9  H7  <0> d           1.239  -1.754  -0.019  0.00  0.00     0.086 H 
ATOM     10  H8  <0> d           3.344  -0.489  -0.033  0.00  0.00     0.083 H 
ATOM     11  H9  <0> d           3.316   1.970  -0.019  0.00  0.00     0.083 H 
ATOM     12  H10 <0> d           1.183   3.186   0.008  0.00  0.00     0.085 H 
ENDROOT
BRANCH   1  13
ATOM     13  N1  <0> d          -1.190  -0.719   0.009  0.00  0.00    -0.290 NA
BRANCH  13  14
ATOM     14  C1  <0> d          -1.300  -1.571  -1.182  0.00  0.00    -0.029 C 
ATOM     15  H1  <0> d          -0.469  -2.277  -1.202  0.00  0.00     0.048 H 
ATOM     16  H2  <0> d          -2.242  -2.120  -1.151  0.00  0.00     0.048 H 
ATOM     17  H3  <0> d          -1.270  -0.950  -2.077  0.00  0.00     0.048 H 
ENDBRANCH  13  14
BRANCH  13  18
ATOM     18  C2  <0> d          -1.321  -1.513   1.238  0.00  0.00    -0.029 C 
ATOM     19  H4  <0> d          -1.306  -0.849   2.103  0.00  0.00     0.048 H 
ATOM     20  H5  <0> d          -2.262  -2.062   1.218  0.00  0.00     0.048 H 
ATOM     21  H6  <0> d          -0.491  -2.216   1.306  0.00  0.00     0.048 H 
ENDBRANCH  13  18
ENDBRANCH   1  13
TORSDOF 3
