REMARK  2 active torsions:
REMARK  status: ('A' for Active; 'I' for Inactive)
REMARK    1  A    between atoms: C2_2  and  C3_3 
REMARK    2  A    between atoms: C8_8  and  C9_9 
ROOT
ATOM      1  C1  <0> d           0.018  -1.178  -0.004  0.00  0.00    -0.149 C 
ATOM      2  C2  <0> d           0.002  -0.004   0.002  0.00  0.00    -0.077 C 
ATOM      3  H1  <0> d           0.032  -2.228  -0.010  0.00  0.00     0.166 H 
ENDROOT
BRANCH   2   4
ATOM      4  C3  <0> d          -0.017   1.428   0.010  0.00  0.00     0.034 A 
ATOM      5  C8  <0> d           1.190   2.154   0.002  0.00  0.00     0.059 A 
ATOM      6  C7  <0> d           1.154   3.549   0.010  0.00  0.00    -0.065 A 
ATOM      7  C6  <0> d          -0.057   4.207   0.025  0.00  0.00    -0.082 A 
ATOM      8  H5  <0> d           2.075   4.112   0.004  0.00  0.00     0.085 H 
ATOM      9  C5  <0> d          -1.245   3.493   0.033  0.00  0.00    -0.082 A 
ATOM     10  H4  <0> d          -0.081   5.287   0.031  0.00  0.00     0.083 H 
ATOM     11  C4  <0> d          -1.232   2.113   0.019  0.00  0.00    -0.064 A 
ATOM     12  H3  <0> d          -2.187   4.020   0.045  0.00  0.00     0.083 H 
ATOM     13  H2  <0> d          -2.162   1.564   0.020  0.00  0.00     0.085 H 
BRANCH   5  14
ATOM     14  C9  <0> d           2.482   1.444  -0.014  0.00  0.00     0.210 C 
ATOM     15  O1  <0> d           2.509   0.229  -0.022  0.00  0.00    -0.644 OA
ATOM     16  O2  <0> d           3.635   2.143  -0.022  0.00  0.00    -0.644 OA
ENDBRANCH   5  14
ENDBRANCH   2   4
TORSDOF 2
