REMARK  6 active torsions:
REMARK  status: ('A' for Active; 'I' for Inactive)
REMARK    1  A    between atoms: C1_1  and  C2_2 
REMARK    2  A    between atoms: C1_1  and  C3_4 
REMARK    3  A    between atoms: C2_2  and  O1_3 
REMARK    4  A    between atoms: C4_5  and  C5_6 
REMARK    5  A    between atoms: C5_6  and  C6_7 
REMARK    6  A    between atoms: C6_7  and  O2_8 
ROOT
ATOM      1  C3  <0> d           2.481   3.702  -0.002  0.00  0.00    -0.104 C 
ATOM      2  C4  <0> d           3.547   4.194  -0.009  0.00  0.00    -0.104 C 
ENDROOT
BRANCH   1   3
ATOM      3  C1  <0> d           1.145   3.085   0.008  0.00  0.00     0.010 C 
ATOM      4  H1  <0> d           0.591   3.404  -0.875  0.00  0.00     0.055 H 
ATOM      5  H2  <0> d           0.608   3.395   0.904  0.00  0.00     0.055 H 
BRANCH   3   6
ATOM      6  C2  <0> d           1.286   1.562  -0.002  0.00  0.00     0.026 C 
ATOM      7  H3  <0> d           1.840   1.243   0.881  0.00  0.00     0.075 H 
ATOM      8  H4  <0> d           1.823   1.252  -0.899  0.00  0.00     0.075 H 
BRANCH   6   9
ATOM      9  O1  <0> d          -0.011   0.963   0.007  0.00  0.00    -0.400 OA
ATOM     10  H5  <0> d           0.002  -0.004   0.002  0.00  0.00     0.209 HD
ENDBRANCH   6   9
ENDBRANCH   3   6
ENDBRANCH   1   3
BRANCH   2  11
ATOM     11  C5  <0> d           4.884   4.811  -0.019  0.00  0.00     0.010 C 
ATOM     12  H6  <0> d           4.783   5.896  -0.012  0.00  0.00     0.055 H 
ATOM     13  H7  <0> d           5.437   4.492   0.864  0.00  0.00     0.055 H 
BRANCH  11  14
ATOM     14  C6  <0> d           5.637   4.377  -1.278  0.00  0.00     0.026 C 
ATOM     15  H8  <0> d           5.738   3.292  -1.284  0.00  0.00     0.075 H 
ATOM     16  H9  <0> d           5.083   4.696  -2.161  0.00  0.00     0.075 H 
BRANCH  14  17
ATOM     17  O2  <0> d           6.934   4.976  -1.287  0.00  0.00    -0.400 OA
ATOM     18  H10 <0> d           7.469   4.744  -2.058  0.00  0.00     0.209 HD
ENDBRANCH  14  17
ENDBRANCH  11  14
ENDBRANCH   2  11
TORSDOF 6
