REMARK  2 active torsions:
REMARK  status: ('A' for Active; 'I' for Inactive)
REMARK    1  A    between atoms: C1_1  and  O1_2 
REMARK    2  A    between atoms: O1_2  and  C2_3 
ROOT
ATOM      1  C2  <0> d          -1.200  -0.638   0.010  0.00  0.00     0.116 A 
ATOM      2  C3  <0> d          -2.377   0.085   0.025  0.00  0.00     0.036 A 
ATOM      3  N1  <0> d          -3.553  -0.520   0.033  0.00  0.00    -0.268 NA
ATOM      4  C4  <0> d          -3.671  -1.833   0.027  0.00  0.00     0.032 A 
ATOM      5  C5  <0> d          -2.544  -2.640   0.011  0.00  0.00     0.107 A 
ATOM      6  C6  <0> d          -1.272  -2.039  -0.003  0.00  0.00     0.123 A 
ATOM      7  N2  <0> d          -0.361  -3.039  -0.023  0.00  0.00    -0.237 NA
ATOM      8  C7  <0> d          -0.973  -4.189  -0.027  0.00  0.00     0.088 A 
ATOM      9  N3  <0> d          -2.320  -4.001   0.001  0.00  0.00    -0.238 NA
ATOM     10  H4  <0> d          -2.337   1.164   0.031  0.00  0.00     0.119 H 
ATOM     11  H5  <0> d          -4.653  -2.283   0.034  0.00  0.00     0.118 H 
ATOM     12  H6  <0> d          -0.483  -5.151  -0.042  0.00  0.00     0.146 H 
ENDROOT
BRANCH   1  13
ATOM     13  O1  <0> d           0.002  -0.004   0.002  0.00  0.00    -0.352 OA
BRANCH  13  14
ATOM     14  C1  <0> d          -0.017   1.425   0.010  0.00  0.00     0.011 C 
ATOM     15  H1  <0> d           1.005   1.802   0.002  0.00  0.00     0.067 H 
ATOM     16  H2  <0> d          -0.544   1.786  -0.873  0.00  0.00     0.067 H 
ATOM     17  H3  <0> d          -0.527   1.776   0.907  0.00  0.00     0.067 H 
ENDBRANCH  13  14
ENDBRANCH   1  13
TORSDOF 2
