REMARK  3 active torsions:
REMARK  status: ('A' for Active; 'I' for Inactive)
REMARK    1  A    between atoms: C1_1  and  C2_2 
REMARK    2  A    between atoms: C3_3  and  C8_11 
REMARK    3  A    between atoms: C5_6  and  C7_9 
ROOT
ATOM      1  C2  <0> d           2.391   0.104  -0.020  0.00  0.00    -0.003 A 
ATOM      2  C3  <0> d           2.291   1.479  -0.011  0.00  0.00     0.016 A 
ATOM      3  N1  <0> d           1.112   2.073   0.004  0.00  0.00    -0.338 N 
ATOM      4  C4  <0> d          -0.017   1.382   0.009  0.00  0.00     0.188 A 
ATOM      5  C5  <0> d           0.002  -0.004   0.001  0.00  0.00     0.029 A 
ATOM      6  C6  <0> d           1.226  -0.662  -0.014  0.00  0.00     0.125 A 
ATOM      7  O1  <0> d           1.287  -2.019  -0.022  0.00  0.00    -0.191 OA
ATOM      8  O2  <0> d          -1.205   2.037   0.018  0.00  0.00    -0.172 OA
ATOM      9  H7  <0> d           1.050   3.171   0.011  0.00  0.00     0.168 HD
ENDROOT
BRANCH   1  10
ATOM     10  C1  <0> d           3.742  -0.562  -0.036  0.00  0.00    -0.047 C 
ATOM     11  H1  <0> d           3.612  -1.655  -0.042  0.00  0.00     0.033 H 
ATOM     12  H2  <0> d           4.308  -0.265   0.859  0.00  0.00     0.033 H 
ATOM     13  H3  <0> d           4.293  -0.254  -0.937  0.00  0.00     0.033 H 
ENDBRANCH   1  10
BRANCH   2  14
ATOM     14  C8  <0> d           3.545   2.315  -0.018  0.00  0.00    -0.037 C 
ATOM     15  H8  <0> d           4.425   1.656  -0.030  0.00  0.00     0.035 H 
ATOM     16  H9  <0> d           3.571   2.945   0.884  0.00  0.00     0.035 H 
ATOM     17  H10 <0> d           3.554   2.955  -0.912  0.00  0.00     0.035 H 
ENDBRANCH   2  14
BRANCH   5  18
ATOM     18  C7  <0> d          -1.286  -0.786   0.008  0.00  0.00    -0.044 C 
ATOM     19  H4  <0> d          -2.138  -0.090   0.019  0.00  0.00     0.033 H 
ATOM     20  H5  <0> d          -1.323  -1.425   0.903  0.00  0.00     0.033 H 
ATOM     21  H6  <0> d          -1.339  -1.414  -0.894  0.00  0.00     0.033 H 
ENDBRANCH   5  18
TORSDOF 3
