REMARK  4 active torsions:
REMARK  status: ('A' for Active; 'I' for Inactive)
REMARK    1  A    between atoms: C1_1  and  C2_2 
REMARK    2  A    between atoms: C2_2  and  C3_3 
REMARK    3  A    between atoms: C2_2  and  C4_4 
REMARK    4  A    between atoms: C9_10  and  O1_12 
ROOT
ATOM      1  C4  <0> d          -2.164   1.050   1.278  0.00  0.00    -0.026 C 
ATOM      2  H1  <0> d          -2.691   1.411   0.395  0.00  0.00     0.044 H 
ATOM      3  C5  <0> d          -2.880   1.543   2.537  0.00  0.00    -0.059 C 
ATOM      4  C6  <0> d          -4.316   1.014   2.547  0.00  0.00    -0.065 C 
ATOM      5  C7  <0> d          -4.295  -0.516   2.539  0.00  0.00    -0.063 C 
ATOM      6  C8  <0> d          -3.579  -1.010   1.280  0.00  0.00    -0.041 C 
ATOM      7  C9  <0> d          -2.143  -0.480   1.269  0.00  0.00     0.039 C 
ATOM      8  H2  <0> d          -1.633  -0.832   0.372  0.00  0.00     0.083 H 
ATOM      9  H10 <0> d          -2.353   1.182   3.420  0.00  0.00     0.033 H 
ATOM     10  H11 <0> d          -2.895   2.633   2.542  0.00  0.00     0.033 H 
ATOM     11  H12 <0> d          -4.843   1.375   1.664  0.00  0.00     0.033 H 
ATOM     12  H13 <0> d          -4.826   1.365   3.444  0.00  0.00     0.033 H 
ATOM     13  H14 <0> d          -5.318  -0.894   2.547  0.00  0.00     0.033 H 
ATOM     14  H15 <0> d          -3.768  -0.877   3.422  0.00  0.00     0.033 H 
ATOM     15  H16 <0> d          -4.106  -0.649   0.397  0.00  0.00     0.036 H 
ATOM     16  H17 <0> d          -3.564  -2.100   1.274  0.00  0.00     0.036 H 
ENDROOT
BRANCH   1  17
ATOM     17  C2  <0> d          -0.729   1.579   1.267  0.00  0.00    -0.055 C 
ATOM     18  H6  <0> d          -0.202   1.218   2.150  0.00  0.00     0.039 H 
BRANCH  17  19
ATOM     19  C1  <0> d          -0.013   1.086   0.008  0.00  0.00    -0.073 C 
ATOM     20  H3  <0> d           0.002  -0.004   0.002  0.00  0.00     0.028 H 
ATOM     21  H4  <0> d           1.010   1.463   0.000  0.00  0.00     0.028 H 
ATOM     22  H5  <0> d          -0.540   1.447  -0.875  0.00  0.00     0.028 H 
ENDBRANCH  17  19
BRANCH  17  23
ATOM     23  C3  <0> d          -0.750   3.109   1.275  0.00  0.00    -0.073 C 
ATOM     24  H7  <0> d          -1.277   3.470   0.392  0.00  0.00     0.028 H 
ATOM     25  H8  <0> d          -1.260   3.461   2.172  0.00  0.00     0.028 H 
ATOM     26  H9  <0> d           0.273   3.486   1.268  0.00  0.00     0.028 H 
ENDBRANCH  17  23
ENDBRANCH   1  17
BRANCH   7  27
ATOM     27  O1  <0> d          -1.452  -0.954   2.427  0.00  0.00    -0.395 OA
ATOM     28  H18 <0> d          -1.401  -1.917   2.487  0.00  0.00     0.210 HD
ENDBRANCH   7  27
TORSDOF 4
