REMARK  4 active torsions:
REMARK  status: ('A' for Active; 'I' for Inactive)
REMARK    1  A    between atoms: C1_1  and  C2_2 
REMARK    2  A    between atoms: C4_5  and  O4_14 
REMARK    3  A    between atoms: C5_7  and  O3_13 
REMARK    4  A    between atoms: C6_9  and  O2_12 
ROOT
ATOM      1  C2  <0> d           1.219   3.022  -2.490  0.00  0.00     0.040 C 
ATOM      2  H1  <0> d           2.212   3.472  -2.492  0.00  0.00     0.083 H 
ATOM      3  C3  <0> d           0.433   3.529  -1.277  0.00  0.00    -0.015 C 
ATOM      4  C4  <0> d           1.146   3.087   0.004  0.00  0.00     0.067 C 
ATOM      5  H2  <0> d           2.135   3.544   0.048  0.00  0.00     0.087 H 
ATOM      6  C5  <0> d           1.286   1.562  -0.002  0.00  0.00     0.107 C 
ATOM      7  H3  <0> d           1.841   1.243   0.881  0.00  0.00     0.094 H 
ATOM      8  C6  <0> d           2.040   1.130  -1.263  0.00  0.00     0.155 C 
ATOM      9  H4  <0> d           3.044   1.555  -1.249  0.00  0.00     0.133 H 
ATOM     10  O1  <0> d           1.339   1.600  -2.418  0.00  0.00    -0.354 OA
ATOM     11  H8  <0> d          -0.574   3.111  -1.296  0.00  0.00     0.040 H 
ATOM     12  H9  <0> d           0.378   4.617  -1.307  0.00  0.00     0.040 H 
ENDROOT
BRANCH   1  13
ATOM     13  C1  <0> d           0.481   3.408  -3.773  0.00  0.00    -0.052 C 
ATOM     14  H5  <0> d           0.389   4.493  -3.827  0.00  0.00     0.030 H 
ATOM     15  H6  <0> d           1.041   3.047  -4.636  0.00  0.00     0.030 H 
ATOM     16  H7  <0> d          -0.512   2.958  -3.771  0.00  0.00     0.030 H 
ENDBRANCH   1  13
BRANCH   8  17
ATOM     17  O2  <0> d           2.126  -0.295  -1.302  0.00  0.00    -0.369 OA
ATOM     18  H10 <0> d           2.592  -0.640  -2.076  0.00  0.00     0.212 HD
ENDBRANCH   8  17
BRANCH   4  19
ATOM     19  O4  <0> d           0.382   3.492   1.142  0.00  0.00    -0.393 OA
ATOM     20  H12 <0> d           0.774   3.239   1.989  0.00  0.00     0.210 HD
ENDBRANCH   4  19
BRANCH   6  21
ATOM     21  O3  <0> d          -0.011   0.963   0.007  0.00  0.00    -0.388 OA
ATOM     22  H11 <0> d           0.002  -0.004   0.002  0.00  0.00     0.210 HD
ENDBRANCH   6  21
TORSDOF 4
