REMARK  0 active torsions:
REMARK  status: ('A' for Active; 'I' for Inactive)
ROOT
ATOM      1  C1  <0> d          -1.300  -0.428   0.012  0.00  0.00    -0.021 A 
ATOM      2  C2  <0> d          -2.119   0.703   0.026  0.00  0.00     0.025 A 
ATOM      3  N1  <0> d          -1.355   1.764   0.029  0.00  0.00    -0.183 NA
ATOM      4  N2  <0> d          -0.016   1.342   0.009  0.00  0.00    -0.253 N 
ATOM      5  C3  <0> d           0.002  -0.004   0.002  0.00  0.00     0.121 A 
ATOM      6  N3  <0> d           1.296  -0.517  -0.013  0.00  0.00    -0.373 N 
ATOM      7  C4  <0> d           2.249   0.601  -0.016  0.00  0.00     0.011 A 
ATOM      8  C5  <0> d           1.361   1.857  -0.001  0.00  0.00     0.033 A 
ATOM      9  H1  <0> d          -1.635  -1.455   0.009  0.00  0.00     0.091 H 
ATOM     10  H2  <0> d          -3.199   0.702   0.036  0.00  0.00     0.117 H 
ATOM     11  H3  <0> d           1.531  -1.458  -0.020  0.00  0.00     0.161 HD
ATOM     12  H4  <0> d           2.878   0.568   0.873  0.00  0.00     0.066 H 
ATOM     13  H5  <0> d           2.861   0.578  -0.918  0.00  0.00     0.066 H 
ATOM     14  H6  <0> d           1.535   2.456  -0.895  0.00  0.00     0.070 H 
ATOM     15  H7  <0> d           1.552   2.446   0.896  0.00  0.00     0.070 H 
ENDROOT
TORSDOF 0
