REMARK  3 active torsions:
REMARK  status: ('A' for Active; 'I' for Inactive)
REMARK    1  A    between atoms: C1_1  and  C2_2 
REMARK    2  A    between atoms: C5_7  and  C6_8 
REMARK    3  A    between atoms: C6_8  and  C8_10 
ROOT
ATOM      1  C2  <0> d           0.002  -0.004   0.002  0.00  0.00    -0.034 A 
ATOM      2  C3  <0> d           1.347  -0.404  -0.013  0.00  0.00    -0.060 A 
ATOM      3  C4  <0> d           2.108   0.713  -0.014  0.00  0.00    -0.022 A 
ATOM      4  N1  <0> d           1.285   1.799  -0.001  0.00  0.00    -0.365 N 
ATOM      5  H1  <0> d           1.570   2.726   0.001  0.00  0.00     0.165 HD
ATOM      6  C5  <0> d          -0.016   1.361   0.009  0.00  0.00     0.043 A 
ATOM      7  H5  <0> d           1.709  -1.421  -0.022  0.00  0.00     0.086 H 
ATOM      8  H6  <0> d           3.188   0.740  -0.024  0.00  0.00     0.111 H 
ENDROOT
BRANCH   6   9
ATOM      9  C6  <0> d          -1.217   2.211   0.020  0.00  0.00    -0.044 C 
ATOM     10  C7  <0> d          -1.937   2.358  -1.088  0.00  0.00    -0.114 C 
ATOM     11  H7  <0> d          -2.819   2.983  -1.080  0.00  0.00     0.067 H 
ATOM     12  H8  <0> d          -1.641   1.854  -1.995  0.00  0.00     0.067 H 
BRANCH   9  13
ATOM     13  C8  <0> d          -1.631   2.916   1.287  0.00  0.00    -0.050 C 
ATOM     14  H9  <0> d          -0.925   2.677   2.082  0.00  0.00     0.033 H 
ATOM     15  H10 <0> d          -1.637   3.993   1.118  0.00  0.00     0.033 H 
ATOM     16  H11 <0> d          -2.629   2.587   1.576  0.00  0.00     0.033 H 
ENDBRANCH   9  13
ENDBRANCH   6   9
BRANCH   1  17
ATOM     17  C1  <0> d          -1.200  -0.913   0.009  0.00  0.00    -0.049 C 
ATOM     18  H2  <0> d          -1.500  -1.127  -1.017  0.00  0.00     0.033 H 
ATOM     19  H3  <0> d          -0.947  -1.845   0.515  0.00  0.00     0.033 H 
ATOM     20  H4  <0> d          -2.021  -0.426   0.534  0.00  0.00     0.033 H 
ENDBRANCH   1  17
TORSDOF 3
