REMARK  3 active torsions:
REMARK  status: ('A' for Active; 'I' for Inactive)
REMARK    1  A    between atoms: C1_1  and  C2_2 
REMARK    2  A    between atoms: C2_2  and  C3_4 
REMARK    3  A    between atoms: C2_2  and  O1_11 
ROOT
ATOM      1  C3  <0> d           1.157   3.165   0.008  0.00  0.00    -0.008 A 
ATOM      2  C4  <0> d           1.175   1.783   0.000  0.00  0.00    -0.073 A 
ATOM      3  C5  <0> d          -0.013   1.076   0.008  0.00  0.00    -0.082 A 
ATOM      4  C6  <0> d          -1.219   1.750   0.017  0.00  0.00    -0.081 A 
ATOM      5  C7  <0> d          -1.239   3.132   0.031  0.00  0.00    -0.061 A 
ATOM      6  C8  <0> d          -0.050   3.841   0.023  0.00  0.00     0.042 A 
ATOM      7 Cl1  <0> d          -0.074   5.576   0.032  0.00  0.00    -0.084 Cl
ATOM      8  H5  <0> d           2.117   1.255  -0.012  0.00  0.00     0.084 H 
ATOM      9  H6  <0> d           0.002  -0.004   0.002  0.00  0.00     0.083 H 
ATOM     10  H7  <0> d          -2.147   1.198   0.019  0.00  0.00     0.083 H 
ATOM     11  H8  <0> d          -2.181   3.659   0.042  0.00  0.00     0.086 H 
ENDROOT
BRANCH   1  12
ATOM     12  C2  <0> d           2.452   3.936   0.000  0.00  0.00     0.059 C 
ATOM     13  H1  <0> d           2.339   4.842   0.596  0.00  0.00     0.090 H 
BRANCH  12  14
ATOM     14  C1  <0> d           2.813   4.312  -1.438  0.00  0.00    -0.049 C 
ATOM     15  H2  <0> d           2.926   3.406  -2.034  0.00  0.00     0.031 H 
ATOM     16  H3  <0> d           2.020   4.929  -1.862  0.00  0.00     0.031 H 
ATOM     17  H4  <0> d           3.749   4.870  -1.444  0.00  0.00     0.031 H 
ENDBRANCH  12  14
BRANCH  12  18
ATOM     18  O1  <0> d           3.491   3.127   0.556  0.00  0.00    -0.391 OA
ATOM     19  H9  <0> d           4.355   3.561   0.583  0.00  0.00     0.210 HD
ENDBRANCH  12  18
ENDBRANCH   1  12
TORSDOF 3
