REMARK  6 active torsions:
REMARK  status: ('A' for Active; 'I' for Inactive)
REMARK    1  A    between atoms: C1_1  and  C2_2 
REMARK    2  A    between atoms: C3_3  and  N4_11 
REMARK    3  A    between atoms: C4_4  and  N3_10 
REMARK    4  A    between atoms: N1_5  and  C5_7 
REMARK    5  A    between atoms: C5_7  and  C6_8 
REMARK    6  A    between atoms: C6_8  and  O1_9 
ROOT
ATOM      1  C2  <0> d           0.566  -0.199   4.134  0.00  0.00     0.081 A 
ATOM      2  C3  <0> d           1.368   0.947   4.149  0.00  0.00     0.097 A 
ATOM      3  C4  <0> d           0.990   1.735   3.102  0.00  0.00     0.146 A 
ATOM      4  N1  <0> d          -0.020   1.094   2.454  0.00  0.00    -0.250 N 
ATOM      5  N2  <0> d          -0.266  -0.110   3.127  0.00  0.00    -0.173 NA
ENDROOT
BRANCH   4   6
ATOM      6  C5  <0> d          -0.729   1.579   1.267  0.00  0.00     0.038 C 
ATOM      7  H4  <0> d          -1.761   1.198   1.275  0.00  0.00     0.070 H 
ATOM      8  H5  <0> d          -0.744   2.679   1.273  0.00  0.00     0.070 H 
BRANCH   6   9
ATOM      9  C6  <0> d          -0.013   1.086   0.008  0.00  0.00     0.033 C 
ATOM     10  H6  <0> d           1.019   1.466   0.000  0.00  0.00     0.076 H 
ATOM     11  H7  <0> d           0.002  -0.014   0.002  0.00  0.00     0.076 H 
BRANCH   9  12
ATOM     12  O1  <0> d          -0.704   1.559  -1.150  0.00  0.00    -0.399 OA
ATOM     13  H8  <0> d          -0.334   1.304  -2.154  0.00  0.00     0.209 HD
ENDBRANCH   9  12
ENDBRANCH   6   9
ENDBRANCH   4   6
BRANCH   3  14
ATOM     14  N3  <0> d           1.539   2.973   2.757  0.00  0.00    -0.382 N 
ATOM     15  H9  <0> d           1.153   3.523   1.887  0.00  0.00     0.157 HD
ATOM     16  H10 <0> d           2.358   3.397   3.357  0.00  0.00     0.157 HD
ENDBRANCH   3  14
BRANCH   2  17
ATOM     17  N4  <0> d           2.388   1.238   5.084  0.00  0.00    -0.394 N 
ATOM     18  H11 <0> d           2.960   2.174   5.002  0.00  0.00     0.156 HD
ATOM     19  H12 <0> d           2.610   0.528   5.894  0.00  0.00     0.156 HD
ENDBRANCH   2  17
BRANCH   1  20
ATOM     20  C1  <0> d           0.642  -1.341   5.115  0.00  0.00    -0.032 C 
ATOM     21  H1  <0> d           1.435  -1.140   5.851  0.00  0.00     0.035 H 
ATOM     22  H2  <0> d           0.868  -2.273   4.577  0.00  0.00     0.035 H 
ATOM     23  H3  <0> d          -0.323  -1.443   5.634  0.00  0.00     0.035 H 
ENDBRANCH   1  20
TORSDOF 6
