REMARK  0 active torsions:
REMARK  status: ('A' for Active; 'I' for Inactive)
ROOT
ATOM      1  C1  <0> d           2.725   0.010  -2.767  0.00  0.00     0.037 A 
ATOM      2  C2  <0> d           1.797   0.278  -1.753  0.00  0.00     0.053 A 
ATOM      3  C3  <0> d           2.174   1.471  -1.140  0.00  0.00     0.043 A 
ATOM      4  N1  <0> d           3.276   1.895  -1.754  0.00  0.00    -0.282 N 
ATOM      5  H1  <0> d           3.760   2.829  -1.432  0.00  0.00     0.189 HD
ATOM      6  N2  <0> d           3.606   0.978  -2.763  0.00  0.00    -0.186 NA
ATOM      7  C4  <0> d           1.407   2.088  -0.000  0.00  0.00    -0.024 C 
ATOM      8  C5  <0> d          -0.019   1.528   0.010  0.00  0.00    -0.053 C 
ATOM      9  C6  <0> d           0.002  -0.004   0.002  0.00  0.00    -0.005 C 
ATOM     10  C7  <0> d           0.609  -0.470  -1.313  0.00  0.00     0.163 C 
ATOM     11  O1  <0> d           0.147  -1.393  -1.952  0.00  0.00    -0.292 OA
ATOM     12  H2  <0> d           2.715  -0.841  -3.431  0.00  0.00     0.118 H 
ATOM     13  H3  <0> d           1.905   1.847   0.950  0.00  0.00     0.042 H 
ATOM     14  H4  <0> d           1.373   3.180  -0.130  0.00  0.00     0.042 H 
ATOM     15  H5  <0> d          -0.541   1.871   0.915  0.00  0.00     0.034 H 
ATOM     16  H6  <0> d          -0.558   1.881  -0.881  0.00  0.00     0.034 H 
ATOM     17  H7  <0> d           0.608  -0.367   0.845  0.00  0.00     0.044 H 
ATOM     18  H8  <0> d          -1.025  -0.385   0.098  0.00  0.00     0.044 H 
ENDROOT
TORSDOF 0
