REMARK  0 active torsions:
REMARK  status: ('A' for Active; 'I' for Inactive)
ROOT
ATOM      1  C1  <0> d          -1.240   1.757   0.018  0.00  0.00    -0.080 A 
ATOM      2  C2  <0> d          -0.013   1.076   0.008  0.00  0.00    -0.068 A 
ATOM      3  C3  <0> d           1.149   1.763   0.001  0.00  0.00    -0.015 A 
ATOM      4  N1  <0> d           1.156   3.128   0.008  0.00  0.00    -0.333 N 
ATOM      5  C4  <0> d           2.348   3.793   0.001  0.00  0.00    -0.011 A 
ATOM      6  C5  <0> d           2.396   5.137   0.009  0.00  0.00    -0.019 A 
ATOM      7  C6  <0> d           1.194   5.890   0.023  0.00  0.00     0.175 A 
ATOM      8  O1  <0> d           1.226   7.114   0.030  0.00  0.00    -0.288 OA
ATOM      9  C7  <0> d          -0.028   5.210   0.030  0.00  0.00    -0.009 A 
ATOM     10  C8  <0> d          -0.028   3.818   0.023  0.00  0.00     0.042 A 
ATOM     11  C9  <0> d          -1.251   3.118   0.030  0.00  0.00    -0.057 A 
ATOM     12  H1  <0> d          -2.168   1.205   0.019  0.00  0.00     0.083 H 
ATOM     13  H2  <0> d           0.002  -0.004   0.002  0.00  0.00     0.085 H 
ATOM     14  H3  <0> d           2.086   1.226  -0.011  0.00  0.00     0.112 H 
ATOM     15  H4  <0> d           3.269   3.229  -0.011  0.00  0.00     0.112 H 
ATOM     16  H5  <0> d           3.350   5.643   0.003  0.00  0.00     0.091 H 
ATOM     17  H6  <0> d          -0.958   5.758   0.042  0.00  0.00     0.093 H 
ATOM     18  H7  <0> d          -2.187   3.656   0.041  0.00  0.00     0.086 H 
ENDROOT
TORSDOF 0
