REMARK  2 active torsions:
REMARK  status: ('A' for Active; 'I' for Inactive)
REMARK    1  A    between atoms: C1_1  and  C2_2 
REMARK    2  A    between atoms: C3_3  and  C6_7 
ROOT
ATOM      1  C2  <0> d           1.713  -0.268  -0.016  0.00  0.00    -0.004 A 
ATOM      2  C3  <0> d           2.231   1.012  -0.014  0.00  0.00     0.053 A 
ATOM      3  C4  <0> d           1.286   2.100   0.001  0.00  0.00    -0.059 A 
ATOM      4  C5  <0> d          -0.022   1.777   0.012  0.00  0.00    -0.043 A 
ATOM      5  S1  <0> d           0.002  -0.004   0.002  0.00  0.00    -0.106 SA
ATOM      6  H4  <0> d           1.611   3.130   0.003  0.00  0.00     0.086 H 
ATOM      7  H5  <0> d          -0.877   2.437   0.020  0.00  0.00     0.095 H 
ENDROOT
BRANCH   1   8
ATOM      8  C1  <0> d           2.458  -1.578  -0.030  0.00  0.00    -0.044 C 
ATOM      9  H1  <0> d           1.744  -2.402  -0.028  0.00  0.00     0.034 H 
ATOM     10  H2  <0> d           3.075  -1.635  -0.927  0.00  0.00     0.034 H 
ATOM     11  H3  <0> d           3.093  -1.645   0.853  0.00  0.00     0.034 H 
ENDBRANCH   1   8
BRANCH   2  12
ATOM     12  C6  <0> d           3.681   1.254  -0.027  0.00  0.00     0.210 C 
ATOM     13  O1  <0> d           4.454   0.316  -0.040  0.00  0.00    -0.644 OA
ATOM     14  O2  <0> d           4.154   2.516  -0.025  0.00  0.00    -0.644 OA
ENDBRANCH   2  12
TORSDOF 2
