REMARK  2 active torsions:
REMARK  status: ('A' for Active; 'I' for Inactive)
REMARK    1  A    between atoms: C1_1  and  C2_2 
REMARK    2  A    between atoms: C7_9  and  N3_12 
ROOT
ATOM      1  C2  <0> d          -0.718   1.572   1.248  0.00  0.00     0.101 A 
ATOM      2  N1  <0> d          -2.054   1.819   1.340  0.00  0.00    -0.343 N 
ATOM      3  H1  <0> d          -2.728   1.713   0.609  0.00  0.00     0.167 HD
ATOM      4  C3  <0> d          -2.305   2.242   2.630  0.00  0.00     0.065 A 
ATOM      5  C4  <0> d          -3.452   2.631   3.312  0.00  0.00    -0.055 A 
ATOM      6  C5  <0> d          -3.370   3.016   4.633  0.00  0.00    -0.079 A 
ATOM      7  C6  <0> d          -2.149   3.020   5.291  0.00  0.00    -0.055 A 
ATOM      8  C7  <0> d          -0.996   2.636   4.631  0.00  0.00     0.057 A 
ATOM      9  C8  <0> d          -1.065   2.242   3.286  0.00  0.00     0.111 A 
ATOM     10  N2  <0> d          -0.139   1.822   2.385  0.00  0.00    -0.231 NA
ATOM     11  H5  <0> d          -4.407   2.631   2.808  0.00  0.00     0.087 H 
ATOM     12  H6  <0> d          -4.263   3.317   5.159  0.00  0.00     0.083 H 
ATOM     13  H7  <0> d          -2.098   3.324   6.326  0.00  0.00     0.087 H 
ENDROOT
BRANCH   1  14
ATOM     14  C1  <0> d          -0.013   1.086   0.008  0.00  0.00    -0.021 C 
ATOM     15  H2  <0> d           0.002  -0.004   0.002  0.00  0.00     0.037 H 
ATOM     16  H3  <0> d           1.010   1.463   0.000  0.00  0.00     0.037 H 
ATOM     17  H4  <0> d          -0.540   1.447  -0.875  0.00  0.00     0.037 H 
ENDBRANCH   1  14
BRANCH   8  18
ATOM     18  N3  <0> d           0.230   2.641   5.299  0.00  0.00    -0.397 N 
ATOM     19  H8  <0> d           1.038   2.372   4.833  0.00  0.00     0.156 HD
ATOM     20  H9  <0> d           0.275   2.914   6.229  0.00  0.00     0.156 HD
ENDBRANCH   8  18
TORSDOF 2
