REMARK  5 active torsions:
REMARK  status: ('A' for Active; 'I' for Inactive)
REMARK    1  A    between atoms: C4_4  and  O1_6 
REMARK    2  A    between atoms: O1_6  and  C6_7 
REMARK    3  A    between atoms: C6_7  and  C7_8 
REMARK    4  A    between atoms: C7_8  and  C8_9 
REMARK    5  A    between atoms: C8_9  and  O2_10 
ROOT
ATOM      1  C1  <0> d           0.094   2.656   5.691  0.00  0.00    -0.063 C 
ATOM      2  C2  <0> d           0.443   1.157   5.858  0.00  0.00    -0.063 C 
ATOM      3  C3  <0> d          -0.362   0.454   4.745  0.00  0.00    -0.041 C 
ATOM      4  C4  <0> d          -0.628   1.513   3.661  0.00  0.00     0.038 C 
ATOM      5  C5  <0> d           0.025   2.821   4.152  0.00  0.00    -0.041 C 
ATOM      6  H1  <0> d           0.871   3.321   6.096  0.00  0.00     0.033 H 
ATOM      7  H2  <0> d          -0.879   2.918   6.132  0.00  0.00     0.033 H 
ATOM      8  H3  <0> d           1.527   1.016   5.735  0.00  0.00     0.033 H 
ATOM      9  H4  <0> d           0.141   0.820   6.861  0.00  0.00     0.033 H 
ATOM     10  H5  <0> d           0.226  -0.383   4.341  0.00  0.00     0.036 H 
ATOM     11  H6  <0> d          -1.306   0.072   5.161  0.00  0.00     0.036 H 
ATOM     12  H7  <0> d          -1.696   1.624   3.420  0.00  0.00     0.083 H 
ATOM     13  H8  <0> d          -0.584   3.704   3.905  0.00  0.00     0.036 H 
ATOM     14  H9  <0> d           1.040   2.952   3.751  0.00  0.00     0.036 H 
ENDROOT
BRANCH   4  15
ATOM     15  O1  <0> d          -0.038   1.106   2.425  0.00  0.00    -0.386 OA
BRANCH  15  16
ATOM     16  C6  <0> d          -0.729   1.579   1.267  0.00  0.00     0.022 C 
ATOM     17  H10 <0> d          -1.761   1.198   1.275  0.00  0.00     0.074 H 
ATOM     18  H11 <0> d          -0.744   2.679   1.273  0.00  0.00     0.074 H 
BRANCH  16  19
ATOM     19  C7  <0> d          -0.013   1.086   0.008  0.00  0.00    -0.026 C 
ATOM     20  H12 <0> d           1.019   1.466   0.000  0.00  0.00     0.039 H 
ATOM     21  H13 <0> d           0.002  -0.014   0.002  0.00  0.00     0.039 H 
BRANCH  19  22
ATOM     22  C8  <0> d          -0.753   1.593  -1.232  0.00  0.00     0.019 C 
ATOM     23  H14 <0> d          -1.785   1.212  -1.224  0.00  0.00     0.074 H 
ATOM     24  H15 <0> d          -0.768   2.693  -1.225  0.00  0.00     0.074 H 
BRANCH  22  25
ATOM     25  O2  <0> d          -0.084   1.132  -2.407  0.00  0.00    -0.401 OA
ATOM     26  H16 <0> d          -0.473   1.398  -3.401  0.00  0.00     0.209 HD
ENDBRANCH  22  25
ENDBRANCH  19  22
ENDBRANCH  16  19
ENDBRANCH  15  16
ENDBRANCH   4  15
TORSDOF 5
