REMARK  1 active torsions:
REMARK  status: ('A' for Active; 'I' for Inactive)
REMARK    1  A    between atoms: C4_4  and  C7_7 
ROOT
ATOM      1  C7  <0> d           3.695  -0.685  -0.038  0.00  0.00    -0.052 C 
ATOM      2  C8  <0> d           4.582  -0.657   0.941  0.00  0.00    -0.096 C 
ATOM      3  C9  <0> d           5.788  -1.500   0.598  0.00  0.00    -0.049 C 
ATOM      4  C10 <0> d           5.324  -2.396  -0.573  0.00  0.00    -0.058 C 
ATOM      5  C11 <0> d           4.177  -1.555  -1.176  0.00  0.00    -0.040 C 
ATOM      6  H6  <0> d           4.461  -0.106   1.862  0.00  0.00     0.077 H 
ATOM      7  H7  <0> d           6.617  -0.866   0.285  0.00  0.00     0.038 H 
ATOM      8  H8  <0> d           6.078  -2.113   1.452  0.00  0.00     0.038 H 
ATOM      9  H9  <0> d           6.127  -2.541  -1.296  0.00  0.00     0.033 H 
ATOM     10  H10 <0> d           4.951  -3.353  -0.209  0.00  0.00     0.033 H 
ATOM     11  H11 <0> d           3.373  -2.203  -1.525  0.00  0.00     0.040 H 
ATOM     12  H12 <0> d           4.551  -0.939  -1.993  0.00  0.00     0.040 H 
ENDROOT
BRANCH   1  13
ATOM     13  C4  <0> d           2.403   0.034  -0.021  0.00  0.00    -0.030 A 
ATOM     14  C3  <0> d           2.377   1.429  -0.013  0.00  0.00    -0.072 A 
ATOM     15  C2  <0> d           1.168   2.093   0.002  0.00  0.00    -0.082 A 
ATOM     16  H3  <0> d           3.302   1.987  -0.020  0.00  0.00     0.084 H 
ATOM     17  C1  <0> d          -0.017   1.379   0.010  0.00  0.00    -0.083 A 
ATOM     18  H2  <0> d           1.147   3.173   0.008  0.00  0.00     0.083 H 
ATOM     19  C6  <0> d           0.002  -0.004   0.002  0.00  0.00    -0.082 A 
ATOM     20  H1  <0> d          -0.960   1.904   0.026  0.00  0.00     0.083 H 
ATOM     21  C5  <0> d           1.204  -0.681  -0.013  0.00  0.00    -0.072 A 
ATOM     22  H5  <0> d          -0.926  -0.556   0.008  0.00  0.00     0.083 H 
ATOM     23  H4  <0> d           1.218  -1.760  -0.019  0.00  0.00     0.084 H 
ENDBRANCH   1  13
TORSDOF 1
