REMARK  0 active torsions:
REMARK  status: ('A' for Active; 'I' for Inactive)
ROOT
ATOM      1  C1  <0> d          -0.018   1.472   0.010  0.00  0.00     0.009 C 
ATOM      2  C2  <0> d           1.415   2.012  -0.001  0.00  0.00     0.009 C 
ATOM      3  N1  <0> d           2.138   1.539   1.196  0.00  0.00    -0.368 N 
ATOM      4  C3  <0> d           1.988   0.184   1.506  0.00  0.00     0.201 A 
ATOM      5  C4  <0> d           0.900  -0.608   0.887  0.00  0.00     0.201 A 
ATOM      6  N2  <0> d           0.981  -1.819   1.321  0.00  0.00    -0.083 NA
ATOM      7  O1  <0> d           2.080  -1.884   2.219  0.00  0.00    -0.103 OA
ATOM      8  N3  <0> d           2.660  -0.589   2.286  0.00  0.00    -0.083 NA
ATOM      9  N4  <0> d           0.002  -0.004   0.002  0.00  0.00    -0.368 N 
ATOM     10  H1  <0> d          -0.530   1.822   0.906  0.00  0.00     0.066 H 
ATOM     11  H2  <0> d          -0.547   1.832  -0.872  0.00  0.00     0.066 H 
ATOM     12  H3  <0> d           1.928   1.660  -0.896  0.00  0.00     0.066 H 
ATOM     13  H4  <0> d           1.391   3.101  -0.002  0.00  0.00     0.066 H 
ATOM     14  H5  <0> d           2.685   2.132   1.735  0.00  0.00     0.161 HD
ATOM     15  H6  <0> d          -0.573  -0.523  -0.582  0.00  0.00     0.161 HD
ENDROOT
TORSDOF 0
