REMARK  0 active torsions:
REMARK  status: ('A' for Active; 'I' for Inactive)
ROOT
ATOM      1  C1  <0> d          -0.013   1.076   0.008  0.00  0.00    -0.082 A 
ATOM      2  C2  <0> d          -1.234   1.747   0.018  0.00  0.00    -0.081 A 
ATOM      3  C3  <0> d          -1.289   3.106   0.031  0.00  0.00    -0.054 A 
ATOM      4  C4  <0> d          -0.096   3.853   0.024  0.00  0.00     0.068 A 
ATOM      5  C5  <0> d           1.146   3.167   0.008  0.00  0.00    -0.007 A 
ATOM      6  C6  <0> d           1.163   1.763   0.000  0.00  0.00    -0.071 A 
ATOM      7  C7  <0> d           2.341   3.912   0.001  0.00  0.00    -0.068 A 
ATOM      8  C8  <0> d           2.254   5.273   0.011  0.00  0.00    -0.044 A 
ATOM      9  C9  <0> d           0.994   5.892   0.026  0.00  0.00     0.137 A 
ATOM     10  N1  <0> d          -0.121   5.186   0.032  0.00  0.00    -0.237 NA
ATOM     11  C10 <0> d           0.917   7.322   0.035  0.00  0.00     0.119 C 
ATOM     12  N2  <0> d           0.855   8.457   0.043  0.00  0.00    -0.190 NA
ATOM     13  H1  <0> d           0.002  -0.004   0.002  0.00  0.00     0.083 H 
ATOM     14  H2  <0> d          -2.153   1.178   0.019  0.00  0.00     0.083 H 
ATOM     15  H3  <0> d          -2.244   3.610   0.042  0.00  0.00     0.087 H 
ATOM     16  H4  <0> d           2.103   1.231  -0.011  0.00  0.00     0.084 H 
ATOM     17  H5  <0> d           3.302   3.418  -0.010  0.00  0.00     0.085 H 
ATOM     18  H6  <0> d           3.152   5.873   0.007  0.00  0.00     0.088 H 
ENDROOT
TORSDOF 0
