REMARK  3 active torsions:
REMARK  status: ('A' for Active; 'I' for Inactive)
REMARK    1  A    between atoms: C1_1  and  C2_2 
REMARK    2  A    between atoms: C5_5  and  S1_8 
REMARK    3  A    between atoms: S1_8  and  C8_10 
ROOT
ATOM      1  C2  <0> d           0.040  -2.768  -0.013  0.00  0.00    -0.062 A 
ATOM      2  C3  <0> d          -1.063  -2.090  -0.497  0.00  0.00    -0.076 A 
ATOM      3  C4  <0> d          -1.082  -0.707  -0.490  0.00  0.00    -0.064 A 
ATOM      4  C5  <0> d           0.002  -0.004   0.002  0.00  0.00     0.031 A 
ATOM      5  C6  <0> d           1.107  -0.683   0.481  0.00  0.00    -0.064 A 
ATOM      6  C7  <0> d           1.124  -2.065   0.477  0.00  0.00    -0.076 A 
ATOM      7  H4  <0> d          -1.910  -2.639  -0.881  0.00  0.00     0.084 H 
ATOM      8  H5  <0> d          -1.943  -0.177  -0.868  0.00  0.00     0.085 H 
ATOM      9  H6  <0> d           1.955  -0.134   0.861  0.00  0.00     0.085 H 
ATOM     10  H7  <0> d           1.985  -2.596   0.856  0.00  0.00     0.084 H 
ENDROOT
BRANCH   4  11
ATOM     11  S1  <0> d          -0.022   1.758   0.012  0.00  0.00     0.045 S 
ATOM     12  O1  <0> d           1.352   2.120   0.001  0.00  0.00    -0.253 OA
BRANCH  11  13
ATOM     13  C8  <0> d          -0.745   2.178   1.621  0.00  0.00    -0.004 C 
ATOM     14  H8  <0> d          -0.121   1.771   2.417  0.00  0.00     0.045 H 
ATOM     15  H9  <0> d          -0.802   3.262   1.722  0.00  0.00     0.045 H 
ATOM     16  H10 <0> d          -1.746   1.753   1.692  0.00  0.00     0.045 H 
ENDBRANCH  11  13
ENDBRANCH   4  11
BRANCH   1  17
ATOM     17  C1  <0> d           0.060  -4.275  -0.021  0.00  0.00    -0.051 C 
ATOM     18  H1  <0> d           0.483  -4.628  -0.961  0.00  0.00     0.033 H 
ATOM     19  H2  <0> d           0.668  -4.635   0.809  0.00  0.00     0.033 H 
ATOM     20  H3  <0> d          -0.957  -4.653   0.085  0.00  0.00     0.033 H 
ENDBRANCH   1  17
TORSDOF 3
