REMARK  2 active torsions:
REMARK  status: ('A' for Active; 'I' for Inactive)
REMARK    1  A    between atoms: C1_1  and  C2_2 
REMARK    2  A    between atoms: C4_4  and  C6_7 
ROOT
ATOM      1  C2  <0> d           1.300   2.079   0.001  0.00  0.00    -0.054 A 
ATOM      2  C3  <0> d           2.220   1.048  -0.013  0.00  0.00    -0.065 A 
ATOM      3  C4  <0> d           1.773  -0.232  -0.016  0.00  0.00    -0.021 A 
ATOM      4  S1  <0> d           0.002  -0.004   0.002  0.00  0.00    -0.106 SA
ATOM      5  C5  <0> d          -0.022   1.781   0.012  0.00  0.00    -0.039 A 
ATOM      6  H4  <0> d           3.279   1.258  -0.023  0.00  0.00     0.085 H 
ATOM      7  H5  <0> d          -0.870   2.450   0.020  0.00  0.00     0.095 H 
ENDROOT
BRANCH   1   8
ATOM      8  C1  <0> d           1.760   3.514   0.004  0.00  0.00    -0.051 C 
ATOM      9  H1  <0> d           1.881   3.855   1.032  0.00  0.00     0.033 H 
ATOM     10  H2  <0> d           2.713   3.591  -0.519  0.00  0.00     0.033 H 
ATOM     11  H3  <0> d           1.019   4.135  -0.500  0.00  0.00     0.033 H 
ENDBRANCH   1   8
BRANCH   3  12
ATOM     12  C6  <0> d           2.564  -1.514  -0.031  0.00  0.00    -0.045 C 
ATOM     13  H6  <0> d           1.881  -2.363  -0.029  0.00  0.00     0.034 H 
ATOM     14  H7  <0> d           3.184  -1.548  -0.927  0.00  0.00     0.034 H 
ATOM     15  H8  <0> d           3.201  -1.558   0.853  0.00  0.00     0.034 H 
ENDBRANCH   3  12
TORSDOF 2
