REMARK  2 active torsions:
REMARK  status: ('A' for Active; 'I' for Inactive)
REMARK    1  A    between atoms: C2_2  and  C3_6 
REMARK    2  A    between atoms: N6_10  and  O2_11 
ROOT
ATOM      1  C3  <0> d           1.235   1.706  -0.001  0.00  0.00     0.233 A 
ATOM      2  N3  <0> d          -0.015   1.284   0.009  0.00  0.00    -0.104 NA
ATOM      3  N4  <0> d           0.002  -0.004   0.002  0.00  0.00    -0.021 NA
ATOM      4  N5  <0> d           1.220  -0.420  -0.012  0.00  0.00    -0.017 NA
ATOM      5  N6  <0> d           2.012   0.598  -0.014  0.00  0.00    -0.097 N 
ENDROOT
BRANCH   1   6
ATOM      6  C2  <0> d           1.696   3.114   0.002  0.00  0.00     0.157 A 
ATOM      7  C1  <0> d           0.889   4.350   0.016  0.00  0.00     0.065 A 
ATOM      8  N2  <0> d           1.799   5.287   0.012  0.00  0.00    -0.115 NA
ATOM      9  H1  <0> d          -0.186   4.453   0.026  0.00  0.00     0.122 H 
ATOM     10  O1  <0> d           2.898   4.785  -0.001  0.00  0.00    -0.106 OA
ATOM     11  N1  <0> d           2.928   3.577  -0.002  0.00  0.00    -0.100 NA
ENDBRANCH   1   6
BRANCH   5  12
ATOM     12  O2  <0> d           3.428   0.563  -0.028  0.00  0.00    -0.263 OA
ATOM     13  H2  <0> d           3.812   0.558  -0.915  0.00  0.00     0.247 HD
ENDBRANCH   5  12
TORSDOF 2
