REMARK  3 active torsions:
REMARK  status: ('A' for Active; 'I' for Inactive)
REMARK    1  A    between atoms: C1_1  and  C2_2 
REMARK    2  A    between atoms: C2_2  and  C3_3 
REMARK    3  A    between atoms: C5_6  and  N3_10 
ROOT
ATOM      1  C3  <0> d           0.731  -0.503   1.223  0.00  0.00     0.028 A 
ATOM      2  C4  <0> d           0.042  -0.847   2.350  0.00  0.00     0.032 A 
ATOM      3  N1  <0> d           0.695  -1.286   3.423  0.00  0.00    -0.077 NA
ATOM      4  C5  <0> d           2.008  -1.401   3.428  0.00  0.00     0.700 A 
ATOM      5  N2  <0> d           2.747  -1.074   2.334  0.00  0.00    -0.154 N 
ATOM      6  C6  <0> d           2.131  -0.628   1.218  0.00  0.00     0.267 A 
ATOM      7  O1  <0> d           2.778  -0.336   0.226  0.00  0.00    -0.267 OA
ATOM      8  H6  <0> d          -1.034  -0.761   2.371  0.00  0.00     0.116 H 
ATOM      9  H7  <0> d           3.713  -1.164   2.354  0.00  0.00     0.187 HD
ENDROOT
BRANCH   1  10
ATOM     10  C2  <0> d           0.002  -0.004   0.002  0.00  0.00    -0.038 C 
ATOM     11  H4  <0> d          -1.020  -0.381   0.010  0.00  0.00     0.039 H 
ATOM     12  H5  <0> d           0.512  -0.356  -0.895  0.00  0.00     0.039 H 
BRANCH  10  13
ATOM     13  C1  <0> d          -0.019   1.526   0.010  0.00  0.00    -0.072 C 
ATOM     14  H1  <0> d           1.004   1.903   0.003  0.00  0.00     0.028 H 
ATOM     15  H2  <0> d          -0.546   1.887  -0.873  0.00  0.00     0.028 H 
ATOM     16  H3  <0> d          -0.529   1.877   0.907  0.00  0.00     0.028 H 
ENDBRANCH  10  13
ENDBRANCH   1  10
BRANCH   4  17
ATOM     17  N3  <0> d           2.639  -1.858   4.554  0.00  0.00    -0.233 N 
ATOM     18  H8  <0> d           2.120  -2.094   5.339  0.00  0.00     0.174 HD
ATOM     19  H9  <0> d           3.605  -1.946   4.567  0.00  0.00     0.174 HD
ENDBRANCH   4  17
TORSDOF 3
