REMARK  4 active torsions:
REMARK  status: ('A' for Active; 'I' for Inactive)
REMARK    1  A    between atoms: C1_1  and  C2_2 
REMARK    2  A    between atoms: C2_2  and  C3_4 
REMARK    3  A    between atoms: C2_2  and  O1_11 
REMARK    4  A    between atoms: C3_4  and  C4_5 
ROOT
ATOM      1  C3  <0> d           0.718  -0.497  -1.257  0.00  0.00    -0.003 C 
ATOM      2  H6  <0> d           0.244  -0.064  -2.138  0.00  0.00     0.046 H 
ATOM      3  H7  <0> d           1.765  -0.195  -1.222  0.00  0.00     0.046 H 
ENDROOT
BRANCH   1   4
ATOM      4  C2  <0> d           0.002  -0.004   0.002  0.00  0.00     0.037 C 
ATOM      5  H1  <0> d          -1.020  -0.381   0.010  0.00  0.00     0.082 H 
BRANCH   4   6
ATOM      6  C1  <0> d          -0.019   1.526   0.010  0.00  0.00    -0.052 C 
ATOM      7  H3  <0> d           1.004   1.903   0.003  0.00  0.00     0.030 H 
ATOM      8  H4  <0> d          -0.546   1.887  -0.873  0.00  0.00     0.030 H 
ATOM      9  H5  <0> d          -0.529   1.877   0.907  0.00  0.00     0.030 H 
ENDBRANCH   4   6
BRANCH   4  10
ATOM     10  O1  <0> d           0.693  -0.477   1.160  0.00  0.00    -0.396 OA
ATOM     11  H11 <0> d           0.294  -0.202   1.996  0.00  0.00     0.210 HD
ENDBRANCH   4  10
ENDBRANCH   1   4
BRANCH   1  12
ATOM     12  C4  <0> d           0.632  -2.000  -1.327  0.00  0.00     0.011 A 
ATOM     13  N1  <0> d          -0.304  -2.716  -2.014  0.00  0.00    -0.369 N 
ATOM     14  C7  <0> d          -0.053  -4.045  -1.842  0.00  0.00    -0.023 A 
ATOM     15  H2  <0> d          -1.028  -2.341  -2.540  0.00  0.00     0.165 HD
ATOM     16  C6  <0> d           1.028  -4.169  -1.045  0.00  0.00    -0.066 A 
ATOM     17  H10 <0> d          -0.623  -4.857  -2.267  0.00  0.00     0.111 H 
ATOM     18  C5  <0> d           1.463  -2.870  -0.718  0.00  0.00    -0.060 A 
ATOM     19  H9  <0> d           1.478  -5.095  -0.718  0.00  0.00     0.085 H 
ATOM     20  H8  <0> d           2.308  -2.616  -0.095  0.00  0.00     0.086 H 
ENDBRANCH   1  12
TORSDOF 4
