REMARK  4 active torsions:
REMARK  status: ('A' for Active; 'I' for Inactive)
REMARK    1  A    between atoms: C1_1  and  O1_2 
REMARK    2  A    between atoms: O1_2  and  C2_3 
REMARK    3  A    between atoms: N3_6  and  C3_8 
REMARK    4  A    between atoms: C3_8  and  C4_9 
ROOT
ATOM      1  C2  <0> d          -1.975   1.163   1.348  0.00  0.00     0.306 A 
ATOM      2  N1  <0> d          -2.683   0.402   0.514  0.00  0.00    -0.083 NA
ATOM      3  N2  <0> d          -3.870   0.233   0.978  0.00  0.00    -0.044 NA
ATOM      4  N3  <0> d          -3.992   0.863   2.096  0.00  0.00    -0.156 N 
ATOM      5  N4  <0> d          -2.758   1.480   2.357  0.00  0.00    -0.105 NA
ENDROOT
BRANCH   4   6
ATOM      6  C3  <0> d          -5.191   0.923   2.936  0.00  0.00     0.116 C 
ATOM      7  H4  <0> d          -5.766   0.005   2.814  0.00  0.00     0.086 H 
ATOM      8  H5  <0> d          -4.898   1.033   3.980  0.00  0.00     0.086 H 
BRANCH   6   9
ATOM      9  C4  <0> d          -6.034   2.103   2.523  0.00  0.00     0.195 C 
ATOM     10  O2  <0> d          -5.670   2.819   1.621  0.00  0.00    -0.647 OA
ATOM     11  O3  <0> d          -7.188   2.357   3.159  0.00  0.00    -0.647 OA
ENDBRANCH   6   9
ENDBRANCH   4   6
BRANCH   1  12
ATOM     12  O1  <0> d          -0.682   1.547   1.184  0.00  0.00    -0.322 OA
BRANCH  12  13
ATOM     13  C1  <0> d          -0.013   1.086   0.008  0.00  0.00     0.013 C 
ATOM     14  H1  <0> d           0.002  -0.004   0.002  0.00  0.00     0.067 H 
ATOM     15  H2  <0> d           1.010   1.463   0.000  0.00  0.00     0.067 H 
ATOM     16  H3  <0> d          -0.540   1.447  -0.875  0.00  0.00     0.067 H 
ENDBRANCH  12  13
ENDBRANCH   1  12
TORSDOF 4
