REMARK  6 active torsions:
REMARK  status: ('A' for Active; 'I' for Inactive)
REMARK    1  A    between atoms: C1_1  and  C2_2 
REMARK    2  A    between atoms: C2_2  and  O1_3 
REMARK    3  A    between atoms: O1_3  and  C3_4 
REMARK       I    between atoms: C3_4  and  N1_6 
REMARK    4  A    between atoms: N1_6  and  C4_7 
REMARK    5  A    between atoms: C4_7  and  C5_8 
REMARK    6  A    between atoms: C5_8  and  C7_10 
ROOT
ATOM      1  C3  <0> d          -0.016   1.344   0.009  0.00  0.00     0.360 C 
ATOM      2  O2  <0> d           1.028   1.965   0.003  0.00  0.00    -0.239 OA
ATOM      3  N1  <0> d           0.002  -0.004   0.002  0.00  0.00    -0.333 N 
ATOM      4  H6  <0> d          -0.831  -0.500   0.007  0.00  0.00     0.165 HD
ENDROOT
BRANCH   3   5
ATOM      5  C4  <0> d           1.281  -0.719  -0.014  0.00  0.00     0.016 C 
ATOM      6  H7  <0> d           1.840  -0.443  -0.908  0.00  0.00     0.070 H 
ATOM      7  H8  <0> d           1.857  -0.453   0.872  0.00  0.00     0.070 H 
BRANCH   5   8
ATOM      8  C5  <0> d           1.025  -2.204  -0.020  0.00  0.00    -0.075 C 
ATOM      9  C6  <0> d           1.001  -2.861  -1.153  0.00  0.00    -0.118 C 
ATOM     10  H9  <0> d           1.164  -2.337  -2.084  0.00  0.00     0.067 H 
ATOM     11  H10 <0> d           0.818  -3.925  -1.157  0.00  0.00     0.067 H 
BRANCH   8  12
ATOM     12  C7  <0> d           0.798  -2.935   1.279  0.00  0.00    -0.054 C 
ATOM     13  H11 <0> d          -0.267  -2.937   1.513  0.00  0.00     0.033 H 
ATOM     14  H12 <0> d           1.151  -3.962   1.185  0.00  0.00     0.033 H 
ATOM     15  H13 <0> d           1.345  -2.434   2.078  0.00  0.00     0.033 H 
ENDBRANCH   8  12
ENDBRANCH   5   8
ENDBRANCH   3   5
BRANCH   1  16
ATOM     16  O1  <0> d          -1.191   2.001   0.019  0.00  0.00    -0.304 OA
BRANCH  16  17
ATOM     17  C2  <0> d          -1.135   3.452   0.026  0.00  0.00     0.027 C 
ATOM     18  H4  <0> d          -0.603   3.790   0.915  0.00  0.00     0.074 H 
ATOM     19  H5  <0> d          -0.612   3.800  -0.864  0.00  0.00     0.074 H 
BRANCH  17  20
ATOM     20  C1  <0> d          -2.557   4.017   0.036  0.00  0.00    -0.056 C 
ATOM     21  H1  <0> d          -3.080   3.669   0.927  0.00  0.00     0.030 H 
ATOM     22  H2  <0> d          -2.514   5.106   0.042  0.00  0.00     0.030 H 
ATOM     23  H3  <0> d          -3.088   3.679  -0.853  0.00  0.00     0.030 H 
ENDBRANCH  17  20
ENDBRANCH  16  17
ENDBRANCH   1  16
TORSDOF 6
