REMARK  6 active torsions:
REMARK  status: ('A' for Active; 'I' for Inactive)
REMARK    1  A    between atoms: C1_1  and  C2_2 
REMARK    2  A    between atoms: C2_2  and  O1_3 
REMARK    3  A    between atoms: O1_3  and  C3_4 
REMARK    4  A    between atoms: C3_4  and  C4_6 
REMARK    5  A    between atoms: C4_6  and  N1_7 
REMARK       I    between atoms: N1_7  and  C5_8 
REMARK    6  A    between atoms: C5_8  and  C6_10 
ROOT
ATOM      1  C4  <0> d          -1.329   1.940   0.019  0.00  0.00     0.075 C 
ATOM      2  H6  <0> d          -1.391   2.561   0.913  0.00  0.00     0.079 H 
ATOM      3  H7  <0> d          -1.400   2.570  -0.867  0.00  0.00     0.079 H 
ENDROOT
BRANCH   1   4
ATOM      4  C3  <0> d          -0.014   1.204   0.009  0.00  0.00     0.276 C 
ATOM      5  O2  <0> d           0.002  -0.004   0.002  0.00  0.00    -0.263 OA
BRANCH   4   6
ATOM      6  O1  <0> d           1.139   1.891   0.001  0.00  0.00    -0.321 OA
BRANCH   6   7
ATOM      7  C2  <0> d           2.367   1.117  -0.015  0.00  0.00     0.025 C 
ATOM      8  H4  <0> d           2.409   0.484   0.872  0.00  0.00     0.074 H 
ATOM      9  H5  <0> d           2.392   0.493  -0.908  0.00  0.00     0.074 H 
BRANCH   7  10
ATOM     10  C1  <0> d           3.568   2.065  -0.021  0.00  0.00    -0.056 C 
ATOM     11  H1  <0> d           3.526   2.698  -0.907  0.00  0.00     0.030 H 
ATOM     12  H2  <0> d           3.543   2.689   0.873  0.00  0.00     0.030 H 
ATOM     13  H3  <0> d           4.490   1.484  -0.033  0.00  0.00     0.030 H 
ENDBRANCH   7  10
ENDBRANCH   6   7
ENDBRANCH   4   6
ENDBRANCH   1   4
BRANCH   1  14
ATOM     14  N1  <0> d          -2.430   0.973   0.019  0.00  0.00    -0.352 N 
ATOM     15  C5  <0> d          -3.707   1.405   0.027  0.00  0.00     0.214 C 
ATOM     16  O3  <0> d          -3.944   2.594   0.035  0.00  0.00    -0.274 OA
ATOM     17  H8  <0> d          -2.240   0.021   0.013  0.00  0.00     0.162 HD
BRANCH  15  18
ATOM     18  C6  <0> d          -4.839   0.410   0.027  0.00  0.00    -0.003 C 
ATOM     19  H9  <0> d          -5.107   0.165   1.055  0.00  0.00     0.040 H 
ATOM     20  H10 <0> d          -5.702   0.841  -0.480  0.00  0.00     0.040 H 
ATOM     21  H11 <0> d          -4.527  -0.496  -0.493  0.00  0.00     0.040 H 
ENDBRANCH  15  18
ENDBRANCH   1  14
TORSDOF 6
