REMARK  4 active torsions:
REMARK  status: ('A' for Active; 'I' for Inactive)
REMARK    1  A    between atoms: C1_1  and  C2_2 
REMARK    2  A    between atoms: C2_2  and  C7_8 
REMARK    3  A    between atoms: C7_8  and  O3_10 
REMARK    4  A    between atoms: O3_10  and  C8_11 
ROOT
ATOM      1  C2  <0> d           0.002  -0.004   0.002  0.00  0.00     0.144 C 
ATOM      2  C3  <0> d           0.720  -0.498  -1.257  0.00  0.00    -0.027 C 
ATOM      3  C4  <0> d           2.173  -0.014  -1.230  0.00  0.00    -0.060 C 
ATOM      4  C5  <0> d           2.842  -0.512   0.054  0.00  0.00    -0.045 C 
ATOM      5  C6  <0> d           2.042  -0.018   1.263  0.00  0.00     0.021 C 
ATOM      6  O1  <0> d           0.693  -0.478   1.160  0.00  0.00    -0.370 OA
ATOM      7  H4  <0> d           0.700  -1.587  -1.284  0.00  0.00     0.038 H 
ATOM      8  H5  <0> d           0.220  -0.101  -2.140  0.00  0.00     0.038 H 
ATOM      9  H6  <0> d           2.705  -0.408  -2.095  0.00  0.00     0.033 H 
ATOM     10  H7  <0> d           2.194   1.076  -1.253  0.00  0.00     0.033 H 
ATOM     11  H8  <0> d           2.865  -1.602   0.054  0.00  0.00     0.036 H 
ATOM     12  H9  <0> d           3.860  -0.126   0.108  0.00  0.00     0.036 H 
ATOM     13  H10 <0> d           2.490  -0.405   2.178  0.00  0.00     0.074 H 
ATOM     14  H11 <0> d           2.054   1.072   1.285  0.00  0.00     0.074 H 
ENDROOT
BRANCH   1  15
ATOM     15  C1  <0> d          -0.019   1.526   0.010  0.00  0.00    -0.039 C 
ATOM     16  H1  <0> d           1.004   1.903   0.003  0.00  0.00     0.032 H 
ATOM     17  H2  <0> d          -0.546   1.887  -0.873  0.00  0.00     0.032 H 
ATOM     18  H3  <0> d          -0.529   1.877   0.907  0.00  0.00     0.032 H 
ENDBRANCH   1  15
BRANCH   1  19
ATOM     19  C7  <0> d          -1.412  -0.526   0.012  0.00  0.00     0.293 C 
ATOM     20  O2  <0> d          -1.956  -0.815  -1.027  0.00  0.00    -0.262 OA
BRANCH  19  21
ATOM     21  O3  <0> d          -2.066  -0.669   1.175  0.00  0.00    -0.324 OA
BRANCH  21  22
ATOM     22  C8  <0> d          -3.403  -1.169   1.111  0.00  0.00     0.013 C 
ATOM     23  H12 <0> d          -4.014  -0.494   0.512  0.00  0.00     0.067 H 
ATOM     24  H13 <0> d          -3.399  -2.159   0.653  0.00  0.00     0.067 H 
ATOM     25  H14 <0> d          -3.815  -1.237   2.117  0.00  0.00     0.067 H 
ENDBRANCH  21  22
ENDBRANCH  19  21
ENDBRANCH   1  19
TORSDOF 4
