REMARK  2 active torsions:
REMARK  status: ('A' for Active; 'I' for Inactive)
REMARK    1  A    between atoms: C1_1  and  C2_2 
REMARK    2  A    between atoms: C5_5  and  C7_10 
ROOT
ATOM      1  C2  <0> d           1.312   5.810   0.021  0.00  0.00     0.008 A 
ATOM      2  C3  <0> d           2.480   5.116   0.006  0.00  0.00    -0.060 A 
ATOM      3  C4  <0> d           2.466   3.722   0.004  0.00  0.00    -0.059 A 
ATOM      4  C5  <0> d           1.239   3.059   0.007  0.00  0.00     0.108 A 
ATOM      5  C6  <0> d           0.046   3.828   0.022  0.00  0.00     0.262 A 
ATOM      6  O1  <0> d          -1.039   3.274   0.030  0.00  0.00    -0.267 OA
ATOM      7  N1  <0> d           0.117   5.173   0.029  0.00  0.00    -0.327 N 
ATOM      8  H1  <0> d          -0.816   5.755   0.040  0.00  0.00     0.169 HD
ATOM      9  H5  <0> d           3.421   5.645   0.001  0.00  0.00     0.086 H 
ATOM     10  H6  <0> d           3.390   3.164  -0.003  0.00  0.00     0.085 H 
ENDROOT
BRANCH   1  11
ATOM     11  C1  <0> d           1.348   7.316   0.030  0.00  0.00    -0.037 C 
ATOM     12  H2  <0> d           2.393   7.659   0.022  0.00  0.00     0.035 H 
ATOM     13  H3  <0> d           0.847   7.689   0.935  0.00  0.00     0.035 H 
ATOM     14  H4  <0> d           0.829   7.700  -0.861  0.00  0.00     0.035 H 
ENDBRANCH   1  11
BRANCH   4  15
ATOM     15  C7  <0> d           1.182   1.591  -0.001  0.00  0.00     0.215 C 
ATOM     16  O2  <0> d           2.210   0.943  -0.014  0.00  0.00    -0.644 OA
ATOM     17  O3  <0> d          -0.011   0.963   0.007  0.00  0.00    -0.644 OA
ENDBRANCH   4  15
TORSDOF 2
