REMARK  8 active torsions:
REMARK  status: ('A' for Active; 'I' for Inactive)
REMARK    1  A    between atoms: C1_1  and  C2_2 
REMARK    2  A    between atoms: C2_2  and  C3_3 
REMARK    3  A    between atoms: C3_3  and  C4_4 
REMARK    4  A    between atoms: C4_4  and  C5_6 
REMARK    5  A    between atoms: C4_4  and  C8_10 
REMARK    6  A    between atoms: C5_6  and  C6_7 
REMARK    7  A    between atoms: C6_7  and  C7_8 
REMARK    8  A    between atoms: C7_8  and  O1_9 
ROOT
ATOM      1  C4  <0> d          -1.329   1.940   0.019  0.00  0.00     0.030 C 
ATOM      2  H1  <0> d          -1.400   2.570  -0.867  0.00  0.00     0.056 H 
ENDROOT
BRANCH   1   3
ATOM      3  C3  <0> d          -2.479   0.930   0.019  0.00  0.00    -0.053 C 
ATOM      4  H7  <0> d          -2.359   0.243   0.856  0.00  0.00     0.034 H 
ATOM      5  H8  <0> d          -3.427   1.458   0.116  0.00  0.00     0.034 H 
BRANCH   3   6
ATOM      6  C2  <0> d          -2.466   0.142  -1.293  0.00  0.00    -0.068 C 
ATOM      7  H5  <0> d          -2.586   0.830  -2.130  0.00  0.00     0.032 H 
ATOM      8  H6  <0> d          -1.518  -0.386  -1.390  0.00  0.00     0.032 H 
BRANCH   6   9
ATOM      9  C1  <0> d          -3.615  -0.868  -1.293  0.00  0.00    -0.076 C 
ATOM     10  H2  <0> d          -3.495  -1.555  -0.455  0.00  0.00     0.027 H 
ATOM     11  H3  <0> d          -4.563  -0.339  -1.196  0.00  0.00     0.027 H 
ATOM     12  H4  <0> d          -3.606  -1.429  -2.227  0.00  0.00     0.027 H 
ENDBRANCH   6   9
ENDBRANCH   3   6
ENDBRANCH   1   3
BRANCH   1  13
ATOM     13  C5  <0> d          -1.417   2.811   1.273  0.00  0.00    -0.051 C 
ATOM     14  H9  <0> d          -2.402   3.274   1.326  0.00  0.00     0.034 H 
ATOM     15  H10 <0> d          -1.257   2.193   2.157  0.00  0.00     0.034 H 
BRANCH  13  16
ATOM     16  C6  <0> d          -0.344   3.901   1.213  0.00  0.00    -0.045 C 
ATOM     17  H11 <0> d           0.641   3.438   1.160  0.00  0.00     0.036 H 
ATOM     18  H12 <0> d          -0.503   4.519   0.329  0.00  0.00     0.036 H 
BRANCH  16  19
ATOM     19  C7  <0> d          -0.431   4.772   2.467  0.00  0.00     0.017 C 
ATOM     20  H13 <0> d          -1.416   5.235   2.520  0.00  0.00     0.073 H 
ATOM     21  H14 <0> d          -0.272   4.154   3.351  0.00  0.00     0.073 H 
BRANCH  19  22
ATOM     22  O1  <0> d           0.571   5.790   2.411  0.00  0.00    -0.401 OA
ATOM     23  H15 <0> d           0.574   6.381   3.176  0.00  0.00     0.209 HD
ENDBRANCH  19  22
ENDBRANCH  16  19
ENDBRANCH  13  16
ENDBRANCH   1  13
BRANCH   1  24
ATOM     24  C8  <0> d          -0.014   1.204   0.009  0.00  0.00     0.177 C 
ATOM     25  O2  <0> d           0.002  -0.004   0.002  0.00  0.00    -0.648 OA
ATOM     26  O3  <0> d           1.139   1.891   0.001  0.00  0.00    -0.648 OA
ENDBRANCH   1  24
TORSDOF 8
