REMARK  8 active torsions:
REMARK  status: ('A' for Active; 'I' for Inactive)
REMARK    1  A    between atoms: C1_1  and  C2_2 
REMARK    2  A    between atoms: C2_2  and  C3_3 
REMARK    3  A    between atoms: C3_3  and  C4_4 
REMARK    4  A    between atoms: C4_4  and  C5_5 
REMARK    5  A    between atoms: C5_5  and  C6_6 
REMARK    6  A    between atoms: C6_6  and  C7_7 
REMARK    7  A    between atoms: C7_7  and  C8_9 
REMARK    8  A    between atoms: C7_7  and  O1_10 
ROOT
ATOM      1  C5  <0> d          -0.753   1.593  -1.232  0.00  0.00    -0.063 C 
ATOM      2  H11 <0> d          -1.775   1.215  -1.224  0.00  0.00     0.033 H 
ATOM      3  H12 <0> d          -0.767   2.683  -1.226  0.00  0.00     0.033 H 
ENDROOT
BRANCH   1   4
ATOM      4  C4  <0> d          -0.037   1.099  -2.490  0.00  0.00    -0.065 C 
ATOM      5  H9  <0> d           0.986   1.476  -2.498  0.00  0.00     0.033 H 
ATOM      6  H10 <0> d          -0.022   0.009  -2.496  0.00  0.00     0.033 H 
BRANCH   4   7
ATOM      7  C3  <0> d          -0.777   1.606  -3.730  0.00  0.00    -0.065 C 
ATOM      8  H7  <0> d          -1.799   1.229  -3.722  0.00  0.00     0.033 H 
ATOM      9  H8  <0> d          -0.791   2.696  -3.724  0.00  0.00     0.033 H 
BRANCH   7  10
ATOM     10  C2  <0> d          -0.060   1.113  -4.989  0.00  0.00    -0.069 C 
ATOM     11  H5  <0> d           0.962   1.490  -4.996  0.00  0.00     0.032 H 
ATOM     12  H6  <0> d          -0.046   0.023  -4.995  0.00  0.00     0.032 H 
BRANCH  10  13
ATOM     13  C1  <0> d          -0.800   1.619  -6.228  0.00  0.00    -0.077 C 
ATOM     14  H2  <0> d          -0.815   2.709  -6.222  0.00  0.00     0.027 H 
ATOM     15  H3  <0> d          -0.290   1.268  -7.125  0.00  0.00     0.027 H 
ATOM     16  H4  <0> d          -1.823   1.242  -6.220  0.00  0.00     0.027 H 
ENDBRANCH  10  13
ENDBRANCH   7  10
ENDBRANCH   4   7
ENDBRANCH   1   4
BRANCH   1  17
ATOM     17  C6  <0> d          -0.013   1.086   0.008  0.00  0.00    -0.041 C 
ATOM     18  H13 <0> d           0.002  -0.004   0.002  0.00  0.00     0.036 H 
ATOM     19  H14 <0> d           1.010   1.463   0.000  0.00  0.00     0.036 H 
BRANCH  17  20
ATOM     20  C7  <0> d          -0.729   1.579   1.267  0.00  0.00     0.032 C 
ATOM     21  H1  <0> d          -0.822   2.665   1.230  0.00  0.00     0.082 H 
BRANCH  20  22
ATOM     22  C8  <0> d           0.079   1.179   2.503  0.00  0.00    -0.052 C 
ATOM     23  H15 <0> d           1.071   1.627   2.450  0.00  0.00     0.030 H 
ATOM     24  H16 <0> d          -0.432   1.530   3.400  0.00  0.00     0.030 H 
ATOM     25  H17 <0> d           0.172   0.093   2.540  0.00  0.00     0.030 H 
ENDBRANCH  20  22
BRANCH  20  26
ATOM     26  O1  <0> d          -2.030   0.991   1.336  0.00  0.00    -0.396 OA
ATOM     27  H18 <0> d          -2.542   1.260   2.111  0.00  0.00     0.210 HD
ENDBRANCH  20  26
ENDBRANCH  17  20
ENDBRANCH   1  17
TORSDOF 8
