REMARK  5 active torsions:
REMARK  status: ('A' for Active; 'I' for Inactive)
REMARK    1  A    between atoms: C1_1  and  C2_2 
REMARK    2  A    between atoms: C2_2  and  C3_3 
REMARK    3  A    between atoms: C3_3  and  C4_4 
REMARK    4  A    between atoms: C7_7  and  C10_10 
REMARK    5  A    between atoms: C10_10  and  O1_11 
ROOT
ATOM      1  C4  <0> d           0.763  -2.041   1.233  0.00  0.00    -0.054 C 
ATOM      2  C5  <0> d          -0.666  -2.571   1.370  0.00  0.00    -0.061 C 
ATOM      3  C6  <0> d          -1.270  -2.076   2.686  0.00  0.00    -0.059 C 
ATOM      4  C7  <0> d          -0.424  -2.581   3.856  0.00  0.00    -0.034 C 
ATOM      5  C8  <0> d           1.004  -2.051   3.720  0.00  0.00    -0.059 C 
ATOM      6  C9  <0> d           1.608  -2.546   2.404  0.00  0.00    -0.061 C 
ATOM      7  H8  <0> d           1.193  -2.393   0.296  0.00  0.00     0.040 H 
ATOM      8  H9  <0> d          -1.268  -2.211   0.535  0.00  0.00     0.033 H 
ATOM      9  H10 <0> d          -0.651  -3.661   1.364  0.00  0.00     0.033 H 
ATOM     10  H11 <0> d          -1.285  -0.986   2.692  0.00  0.00     0.033 H 
ATOM     11  H12 <0> d          -2.288  -2.454   2.783  0.00  0.00     0.033 H 
ATOM     12  H13 <0> d          -0.410  -3.671   3.850  0.00  0.00     0.043 H 
ATOM     13  H14 <0> d           0.990  -0.961   3.726  0.00  0.00     0.033 H 
ATOM     14  H15 <0> d           1.607  -2.411   4.554  0.00  0.00     0.033 H 
ATOM     15  H16 <0> d           1.623  -3.636   2.398  0.00  0.00     0.033 H 
ATOM     16  H17 <0> d           2.626  -2.168   2.307  0.00  0.00     0.033 H 
ENDROOT
BRANCH   1  17
ATOM     17  C3  <0> d           0.742  -0.511   1.242  0.00  0.00    -0.062 C 
ATOM     18  H6  <0> d           1.765  -0.134   1.234  0.00  0.00     0.033 H 
ATOM     19  H7  <0> d           0.232  -0.159   2.138  0.00  0.00     0.033 H 
BRANCH  17  20
ATOM     20  C2  <0> d           0.002  -0.004   0.002  0.00  0.00    -0.068 C 
ATOM     21  H4  <0> d          -1.020  -0.381   0.010  0.00  0.00     0.032 H 
ATOM     22  H5  <0> d           0.512  -0.356  -0.895  0.00  0.00     0.032 H 
BRANCH  20  23
ATOM     23  C1  <0> d          -0.019   1.526   0.010  0.00  0.00    -0.077 C 
ATOM     24  H1  <0> d           1.004   1.903   0.003  0.00  0.00     0.027 H 
ATOM     25  H2  <0> d          -0.546   1.887  -0.873  0.00  0.00     0.027 H 
ATOM     26  H3  <0> d          -0.529   1.877   0.907  0.00  0.00     0.027 H 
ENDBRANCH  20  23
ENDBRANCH  17  20
ENDBRANCH   1  17
BRANCH   4  27
ATOM     27  C10 <0> d          -1.028  -2.087   5.172  0.00  0.00     0.020 C 
ATOM     28  H18 <0> d          -0.962  -1.000   5.216  0.00  0.00     0.074 H 
ATOM     29  H19 <0> d          -2.074  -2.390   5.229  0.00  0.00     0.074 H 
BRANCH  27  30
ATOM     30  O1  <0> d          -0.309  -2.653   6.269  0.00  0.00    -0.400 OA
ATOM     31  H20 <0> d          -0.638  -2.382   7.137  0.00  0.00     0.209 HD
ENDBRANCH  27  30
ENDBRANCH   4  27
TORSDOF 5
