REMARK  3 active torsions:
REMARK  status: ('A' for Active; 'I' for Inactive)
REMARK    1  A    between atoms: C1_1  and  C2_2 
REMARK    2  A    between atoms: C2_2  and  C3_3 
REMARK    3  A    between atoms: C2_2  and  C4_4 
ROOT
ATOM      1  C2  <0> d          -0.013   1.086   0.008  0.00  0.00    -0.012 C 
ATOM      2  H4  <0> d           0.002  -0.004   0.002  0.00  0.00     0.049 H 
ENDROOT
BRANCH   1   3
ATOM      3  C1  <0> d           1.423   1.615  -0.003  0.00  0.00    -0.067 C 
ATOM      4  H1  <0> d           1.950   1.254   0.880  0.00  0.00     0.028 H 
ATOM      5  H2  <0> d           1.933   1.264  -0.900  0.00  0.00     0.028 H 
ATOM      6  H3  <0> d           1.408   2.705   0.003  0.00  0.00     0.028 H 
ENDBRANCH   1   3
BRANCH   1   7
ATOM      7  C3  <0> d          -0.753   1.593  -1.232  0.00  0.00    -0.067 C 
ATOM      8  H5  <0> d          -0.242   1.241  -2.128  0.00  0.00     0.028 H 
ATOM      9  H6  <0> d          -1.775   1.215  -1.224  0.00  0.00     0.028 H 
ATOM     10  H7  <0> d          -0.767   2.683  -1.226  0.00  0.00     0.028 H 
ENDBRANCH   1   7
BRANCH   1  11
ATOM     11  C4  <0> d          -0.718   1.572   1.248  0.00  0.00     0.078 A 
ATOM     12  S1  <0> d          -1.433   0.645   2.531  0.00  0.00    -0.085 SA
ATOM     13  C6  <0> d          -2.005   2.020   3.518  0.00  0.00    -0.026 A 
ATOM     14  C5  <0> d          -1.587   3.064   2.758  0.00  0.00     0.009 A 
ATOM     15  H9  <0> d          -2.536   2.020   4.458  0.00  0.00     0.097 H 
ATOM     16  N1  <0> d          -0.945   2.805   1.638  0.00  0.00    -0.257 NA
ATOM     17  H8  <0> d          -1.772   4.082   3.067  0.00  0.00     0.115 H 
ENDBRANCH   1  11
TORSDOF 3
