REMARK  2 active torsions:
REMARK  status: ('A' for Active; 'I' for Inactive)
REMARK    1  A    between atoms: C1_1  and  C2_2 
REMARK    2  A    between atoms: C4_5  and  C5_7 
ROOT
ATOM      1  C5  <0> d           1.323   0.173   2.253  0.00  0.00     0.018 C 
ATOM      2  C6  <0> d           2.044  -0.674   3.217  0.00  0.00     0.059 C 
ATOM      3  N1  <0> d           2.601  -1.327   3.961  0.00  0.00    -0.197 NA
ATOM      4  H8  <0> d           2.019   0.876   1.795  0.00  0.00     0.055 H 
ATOM      5  H9  <0> d           0.537   0.723   2.770  0.00  0.00     0.055 H 
ENDROOT
BRANCH   1   6
ATOM      6  C4  <0> d           0.700  -0.708   1.168  0.00  0.00    -0.039 A 
ATOM      7  C2  <0> d           0.002  -0.004   0.002  0.00  0.00    -0.053 A 
ATOM      8  H1  <0> d           0.075  -0.468  -0.982  0.00  0.00     0.040 H 
ATOM      9  C3  <0> d          -0.828  -0.728   1.065  0.00  0.00    -0.057 A 
ATOM     10  H6  <0> d          -1.388  -0.114   1.770  0.00  0.00     0.034 H 
ATOM     11  H7  <0> d          -1.300  -1.668   0.780  0.00  0.00     0.034 H 
ATOM     12  H2  <0> d           1.231  -1.634   0.951  0.00  0.00     0.042 H 
BRANCH   7  13
ATOM     13  C1  <0> d          -0.019   1.526   0.010  0.00  0.00    -0.072 C 
ATOM     14  H3  <0> d           1.004   1.903   0.003  0.00  0.00     0.028 H 
ATOM     15  H4  <0> d          -0.546   1.887  -0.873  0.00  0.00     0.028 H 
ATOM     16  H5  <0> d          -0.529   1.877   0.907  0.00  0.00     0.028 H 
ENDBRANCH   7  13
ENDBRANCH   1   6
TORSDOF 2
