REMARK  2 active torsions:
REMARK  status: ('A' for Active; 'I' for Inactive)
REMARK    1  A    between atoms: C4_6  and  O1_11 
REMARK    2  A    between atoms: C6_9  and  N1_10 
ROOT
ATOM      1  C1  <0> d          -1.250   3.037   0.030  0.00  0.00    -0.056 A 
ATOM      2  H1  <0> d          -0.323   3.590   0.033  0.00  0.00     0.087 H 
ATOM      3  C2  <0> d          -2.456   3.712   0.034  0.00  0.00    -0.057 A 
ATOM      4  H2  <0> d          -2.470   4.792   0.040  0.00  0.00     0.086 H 
ATOM      5  C3  <0> d          -3.645   3.007   0.037  0.00  0.00     0.067 A 
ATOM      6  C4  <0> d          -3.631   1.618   0.029  0.00  0.00     0.089 A 
ATOM      7  C5  <0> d          -2.424   0.938   0.019  0.00  0.00    -0.024 A 
ATOM      8  H3  <0> d          -2.411  -0.142   0.013  0.00  0.00     0.091 H 
ATOM      9  C6  <0> d          -1.231   1.648   0.017  0.00  0.00     0.028 A 
ATOM     10 Cl1  <0> d          -5.158   3.858   0.049  0.00  0.00    -0.081 Cl
ENDROOT
BRANCH   9  11
ATOM     11  N1  <0> d          -0.011   0.966   0.007  0.00  0.00    -0.399 N 
ATOM     12  H4  <0> d           0.002  -0.004   0.002  0.00  0.00     0.156 HD
ATOM     13  H5  <0> d           0.822   1.462   0.002  0.00  0.00     0.156 HD
ENDBRANCH   9  11
BRANCH   6  14
ATOM     14  O1  <0> d          -4.801   0.926   0.030  0.00  0.00    -0.359 OA
ATOM     15  H6  <0> d          -5.135   0.720   0.914  0.00  0.00     0.217 HD
ENDBRANCH   6  14
TORSDOF 2
