REMARK  3 active torsions:
REMARK  status: ('A' for Active; 'I' for Inactive)
REMARK    1  A    between atoms: C1_1  and  C2_2 
REMARK    2  A    between atoms: C1_1  and  C3_5 
REMARK    3  A    between atoms: C2_2  and  N2_4 
REMARK       I    between atoms: C3_5  and  N3_7 
ROOT
ATOM      1  C1  <0> d          -1.330   1.944   0.019  0.00  0.00     0.023 C 
ATOM      2  H1  <0> d          -1.545   3.023   0.026  0.00  0.00     0.097 H 
ENDROOT
BRANCH   1   3
ATOM      3  C2  <0> d          -2.462   0.950   0.019  0.00  0.00     0.097 C 
ATOM      4  N1  <0> d          -2.208  -0.319   0.011  0.00  0.00    -0.386 N 
ATOM      5  H2  <0> d          -3.034  -1.045   0.011  0.00  0.00     0.157 HD
ATOM      6  H7  <0> d          -1.166  -0.671   0.004  0.00  0.00     0.157 HD
BRANCH   3   7
ATOM      7  N2  <0> d          -3.759   1.389   0.027  0.00  0.00    -0.386 N 
ATOM      8  H3  <0> d          -4.586   0.662   0.027  0.00  0.00     0.157 HD
ATOM      9  H4  <0> d          -3.975   2.467   0.034  0.00  0.00     0.157 HD
ENDBRANCH   3   7
ENDBRANCH   1   3
BRANCH   1  10
ATOM     10  C3  <0> d          -0.014   1.209   0.009  0.00  0.00     0.242 C 
ATOM     11  O1  <0> d           0.002  -0.004   0.002  0.00  0.00    -0.269 OA
ATOM     12  N3  <0> d           1.143   1.898   0.001  0.00  0.00    -0.367 N 
ATOM     13  H5  <0> d           2.103   1.361  -0.006  0.00  0.00     0.159 HD
ATOM     14  H6  <0> d           1.129   2.998   0.003  0.00  0.00     0.159 HD
ENDBRANCH   1  10
TORSDOF 3
