REMARK  1 active torsions:
REMARK  status: ('A' for Active; 'I' for Inactive)
REMARK    1  A    between atoms: C4_4  and  C7_7 
ROOT
ATOM      1  C7  <0> d          -0.070   5.347   0.031  0.00  0.00     0.139 C 
ATOM      2  C8  <0> d          -0.782   5.835  -1.161  0.00  0.00     0.083 C 
ATOM      3  N1  <0> d          -1.332   6.211  -2.082  0.00  0.00    -0.196 NA
ATOM      4  C9  <0> d          -0.759   5.822   1.242  0.00  0.00     0.083 C 
ATOM      5  N2  <0> d          -1.291   6.188   2.177  0.00  0.00    -0.196 NA
ATOM      6  H6  <0> d           0.952   5.724   0.023  0.00  0.00     0.093 H 
ENDROOT
BRANCH   1   7
ATOM      7  C4  <0> d          -0.050   3.840   0.023  0.00  0.00    -0.027 A 
ATOM      8  C3  <0> d          -1.238   3.133   0.030  0.00  0.00    -0.075 A 
ATOM      9  C2  <0> d          -1.219   1.751   0.017  0.00  0.00    -0.082 A 
ATOM     10  H3  <0> d          -2.180   3.660   0.041  0.00  0.00     0.084 H 
ATOM     11  C1  <0> d          -0.013   1.076   0.008  0.00  0.00    -0.083 A 
ATOM     12  H2  <0> d          -2.147   1.198   0.019  0.00  0.00     0.083 H 
ATOM     13  C6  <0> d           1.175   1.783   0.000  0.00  0.00    -0.082 A 
ATOM     14  H1  <0> d           0.002  -0.004   0.002  0.00  0.00     0.083 H 
ATOM     15  C5  <0> d           1.156   3.165   0.008  0.00  0.00    -0.075 A 
ATOM     16  H5  <0> d           2.118   1.256  -0.011  0.00  0.00     0.083 H 
ATOM     17  H4  <0> d           2.084   3.718   0.002  0.00  0.00     0.084 H 
ENDBRANCH   1   7
TORSDOF 1
