REMARK  0 active torsions:
REMARK  status: ('A' for Active; 'I' for Inactive)
ROOT
ATOM      1  C1  <0> d           1.402   1.622  -0.003  0.00  0.00    -0.048 C 
ATOM      2  C2  <0> d           1.856   1.262  -1.454  0.00  0.00    -0.009 C 
ATOM      3  C3  <0> d           0.572   1.151  -2.287  0.00  0.00     0.131 C 
ATOM      4  O1  <0> d           0.464   0.762  -3.425  0.00  0.00    -0.298 OA
ATOM      5  C4  <0> d          -0.506   1.623  -1.389  0.00  0.00     0.014 C 
ATOM      6  H1  <0> d          -0.613   2.612  -1.489  0.00  0.00     0.052 H 
ATOM      7  C5  <0> d          -0.013   1.086   0.008  0.00  0.00     0.014 C 
ATOM      8  H2  <0> d           0.007   0.097   0.156  0.00  0.00     0.052 H 
ATOM      9  C6  <0> d          -1.096   1.572   0.893  0.00  0.00     0.131 C 
ATOM     10  O2  <0> d          -0.997   1.962   2.031  0.00  0.00    -0.298 OA
ATOM     11  C7  <0> d          -2.375   1.447   0.073  0.00  0.00    -0.009 C 
ATOM     12  C8  <0> d          -1.921   1.087  -1.378  0.00  0.00    -0.048 C 
ATOM     13  H3  <0> d           1.413   2.700   0.155  0.00  0.00     0.034 H 
ATOM     14  H4  <0> d           2.019   1.114   0.739  0.00  0.00     0.034 H 
ATOM     15  H5  <0> d           2.458   1.981  -1.803  0.00  0.00     0.044 H 
ATOM     16  H6  <0> d           2.388   0.311  -1.456  0.00  0.00     0.044 H 
ATOM     17  H7  <0> d          -2.872   2.315   0.097  0.00  0.00     0.044 H 
ATOM     18  H8  <0> d          -3.013   0.659   0.473  0.00  0.00     0.044 H 
ATOM     19  H9  <0> d          -2.538   1.596  -2.119  0.00  0.00     0.034 H 
ATOM     20  H10 <0> d          -1.932   0.009  -1.536  0.00  0.00     0.034 H 
ENDROOT
TORSDOF 0
