REMARK  4 active torsions:
REMARK  status: ('A' for Active; 'I' for Inactive)
REMARK    1  A    between atoms: C1_1  and  C2_2 
REMARK    2  A    between atoms: C3_4  and  O4_14 
REMARK    3  A    between atoms: C5_7  and  O3_13 
REMARK    4  A    between atoms: C6_9  and  O2_12 
ROOT
ATOM      1  C2  <0> d           1.146   3.086   0.011  0.00  0.00     0.063 C 
ATOM      2  H1  <0> d           2.135   3.543  -0.037  0.00  0.00     0.086 H 
ATOM      3  C3  <0> d           1.286   1.562  -0.002  0.00  0.00     0.062 C 
ATOM      4  H2  <0> d           1.824   1.253  -0.898  0.00  0.00     0.086 H 
ATOM      5  C4  <0> d           2.064   1.117   1.240  0.00  0.00    -0.010 C 
ATOM      6  C5  <0> d           1.340   1.622   2.491  0.00  0.00     0.085 C 
ATOM      7  H3  <0> d           1.916   1.357   3.378  0.00  0.00     0.090 H 
ATOM      8  C6  <0> d           1.197   3.144   2.409  0.00  0.00     0.153 C 
ATOM      9  H4  <0> d           2.187   3.601   2.393  0.00  0.00     0.132 H 
ATOM     10  O1  <0> d           0.492   3.492   1.216  0.00  0.00    -0.351 OA
ATOM     11  H8  <0> d           2.119   0.028   1.266  0.00  0.00     0.041 H 
ATOM     12  H9  <0> d           3.072   1.532   1.208  0.00  0.00     0.041 H 
ENDROOT
BRANCH   1  13
ATOM     13  C1  <0> d           0.319   3.533  -1.196  0.00  0.00    -0.050 C 
ATOM     14  H5  <0> d          -0.670   3.076  -1.148  0.00  0.00     0.031 H 
ATOM     15  H6  <0> d           0.219   4.618  -1.187  0.00  0.00     0.031 H 
ATOM     16  H7  <0> d           0.818   3.221  -2.114  0.00  0.00     0.031 H 
ENDBRANCH   1  13
BRANCH   3  17
ATOM     17  O4  <0> d          -0.011   0.963   0.007  0.00  0.00    -0.393 OA
ATOM     18  H12 <0> d           0.002  -0.004   0.002  0.00  0.00     0.210 HD
ENDBRANCH   3  17
BRANCH   8  19
ATOM     19  O2  <0> d           0.473   3.617   3.547  0.00  0.00    -0.369 OA
ATOM     20  H10 <0> d           0.345   4.575   3.561  0.00  0.00     0.212 HD
ENDBRANCH   8  19
BRANCH   6  21
ATOM     21  O3  <0> d           0.044   1.024   2.567  0.00  0.00    -0.391 OA
ATOM     22  H11 <0> d          -0.472   1.299   3.337  0.00  0.00     0.210 HD
ENDBRANCH   6  21
TORSDOF 4
