REMARK  7 active torsions:
REMARK  status: ('A' for Active; 'I' for Inactive)
REMARK    1  A    between atoms: C1_1  and  C2_2 
REMARK    2  A    between atoms: C1_1  and  O4_10 
REMARK    3  A    between atoms: C2_2  and  C3_4 
REMARK    4  A    between atoms: C2_2  and  O3_9 
REMARK    5  A    between atoms: C3_4  and  C4_6 
REMARK    6  A    between atoms: C3_4  and  O2_8 
REMARK    7  A    between atoms: C4_6  and  O1_7 
ROOT
ATOM      1  C2  <0> d           2.040   1.127  -1.261  0.00  0.00     0.082 C 
ATOM      2  H1  <0> d           2.993   1.653  -1.313  0.00  0.00     0.090 H 
ENDROOT
BRANCH   1   3
ATOM      3  C1  <0> d           1.204   1.464  -2.497  0.00  0.00     0.043 C 
ATOM      4  H3  <0> d           0.289   0.871  -2.490  0.00  0.00     0.078 H 
ATOM      5  H4  <0> d           0.950   2.524  -2.486  0.00  0.00     0.078 H 
BRANCH   3   6
ATOM      6  O4  <0> d           1.955   1.166  -3.676  0.00  0.00    -0.398 OA
ATOM      7  H10 <0> d           1.485   1.355  -4.500  0.00  0.00     0.209 HD
ENDBRANCH   3   6
ENDBRANCH   1   3
BRANCH   1   8
ATOM      8  C3  <0> d           1.286   1.562  -0.002  0.00  0.00     0.082 C 
ATOM      9  H2  <0> d           1.186   2.647   0.005  0.00  0.00     0.090 H 
BRANCH   8  10
ATOM     10  C4  <0> d           2.064   1.114   1.238  0.00  0.00     0.043 C 
ATOM     11  H5  <0> d           2.088   0.025   1.278  0.00  0.00     0.078 H 
ATOM     12  H6  <0> d           3.082   1.498   1.186  0.00  0.00     0.078 H 
BRANCH  10  13
ATOM     13  O1  <0> d           1.422   1.619   2.410  0.00  0.00    -0.398 OA
ATOM     14  H7  <0> d           1.862   1.374   3.236  0.00  0.00     0.209 HD
ENDBRANCH  10  13
ENDBRANCH   8  10
BRANCH   8  15
ATOM     15  O2  <0> d          -0.011   0.963   0.007  0.00  0.00    -0.391 OA
ATOM     16  H8  <0> d           0.002  -0.004   0.002  0.00  0.00     0.210 HD
ENDBRANCH   8  15
ENDBRANCH   1   8
BRANCH   1  17
ATOM     17  O3  <0> d           2.274  -0.281  -1.213  0.00  0.00    -0.391 OA
ATOM     18  H9  <0> d           1.468  -0.813  -1.166  0.00  0.00     0.210 HD
ENDBRANCH   1  17
TORSDOF 7
