REMARK  4 active torsions:
REMARK  status: ('A' for Active; 'I' for Inactive)
REMARK    1  A    between atoms: C1_1  and  C2_2 
REMARK    2  A    between atoms: C3_5  and  S1_7 
REMARK    3  A    between atoms: S1_7  and  C4_8 
REMARK    4  A    between atoms: C4_8  and  C5_9 
ROOT
ATOM      1  C2  <0> d           1.026   0.378   4.628  0.00  0.00     0.166 A 
ATOM      2  N1  <0> d           1.745  -0.117   3.663  0.00  0.00    -0.126 NA
ATOM      3  N2  <0> d           1.239   0.222   2.530  0.00  0.00    -0.115 NA
ATOM      4  C3  <0> d           0.174   0.961   2.735  0.00  0.00     0.231 A 
ATOM      5  O1  <0> d           0.015   1.071   4.068  0.00  0.00    -0.269 OA
ENDROOT
BRANCH   4   6
ATOM      6  S1  <0> d          -0.860   1.669   1.497  0.00  0.00    -0.079 SA
BRANCH   6   7
ATOM      7  C4  <0> d          -0.013   1.086   0.008  0.00  0.00    -0.001 C 
ATOM      8  H4  <0> d           0.002  -0.004   0.002  0.00  0.00     0.055 H 
ATOM      9  H5  <0> d           1.010   1.463   0.000  0.00  0.00     0.055 H 
BRANCH   7  10
ATOM     10  C5  <0> d          -0.742   1.585  -1.213  0.00  0.00    -0.103 C 
ATOM     11  C6  <0> d          -0.156   2.429  -2.026  0.00  0.00    -0.124 C 
ATOM     12  H7  <0> d           0.849   2.768  -1.821  0.00  0.00     0.066 H 
ATOM     13  H8  <0> d          -0.678   2.787  -2.901  0.00  0.00     0.066 H 
ATOM     14  H6  <0> d          -1.746   1.247  -1.418  0.00  0.00     0.076 H 
ENDBRANCH   7  10
ENDBRANCH   6   7
ENDBRANCH   4   6
BRANCH   1  15
ATOM     15  C1  <0> d           1.278   0.207   6.104  0.00  0.00    -0.013 C 
ATOM     16  H1  <0> d           0.757  -0.681   6.461  0.00  0.00     0.038 H 
ATOM     17  H2  <0> d           2.348   0.096   6.279  0.00  0.00     0.038 H 
ATOM     18  H3  <0> d           0.911   1.083   6.639  0.00  0.00     0.038 H 
ENDBRANCH   1  15
TORSDOF 4
