REMARK  3 active torsions:
REMARK  status: ('A' for Active; 'I' for Inactive)
REMARK    1  A    between atoms: C2_2  and  C3_3 
REMARK    2  A    between atoms: C3_3  and  C4_5 
REMARK    3  A    between atoms: C3_3  and  O1_11 
ROOT
ATOM      1  C4  <0> d          -2.170   1.352  -1.144  0.00  0.00    -0.026 A 
ATOM      2  C5  <0> d          -1.940   1.862  -2.408  0.00  0.00    -0.074 A 
ATOM      3  C6  <0> d          -2.709   1.437  -3.475  0.00  0.00    -0.082 A 
ATOM      4  C7  <0> d          -3.714   0.509  -3.277  0.00  0.00    -0.083 A 
ATOM      5  C8  <0> d          -3.947   0.003  -2.011  0.00  0.00    -0.082 A 
ATOM      6  C9  <0> d          -3.175   0.424  -0.945  0.00  0.00    -0.074 A 
ATOM      7  H5  <0> d          -1.157   2.590  -2.563  0.00  0.00     0.084 H 
ATOM      8  H6  <0> d          -2.526   1.832  -4.464  0.00  0.00     0.083 H 
ATOM      9  H7  <0> d          -4.317   0.179  -4.110  0.00  0.00     0.083 H 
ATOM     10  H8  <0> d          -4.733  -0.722  -1.856  0.00  0.00     0.083 H 
ATOM     11  H9  <0> d          -3.357   0.029   0.043  0.00  0.00     0.084 H 
ENDROOT
BRANCH   1  12
ATOM     12  C3  <0> d          -1.328   1.812   0.018  0.00  0.00     0.076 C 
ATOM     13  H1  <0> d          -1.853   1.605   0.951  0.00  0.00     0.097 H 
BRANCH  12  14
ATOM     14  C2  <0> d          -0.013   1.076   0.008  0.00  0.00    -0.081 C 
ATOM     15  C1  <0> d           1.113   1.746   0.001  0.00  0.00    -0.122 C 
ATOM     16  H2  <0> d           1.098   2.826   0.007  0.00  0.00     0.066 H 
ATOM     17  H3  <0> d           2.055   1.219  -0.011  0.00  0.00     0.066 H 
ATOM     18  H4  <0> d           0.002  -0.004   0.002  0.00  0.00     0.080 H 
ENDBRANCH  12  14
BRANCH  12  19
ATOM     19  O1  <0> d          -1.089   3.216  -0.093  0.00  0.00    -0.387 OA
ATOM     20  H10 <0> d          -0.624   3.473  -0.901  0.00  0.00     0.210 HD
ENDBRANCH  12  19
ENDBRANCH   1  12
TORSDOF 3
