REMARK  3 active torsions:
REMARK  status: ('A' for Active; 'I' for Inactive)
REMARK    1  A    between atoms: C1_1  and  O1_2 
REMARK    2  A    between atoms: O1_2  and  C2_3 
REMARK    3  A    between atoms: C5_9  and  N3_11 
ROOT
ATOM      1  C2  <0> d           0.621  -0.614   1.034  0.00  0.00     0.250 A 
ATOM      2  N1  <0> d           0.672  -1.971   1.070  0.00  0.00    -0.287 N 
ATOM      3  H1  <0> d           0.265  -2.490   0.358  0.00  0.00     0.172 HD
ATOM      4  C3  <0> d           1.287  -2.600   2.094  0.00  0.00     0.252 A 
ATOM      5  O2  <0> d           1.337  -3.819   2.134  0.00  0.00    -0.268 OA
ATOM      6  C4  <0> d           1.866  -1.830   3.108  0.00  0.00     0.026 A 
ATOM      7  C5  <0> d           1.786  -0.448   3.023  0.00  0.00     0.130 A 
ATOM      8  N2  <0> d           1.167   0.118   1.979  0.00  0.00    -0.191 NA
ATOM      9  H5  <0> d           2.365  -2.302   3.941  0.00  0.00     0.098 H 
ENDROOT
BRANCH   1  10
ATOM     10  O1  <0> d           0.002  -0.004   0.002  0.00  0.00    -0.325 OA
BRANCH  10  11
ATOM     11  C1  <0> d          -0.017   1.425   0.010  0.00  0.00     0.013 C 
ATOM     12  H2  <0> d           1.005   1.802   0.002  0.00  0.00     0.067 H 
ATOM     13  H3  <0> d          -0.544   1.786  -0.873  0.00  0.00     0.067 H 
ATOM     14  H4  <0> d          -0.527   1.776   0.907  0.00  0.00     0.067 H 
ENDBRANCH  10  11
ENDBRANCH   1  10
BRANCH   7  15
ATOM     15  N3  <0> d           2.346   0.341   4.007  0.00  0.00    -0.384 N 
ATOM     16  H6  <0> d           2.797  -0.071   4.761  0.00  0.00     0.157 HD
ATOM     17  H7  <0> d           2.289   1.308   3.945  0.00  0.00     0.157 HD
ENDBRANCH   7  15
TORSDOF 3
