REMARK  2 active torsions:
REMARK  status: ('A' for Active; 'I' for Inactive)
REMARK    1  A    between atoms: C1_1  and  C2_2 
REMARK    2  A    between atoms: C6_10  and  N5_12 
ROOT
ATOM      1  C2  <0> d           2.409   0.094  -0.020  0.00  0.00     0.082 A 
ATOM      2  C3  <0> d           1.242  -0.673  -0.013  0.00  0.00     0.129 A 
ATOM      3  C4  <0> d           0.002  -0.004   0.002  0.00  0.00     0.178 A 
ATOM      4  N1  <0> d          -0.956  -0.986   0.006  0.00  0.00    -0.333 N 
ATOM      5  H1  <0> d          -2.022  -0.715   0.018  0.00  0.00     0.168 HD
ATOM      6  C5  <0> d          -0.311  -2.188  -0.007  0.00  0.00     0.066 A 
ATOM      7  N2  <0> d           0.977  -2.003  -0.018  0.00  0.00    -0.238 NA
ATOM      8  N3  <0> d          -0.016   1.322   0.009  0.00  0.00    -0.043 NA
ATOM      9  C6  <0> d           1.116   2.007   0.002  0.00  0.00     0.722 A 
ATOM     10  N4  <0> d           2.303   1.412  -0.012  0.00  0.00    -0.066 NA
ATOM     11  H5  <0> d          -0.798  -3.152  -0.008  0.00  0.00     0.143 H 
ENDROOT
BRANCH   1  12
ATOM     12  C1  <0> d           3.763  -0.567  -0.036  0.00  0.00    -0.033 C 
ATOM     13  H2  <0> d           3.637  -1.660  -0.041  0.00  0.00     0.035 H 
ATOM     14  H3  <0> d           4.328  -0.267   0.858  0.00  0.00     0.035 H 
ATOM     15  H4  <0> d           4.311  -0.257  -0.938  0.00  0.00     0.035 H 
ENDBRANCH   1  12
BRANCH   9  16
ATOM     16  N5  <0> d           1.062   3.391   0.010  0.00  0.00    -0.231 N 
ATOM     17  H6  <0> d           1.992   3.979   0.004  0.00  0.00     0.174 HD
ATOM     18  H7  <0> d           0.088   3.903   0.022  0.00  0.00     0.174 HD
ENDBRANCH   9  16
TORSDOF 2
