REMARK  2 active torsions:
REMARK  status: ('A' for Active; 'I' for Inactive)
REMARK    1  A    between atoms: C1_1  and  C2_2 
REMARK    2  A    between atoms: C5_5  and  C7_8 
ROOT
ATOM      1  C2  <0> d          -4.737  -0.497   0.022  0.00  0.00     0.030 A 
ATOM      2  C3  <0> d          -4.827   0.883   0.030  0.00  0.00    -0.059 A 
ATOM      3  C4  <0> d          -3.667   1.638   0.028  0.00  0.00    -0.070 A 
ATOM      4  C5  <0> d          -2.439   0.967   0.019  0.00  0.00    -0.019 A 
ATOM      5  C6  <0> d          -2.434  -0.428   0.005  0.00  0.00     0.012 A 
ATOM      6  N1  <0> d          -3.566  -1.103   0.013  0.00  0.00    -0.265 NA
ATOM      7  H4  <0> d          -5.793   1.367   0.037  0.00  0.00     0.086 H 
ATOM      8  H5  <0> d          -3.709   2.717   0.034  0.00  0.00     0.085 H 
ATOM      9  H6  <0> d          -1.494  -0.960  -0.007  0.00  0.00     0.116 H 
ENDROOT
BRANCH   4  10
ATOM     10  C7  <0> d          -1.169   1.723   0.017  0.00  0.00    -0.081 C 
ATOM     11  C8  <0> d          -0.013   1.076   0.008  0.00  0.00    -0.120 C 
ATOM     12  H8  <0> d           0.002  -0.004   0.002  0.00  0.00     0.066 H 
ATOM     13  H9  <0> d           0.915   1.629   0.002  0.00  0.00     0.066 H 
ATOM     14  H7  <0> d          -1.184   2.803   0.023  0.00  0.00     0.083 H 
ENDBRANCH   4  10
BRANCH   1  15
ATOM     15  C1  <0> d          -5.998  -1.322   0.024  0.00  0.00    -0.035 C 
ATOM     16  H1  <0> d          -6.307  -1.516  -1.004  0.00  0.00     0.035 H 
ATOM     17  H2  <0> d          -5.812  -2.268   0.531  0.00  0.00     0.035 H 
ATOM     18  H3  <0> d          -6.787  -0.779   0.544  0.00  0.00     0.035 H 
ENDBRANCH   1  15
TORSDOF 2
