REMARK  2 active torsions:
REMARK  status: ('A' for Active; 'I' for Inactive)
REMARK    1  A    between atoms: N2_4  and  C4_6 
REMARK    2  A    between atoms: C4_6  and  N3_7 
ROOT
ATOM      1  N3  <0> d           0.002  -0.004   0.002  0.00  0.00     0.107 N 
ATOM      2  C5  <0> d          -1.364  -0.556   0.191  0.00  0.00     0.115 C 
ATOM      3  C6  <0> d          -1.242  -1.999  -0.359  0.00  0.00    -0.038 C 
ATOM      4  C7  <0> d          -0.298  -1.829  -1.571  0.00  0.00    -0.038 C 
ATOM      5  C8  <0> d           0.469  -0.521  -1.303  0.00  0.00     0.115 C 
ATOM      6  H6  <0> d          -1.624  -0.533   1.259  0.00  0.00     0.080 H 
ATOM      7  H7  <0> d          -2.086   0.051  -0.376  0.00  0.00     0.080 H 
ATOM      8  H8  <0> d          -0.820  -2.653   0.418  0.00  0.00     0.035 H 
ATOM      9  H9  <0> d          -2.238  -2.367  -0.647  0.00  0.00     0.035 H 
ATOM     10  H10 <0> d           0.382  -2.692  -1.630  0.00  0.00     0.035 H 
ATOM     11  H11 <0> d          -0.893  -1.767  -2.494  0.00  0.00     0.035 H 
ATOM     12  H12 <0> d           0.258   0.221  -2.087  0.00  0.00     0.080 H 
ATOM     13  H13 <0> d           1.552  -0.708  -1.257  0.00  0.00     0.080 H 
ENDROOT
BRANCH   1  14
ATOM     14  C4  <0> d          -0.018   1.465   0.010  0.00  0.00     0.191 C 
ATOM     15  H4  <0> d          -0.550   1.829  -0.881  0.00  0.00     0.115 H 
ATOM     16  H5  <0> d           1.014   1.846   0.002  0.00  0.00     0.115 H 
BRANCH  14  17
ATOM     17  N2  <0> d          -0.704   1.937   1.215  0.00  0.00    -0.253 N 
ATOM     18  N1  <0> d          -2.087   2.099   1.367  0.00  0.00    -0.184 NA
ATOM     19  C2  <0> d          -2.317   2.537   2.578  0.00  0.00     0.023 A 
ATOM     20  C1  <0> d          -1.090   2.669   3.236  0.00  0.00    -0.048 A 
ATOM     21  H2  <0> d          -3.287   2.760   2.997  0.00  0.00     0.117 H 
ATOM     22  C3  <0> d          -0.115   2.288   2.378  0.00  0.00     0.002 A 
ATOM     23  H1  <0> d          -0.946   3.010   4.250  0.00  0.00     0.087 H 
ATOM     24  H3  <0> d           0.945   2.271   2.586  0.00  0.00     0.114 H 
ENDBRANCH  14  17
ENDBRANCH   1  14
TORSDOF 2
