REMARK  2 active torsions:
REMARK  status: ('A' for Active; 'I' for Inactive)
REMARK    1  A    between atoms: C1_1  and  C2_2 
REMARK    2  A    between atoms: C2_2  and  C5_7 
ROOT
ATOM      1  C2  <0> d           0.002  -0.004   0.002  0.00  0.00     0.115 A 
ATOM      2  C3  <0> d          -0.825  -0.728   1.066  0.00  0.00     0.019 A 
ATOM      3  C4  <0> d           0.701  -0.708   1.167  0.00  0.00     0.262 A 
ATOM      4  F1  <0> d           1.383  -1.897   0.888  0.00  0.00    -0.205 F 
ATOM      5  F2  <0> d           1.273   0.097   2.158  0.00  0.00    -0.205 F 
ATOM      6  H4  <0> d          -1.384  -0.114   1.773  0.00  0.00     0.044 H 
ATOM      7  H5  <0> d          -1.298  -1.668   0.783  0.00  0.00     0.044 H 
ENDROOT
BRANCH   1   8
ATOM      8  C1  <0> d          -0.019   1.526   0.010  0.00  0.00    -0.054 C 
ATOM      9  H1  <0> d           1.004   1.903   0.003  0.00  0.00     0.029 H 
ATOM     10  H2  <0> d          -0.546   1.887  -0.873  0.00  0.00     0.029 H 
ATOM     11  H3  <0> d          -0.529   1.877   0.907  0.00  0.00     0.029 H 
ENDBRANCH   1   8
BRANCH   1  12
ATOM     12  C5  <0> d           0.101  -0.645  -1.358  0.00  0.00     0.187 C 
ATOM     13  O1  <0> d           0.611  -0.037  -2.283  0.00  0.00    -0.647 OA
ATOM     14  O2  <0> d          -0.330  -1.772  -1.533  0.00  0.00    -0.647 OA
ENDBRANCH   1  12
TORSDOF 2
