REMARK  0 active torsions:
REMARK  status: ('A' for Active; 'I' for Inactive)
ROOT
ATOM      1  C1  <0> d           1.055   1.786   0.002  0.00  0.00     0.220 A 
ATOM      2  N1  <0> d          -0.011   0.966   0.007  0.00  0.00    -0.248 N 
ATOM      3  H1  <0> d           0.002  -0.004   0.002  0.00  0.00     0.192 HD
ATOM      4  N2  <0> d          -1.147   1.792   0.017  0.00  0.00    -0.139 NA
ATOM      5  C2  <0> d          -0.717   3.027   0.025  0.00  0.00     0.243 A 
ATOM      6  N3  <0> d           0.617   3.021   0.012  0.00  0.00    -0.186 NA
ATOM      7 Cl1  <0> d          -1.719   4.444   0.042  0.00  0.00    -0.040 Cl
ATOM      8 Cl2  <0> d           2.720   1.295  -0.018  0.00  0.00    -0.042 Cl
ENDROOT
TORSDOF 0
