REMARK  1 active torsions:
REMARK  status: ('A' for Active; 'I' for Inactive)
REMARK    1  A    between atoms: C5_6  and  N2_7 
ROOT
ATOM      1  C1  <0> d          -2.430   0.946   0.019  0.00  0.00    -0.035 A 
ATOM      2  C2  <0> d          -3.624   1.675   0.029  0.00  0.00     0.064 A 
ATOM      3  C3  <0> d          -3.564   3.070   0.037  0.00  0.00     0.022 A 
ATOM      4  N1  <0> d          -2.404   3.693   0.035  0.00  0.00    -0.269 NA
ATOM      5  C4  <0> d          -1.260   3.038   0.030  0.00  0.00     0.027 A 
ATOM      6  C5  <0> d          -1.231   1.648   0.017  0.00  0.00     0.044 A 
ATOM      7  C6  <0> d          -4.888   1.002   0.032  0.00  0.00     0.101 C 
ATOM      8  N3  <0> d          -5.891   0.468   0.034  0.00  0.00    -0.191 NA
ATOM      9  H1  <0> d          -2.440  -0.135   0.012  0.00  0.00     0.089 H 
ATOM     10  H2  <0> d          -4.479   3.644   0.044  0.00  0.00     0.117 H 
ATOM     11  H3  <0> d          -0.331   3.589   0.034  0.00  0.00     0.118 H 
ENDROOT
BRANCH   6  12
ATOM     12  N2  <0> d          -0.011   0.966   0.007  0.00  0.00    -0.398 N 
ATOM     13  H4  <0> d           0.934   1.529   0.006  0.00  0.00     0.156 HD
ATOM     14  H5  <0> d           0.004  -0.134   0.001  0.00  0.00     0.156 HD
ENDBRANCH   6  12
TORSDOF 1
