REMARK  1 active torsions:
REMARK  status: ('A' for Active; 'I' for Inactive)
REMARK    1  A    between atoms: C3_3  and  C8_12 
ROOT
ATOM      1  C1  <0> d          -0.139   1.151  -0.164  0.00  0.00    -0.060 C 
ATOM      2  C2  <0> d           1.228   1.851  -0.165  0.00  0.00    -0.051 C 
ATOM      3  C3  <0> d           2.286   0.780  -0.467  0.00  0.00     0.041 C 
ATOM      4  H1  <0> d           2.993   0.715   0.360  0.00  0.00     0.057 H 
ATOM      5  C4  <0> d           1.550  -0.556  -0.631  0.00  0.00     0.021 C 
ATOM      6  H2  <0> d           2.107  -1.423  -0.276  0.00  0.00     0.053 H 
ATOM      7  C5  <0> d           0.152  -0.354  -0.007  0.00  0.00    -0.037 C 
ATOM      8  H3  <0> d          -0.011  -0.760   0.991  0.00  0.00     0.041 H 
ATOM      9  C6  <0> d          -0.362  -1.189  -1.192  0.00  0.00    -0.005 C 
ATOM     10  C7  <0> d           0.870  -0.730  -1.970  0.00  0.00     0.132 C 
ATOM     11  O1  <0> d           1.170  -0.572  -3.129  0.00  0.00    -0.298 OA
ATOM     12  H4  <0> d          -0.742   1.505   0.673  0.00  0.00     0.033 H 
ATOM     13  H5  <0> d          -0.657   1.337  -1.105  0.00  0.00     0.033 H 
ATOM     14  H6  <0> d           1.249   2.622  -0.936  0.00  0.00     0.034 H 
ATOM     15  H7  <0> d           1.418   2.295   0.812  0.00  0.00     0.034 H 
ATOM     16  H8  <0> d          -0.369  -2.261  -0.998  0.00  0.00     0.044 H 
ATOM     17  H9  <0> d          -1.304  -0.827  -1.604  0.00  0.00     0.044 H 
ENDROOT
BRANCH   3  18
ATOM     18  C8  <0> d           3.015   1.126  -1.739  0.00  0.00     0.177 C 
ATOM     19  O2  <0> d           4.191   0.831  -1.867  0.00  0.00    -0.648 OA
ATOM     20  O3  <0> d           2.430   1.702  -2.641  0.00  0.00    -0.648 OA
ENDBRANCH   3  18
TORSDOF 1
