REMARK  1 active torsions:
REMARK  status: ('A' for Active; 'I' for Inactive)
REMARK    1  A    between atoms: C5_6  and  N2_7 
ROOT
ATOM      1  C1  <0> d           0.937  -2.782  -0.015  0.00  0.00    -0.040 A 
ATOM      2  C2  <0> d           1.459  -4.059  -0.032  0.00  0.00     0.004 A 
ATOM      3  N1  <0> d           2.763  -4.257  -0.045  0.00  0.00    -0.273 NA
ATOM      4  C3  <0> d           3.620  -3.254  -0.049  0.00  0.00     0.004 A 
ATOM      5  C4  <0> d           3.179  -1.947  -0.038  0.00  0.00    -0.040 A 
ATOM      6  C5  <0> d           1.809  -1.695  -0.024  0.00  0.00     0.042 A 
ATOM      7  H1  <0> d          -0.131  -2.627   0.002  0.00  0.00     0.089 H 
ATOM      8  H2  <0> d           0.791  -4.908  -0.029  0.00  0.00     0.114 H 
ATOM      9  H3  <0> d           4.681  -3.459  -0.060  0.00  0.00     0.114 H 
ATOM     10  H4  <0> d           3.885  -1.130  -0.041  0.00  0.00     0.089 H 
ENDROOT
BRANCH   6  11
ATOM     11  N2  <0> d           1.320  -0.383  -0.013  0.00  0.00    -0.315 N 
ATOM     12  C8  <0> d           2.062   0.755  -0.014  0.00  0.00     0.070 A 
ATOM     13  N3  <0> d           1.252   1.779  -0.000  0.00  0.00    -0.254 NA
ATOM     14  H7  <0> d           3.141   0.805  -0.024  0.00  0.00     0.144 H 
ATOM     15  C7  <0> d          -0.016   1.342   0.009  0.00  0.00     0.019 A 
ATOM     16  C6  <0> d           0.002  -0.004   0.002  0.00  0.00     0.003 A 
ATOM     17  H6  <0> d          -0.900   1.963   0.017  0.00  0.00     0.117 H 
ATOM     18  H5  <0> d          -0.856  -0.659   0.006  0.00  0.00     0.114 H 
ENDBRANCH   6  11
TORSDOF 1
