REMARK  2 active torsions:
REMARK  status: ('A' for Active; 'I' for Inactive)
REMARK    1  A    between atoms: C9_10  and  C10_11 
REMARK    2  A    between atoms: C10_11  and  O1_12 
ROOT
ATOM      1  C1  <0> d          -0.017   1.389   0.010  0.00  0.00    -0.074 A 
ATOM      2  C2  <0> d           1.140   2.108   0.003  0.00  0.00    -0.070 A 
ATOM      3  C3  <0> d           2.372   1.436  -0.013  0.00  0.00    -0.008 A 
ATOM      4  C4  <0> d           3.596   2.123  -0.020  0.00  0.00     0.013 A 
ATOM      5  N1  <0> d           4.723   1.451  -0.034  0.00  0.00    -0.272 NA
ATOM      6  C5  <0> d           4.769   0.126  -0.042  0.00  0.00     0.003 A 
ATOM      7  C6  <0> d           3.638  -0.633  -0.036  0.00  0.00    -0.055 A 
ATOM      8  C7  <0> d           2.390   0.017  -0.021  0.00  0.00    -0.023 A 
ATOM      9  C8  <0> d           1.179  -0.690  -0.013  0.00  0.00    -0.064 A 
ATOM     10  C9  <0> d           0.002  -0.004   0.002  0.00  0.00    -0.034 A 
ATOM     11  H1  <0> d          -0.964   1.907   0.026  0.00  0.00     0.084 H 
ATOM     12  H2  <0> d           1.109   3.188   0.008  0.00  0.00     0.084 H 
ATOM     13  H3  <0> d           3.611   3.203  -0.015  0.00  0.00     0.116 H 
ATOM     14  H4  <0> d           5.730  -0.366  -0.054  0.00  0.00     0.114 H 
ATOM     15  H5  <0> d           3.697  -1.711  -0.042  0.00  0.00     0.087 H 
ATOM     16  H6  <0> d           1.179  -1.770  -0.019  0.00  0.00     0.085 H 
ENDROOT
BRANCH  10  17
ATOM     17  C10 <0> d          -1.299  -0.764   0.011  0.00  0.00     0.040 C 
ATOM     18  H7  <0> d          -1.159  -1.718   0.518  0.00  0.00     0.081 H 
ATOM     19  H8  <0> d          -2.057  -0.181   0.535  0.00  0.00     0.081 H 
BRANCH  17  20
ATOM     20  O1  <0> d          -1.724  -0.997  -1.334  0.00  0.00    -0.396 OA
ATOM     21  H9  <0> d          -2.557  -1.482  -1.404  0.00  0.00     0.209 HD
ENDBRANCH  17  20
ENDBRANCH  10  17
TORSDOF 2
