REMARK  7 active torsions:
REMARK  status: ('A' for Active; 'I' for Inactive)
REMARK    1  A    between atoms: C1_1  and  C2_2 
REMARK    2  A    between atoms: C2_2  and  C3_3 
REMARK    3  A    between atoms: C3_3  and  C4_4 
REMARK    4  A    between atoms: C4_4  and  C5_5 
REMARK    5  A    between atoms: C4_4  and  C8_8 
REMARK    6  A    between atoms: C5_5  and  C6_6 
REMARK    7  A    between atoms: C6_6  and  C7_7 
ROOT
ATOM      1  C4  <0> d          -1.413  -2.063   0.004  0.00  0.00     0.030 C 
ATOM      2  H8  <0> d          -0.810  -2.423   0.839  0.00  0.00     0.056 H 
ENDROOT
BRANCH   1   3
ATOM      3  C3  <0> d          -1.433  -0.534   0.013  0.00  0.00    -0.053 C 
ATOM      4  H6  <0> d          -1.944  -0.182   0.910  0.00  0.00     0.034 H 
ATOM      5  H7  <0> d          -1.960  -0.173  -0.870  0.00  0.00     0.034 H 
BRANCH   3   6
ATOM      6  C2  <0> d           0.002  -0.004   0.002  0.00  0.00    -0.068 C 
ATOM      7  H4  <0> d           0.512  -0.356  -0.895  0.00  0.00     0.032 H 
ATOM      8  H5  <0> d           0.529  -0.365   0.885  0.00  0.00     0.032 H 
BRANCH   6   9
ATOM      9  C1  <0> d          -0.019   1.526   0.010  0.00  0.00    -0.076 C 
ATOM     10  H1  <0> d           1.004   1.903   0.003  0.00  0.00     0.027 H 
ATOM     11  H2  <0> d          -0.546   1.887  -0.873  0.00  0.00     0.027 H 
ATOM     12  H3  <0> d          -0.529   1.877   0.907  0.00  0.00     0.027 H 
ENDBRANCH   6   9
ENDBRANCH   3   6
ENDBRANCH   1   3
BRANCH   1  13
ATOM     13  C5  <0> d          -2.841  -2.594   0.141  0.00  0.00    -0.053 C 
ATOM     14  H9  <0> d          -3.302  -2.170   1.033  0.00  0.00     0.034 H 
ATOM     15  H10 <0> d          -3.420  -2.308  -0.737  0.00  0.00     0.034 H 
BRANCH  13  16
ATOM     16  C6  <0> d          -2.810  -4.119   0.258  0.00  0.00    -0.068 C 
ATOM     17  H11 <0> d          -2.349  -4.542  -0.634  0.00  0.00     0.032 H 
ATOM     18  H12 <0> d          -2.231  -4.404   1.136  0.00  0.00     0.032 H 
BRANCH  16  19
ATOM     19  C7  <0> d          -4.239  -4.649   0.394  0.00  0.00    -0.076 C 
ATOM     20  H13 <0> d          -4.217  -5.736   0.478  0.00  0.00     0.027 H 
ATOM     21  H14 <0> d          -4.700  -4.226   1.287  0.00  0.00     0.027 H 
ATOM     22  H15 <0> d          -4.818  -4.364  -0.484  0.00  0.00     0.027 H 
ENDBRANCH  16  19
ENDBRANCH  13  16
ENDBRANCH   1  13
BRANCH   1  23
ATOM     23  C8  <0> d          -0.818  -2.551  -1.292  0.00  0.00     0.177 C 
ATOM     24  O1  <0> d           0.189  -3.238  -1.280  0.00  0.00    -0.648 OA
ATOM     25  O2  <0> d          -1.343  -2.257  -2.352  0.00  0.00    -0.648 OA
ENDBRANCH   1  23
TORSDOF 7
