REMARK  3 active torsions:
REMARK  status: ('A' for Active; 'I' for Inactive)
REMARK    1  A    between atoms: C1_1  and  O1_2 
REMARK    2  A    between atoms: O1_2  and  C2_3 
REMARK    3  A    between atoms: C2_3  and  C3_5 
ROOT
ATOM      1  C3  <0> d           1.253   2.099   0.001  0.00  0.00     0.074 A 
ATOM      2  C4  <0> d           2.486   1.436  -0.008  0.00  0.00     0.021 A 
ATOM      3  N1  <0> d           3.596   2.151  -0.021  0.00  0.00    -0.253 NA
ATOM      4  C5  <0> d           3.554   3.470  -0.013  0.00  0.00     0.086 A 
ATOM      5  N2  <0> d           2.415   4.134   0.001  0.00  0.00    -0.253 NA
ATOM      6  C6  <0> d           1.257   3.499   0.009  0.00  0.00     0.021 A 
ATOM      7  H4  <0> d           2.528   0.356  -0.009  0.00  0.00     0.116 H 
ATOM      8  H5  <0> d           4.482   4.022  -0.020  0.00  0.00     0.146 H 
ATOM      9  H6  <0> d           0.328   4.050   0.021  0.00  0.00     0.116 H 
ENDROOT
BRANCH   1  10
ATOM     10  C2  <0> d          -0.016   1.343   0.009  0.00  0.00     0.295 C 
ATOM     11  O2  <0> d          -1.076   1.936   0.018  0.00  0.00    -0.259 OA
BRANCH  10  12
ATOM     12  O1  <0> d           0.002  -0.004   0.002  0.00  0.00    -0.322 OA
BRANCH  12  13
ATOM     13  C1  <0> d          -1.282  -0.681   0.011  0.00  0.00     0.013 C 
ATOM     14  H1  <0> d          -1.835  -0.400   0.907  0.00  0.00     0.067 H 
ATOM     15  H2  <0> d          -1.852  -0.391  -0.872  0.00  0.00     0.067 H 
ATOM     16  H3  <0> d          -1.125  -1.759   0.003  0.00  0.00     0.067 H 
ENDBRANCH  12  13
ENDBRANCH  10  12
ENDBRANCH   1  10
TORSDOF 3
