REMARK  2 active torsions:
REMARK  status: ('A' for Active; 'I' for Inactive)
REMARK    1  A    between atoms: C1_1  and  C2_2 
REMARK    2  A    between atoms: C3_3  and  N1_4 
ROOT
ATOM      1  N1  <0> d          -0.905   1.703   3.587  0.00  0.00    -0.343 N 
ATOM      2  C4  <0> d          -2.028   2.481   3.612  0.00  0.00    -0.016 A 
ATOM      3  C5  <0> d          -2.358   2.703   4.901  0.00  0.00    -0.066 A 
ATOM      4  C6  <0> d          -1.402   2.047   5.702  0.00  0.00    -0.066 A 
ATOM      5  C7  <0> d          -0.525   1.444   4.874  0.00  0.00    -0.016 A 
ATOM      6  H6  <0> d          -2.560   2.853   2.749  0.00  0.00     0.112 H 
ATOM      7  H7  <0> d          -3.200   3.281   5.254  0.00  0.00     0.085 H 
ATOM      8  H8  <0> d          -1.376   2.031   6.781  0.00  0.00     0.085 H 
ATOM      9  H9  <0> d           0.330   0.857   5.175  0.00  0.00     0.112 H 
ENDROOT
BRANCH   1  10
ATOM     10  C3  <0> d          -0.252   1.253   2.439  0.00  0.00    -0.020 C 
ATOM     11  C2  <0> d          -0.718   1.572   1.248  0.00  0.00    -0.091 C 
ATOM     12  H4  <0> d          -1.605   2.181   1.161  0.00  0.00     0.078 H 
ATOM     13  H5  <0> d           0.635   0.644   2.527  0.00  0.00     0.111 H 
BRANCH  11  14
ATOM     14  C1  <0> d          -0.013   1.086   0.008  0.00  0.00    -0.058 C 
ATOM     15  H1  <0> d           0.002  -0.004   0.002  0.00  0.00     0.032 H 
ATOM     16  H2  <0> d           1.010   1.463   0.000  0.00  0.00     0.032 H 
ATOM     17  H3  <0> d          -0.540   1.447  -0.875  0.00  0.00     0.032 H 
ENDBRANCH  11  14
ENDBRANCH   1  10
TORSDOF 2
