REMARK  3 active torsions:
REMARK  status: ('A' for Active; 'I' for Inactive)
REMARK    1  A    between atoms: C1_1  and  C2_2 
REMARK    2  A    between atoms: C3_3  and  O1_4 
REMARK    3  A    between atoms: O1_4  and  C4_5 
ROOT
ATOM      1  C4  <0> d           1.155   3.170   0.009  0.00  0.00     0.074 A 
ATOM      2  C5  <0> d           1.174   1.782  -0.007  0.00  0.00    -0.050 A 
ATOM      3  C6  <0> d          -0.013   1.076   0.002  0.00  0.00    -0.080 A 
ATOM      4  C7  <0> d          -1.220   1.750   0.021  0.00  0.00    -0.083 A 
ATOM      5  C8  <0> d          -1.242   3.133   0.041  0.00  0.00    -0.080 A 
ATOM      6  C9  <0> d          -0.058   3.844   0.033  0.00  0.00    -0.050 A 
ATOM      7  H6  <0> d           2.117   1.255  -0.026  0.00  0.00     0.087 H 
ATOM      8  H7  <0> d           0.002  -0.004  -0.011  0.00  0.00     0.083 H 
ATOM      9  H8  <0> d          -2.147   1.196   0.023  0.00  0.00     0.083 H 
ATOM     10  H9  <0> d          -2.186   3.657   0.060  0.00  0.00     0.083 H 
ATOM     11  H10 <0> d          -0.075   4.924   0.045  0.00  0.00     0.087 H 
ENDROOT
BRANCH   1  12
ATOM     12  O1  <0> d           2.321   3.867   0.001  0.00  0.00    -0.323 OA
BRANCH  12  13
ATOM     13  C3  <0> d           3.481   3.169   0.091  0.00  0.00     0.015 C 
ATOM     14  C2  <0> d           4.629   3.808   0.187  0.00  0.00    -0.085 C 
ATOM     15  H4  <0> d           4.646   4.888   0.194  0.00  0.00     0.079 H 
ATOM     16  H5  <0> d           3.463   2.089   0.084  0.00  0.00     0.122 H 
BRANCH  14  17
ATOM     17  C1  <0> d           5.917   3.033   0.288  0.00  0.00    -0.058 C 
ATOM     18  H1  <0> d           6.754   3.727   0.359  0.00  0.00     0.032 H 
ATOM     19  H2  <0> d           5.893   2.401   1.176  0.00  0.00     0.032 H 
ATOM     20  H3  <0> d           6.036   2.410  -0.599  0.00  0.00     0.032 H 
ENDBRANCH  14  17
ENDBRANCH  12  13
ENDBRANCH   1  12
TORSDOF 3
