REMARK  1 active torsions:
REMARK  status: ('A' for Active; 'I' for Inactive)
REMARK    1  A    between atoms: C4_4  and  C6_6 
ROOT
ATOM      1  C6  <0> d           1.127  -1.242  -1.876  0.00  0.00     0.034 C 
ATOM      2  C7  <0> d           0.408  -2.481  -1.539  0.00  0.00     0.060 C 
ATOM      3  N1  <0> d          -0.147  -3.438  -1.279  0.00  0.00    -0.197 NA
ATOM      4  H9  <0> d           0.535  -0.659  -2.582  0.00  0.00     0.057 H 
ATOM      5  H10 <0> d           2.088  -1.490  -2.324  0.00  0.00     0.057 H 
ENDROOT
BRANCH   1   6
ATOM      6  C4  <0> d           1.353  -0.422  -0.604  0.00  0.00     0.061 C 
ATOM      7  C3  <0> d           2.107   0.881  -0.942  0.00  0.00    -0.045 C 
ATOM      8  C2  <0> d           1.477   1.939  -0.002  0.00  0.00    -0.063 C 
ATOM      9  H5  <0> d           1.946   1.155  -1.985  0.00  0.00     0.035 H 
ATOM     10  H6  <0> d           3.171   0.771  -0.735  0.00  0.00     0.035 H 
ATOM     11  C1  <0> d          -0.019   1.538   0.011  0.00  0.00    -0.063 C 
ATOM     12  H3  <0> d           1.606   2.942  -0.408  0.00  0.00     0.033 H 
ATOM     13  H4  <0> d           1.904   1.868   0.999  0.00  0.00     0.033 H 
ATOM     14  C5  <0> d           0.002  -0.004   0.002  0.00  0.00    -0.045 C 
ATOM     15  H1  <0> d          -0.505   1.908   0.913  0.00  0.00     0.033 H 
ATOM     16  H2  <0> d          -0.522   1.918  -0.878  0.00  0.00     0.033 H 
ATOM     17  H7  <0> d          -0.084  -0.384   1.020  0.00  0.00     0.035 H 
ATOM     18  H8  <0> d          -0.815  -0.385  -0.610  0.00  0.00     0.035 H 
ATOM     19  C8  <0> d           2.122  -1.209   0.374  0.00  0.00     0.070 C 
ATOM     20  N2  <0> d           2.716  -1.817   1.128  0.00  0.00    -0.196 NA
ENDBRANCH   1   6
TORSDOF 1
