REMARK  3 active torsions:
REMARK  status: ('A' for Active; 'I' for Inactive)
REMARK    1  A    between atoms: C1_1  and  O1_2 
REMARK    2  A    between atoms: O1_2  and  C2_3 
REMARK    3  A    between atoms: C4_5  and  N2_11 
ROOT
ATOM      1  C2  <0> d          -3.626   1.607   0.028  0.00  0.00     0.091 A 
ATOM      2  C3  <0> d          -2.418   0.932   0.019  0.00  0.00    -0.024 A 
ATOM      3  C4  <0> d          -1.226   1.645   0.017  0.00  0.00     0.028 A 
ATOM      4  C5  <0> d          -1.242   3.038   0.030  0.00  0.00    -0.056 A 
ATOM      5  C6  <0> d          -2.428   3.715   0.035  0.00  0.00    -0.058 A 
ATOM      6  C7  <0> d          -3.637   3.011   0.037  0.00  0.00     0.078 A 
ATOM      7  C8  <0> d          -4.881   3.720   0.046  0.00  0.00     0.102 C 
ATOM      8  N1  <0> d          -5.868   4.282   0.054  0.00  0.00    -0.191 NA
ATOM      9  H4  <0> d          -2.402  -0.148   0.013  0.00  0.00     0.091 H 
ATOM     10  H5  <0> d          -0.311   3.586   0.033  0.00  0.00     0.086 H 
ATOM     11  H6  <0> d          -2.433   4.795   0.041  0.00  0.00     0.086 H 
ENDROOT
BRANCH   1  12
ATOM     12  O1  <0> d          -4.794   0.916   0.030  0.00  0.00    -0.354 OA
BRANCH  12  13
ATOM     13  C1  <0> d          -4.703  -0.510   0.021  0.00  0.00     0.010 C 
ATOM     14  H1  <0> d          -4.163  -0.846   0.906  0.00  0.00     0.066 H 
ATOM     15  H2  <0> d          -5.706  -0.938   0.023  0.00  0.00     0.066 H 
ATOM     16  H3  <0> d          -4.172  -0.835  -0.874  0.00  0.00     0.066 H 
ENDBRANCH  12  13
ENDBRANCH   1  12
BRANCH   3  17
ATOM     17  N2  <0> d          -0.011   0.966   0.007  0.00  0.00    -0.399 N 
ATOM     18  H7  <0> d           0.002  -0.004   0.002  0.00  0.00     0.156 HD
ATOM     19  H8  <0> d           0.822   1.462   0.002  0.00  0.00     0.156 HD
ENDBRANCH   3  17
TORSDOF 3
