REMARK  5 active torsions:
REMARK  status: ('A' for Active; 'I' for Inactive)
REMARK    1  A    between atoms: C1_1  and  C2_2 
REMARK    2  A    between atoms: C2_2  and  C3_3 
REMARK    3  A    between atoms: C3_3  and  C4_5 
REMARK    4  A    between atoms: C3_3  and  O1_12 
REMARK    5  A    between atoms: C7_8  and  N1_11 
ROOT
ATOM      1  C4  <0> d           0.002  -0.004   0.002  0.00  0.00    -0.030 A 
ATOM      2  C5  <0> d          -1.109  -0.711   0.424  0.00  0.00    -0.072 A 
ATOM      3  C6  <0> d          -1.095  -2.092   0.412  0.00  0.00    -0.057 A 
ATOM      4  C7  <0> d           0.040  -2.771  -0.013  0.00  0.00     0.025 A 
ATOM      5  C8  <0> d           1.156  -2.057  -0.431  0.00  0.00    -0.057 A 
ATOM      6  C9  <0> d           1.134  -0.676  -0.422  0.00  0.00    -0.072 A 
ATOM      7  H7  <0> d          -1.989  -0.183   0.759  0.00  0.00     0.084 H 
ATOM      8  H8  <0> d          -1.965  -2.644   0.738  0.00  0.00     0.086 H 
ATOM      9  H9  <0> d           2.040  -2.582  -0.763  0.00  0.00     0.086 H 
ATOM     10  H10 <0> d           2.001  -0.121  -0.747  0.00  0.00     0.084 H 
ENDROOT
BRANCH   1  11
ATOM     11  C3  <0> d          -0.018   1.503   0.010  0.00  0.00     0.060 C 
ATOM     12  H1  <0> d           1.004   1.880   0.003  0.00  0.00     0.090 H 
BRANCH  11  13
ATOM     13  C2  <0> d          -0.758   2.010  -1.229  0.00  0.00    -0.041 C 
ATOM     14  H5  <0> d          -0.301   1.586  -2.124  0.00  0.00     0.036 H 
ATOM     15  H6  <0> d          -1.804   1.707  -1.177  0.00  0.00     0.036 H 
BRANCH  13  16
ATOM     16  C1  <0> d          -0.672   3.536  -1.286  0.00  0.00    -0.074 C 
ATOM     17  H2  <0> d           0.374   3.839  -1.338  0.00  0.00     0.027 H 
ATOM     18  H3  <0> d          -1.199   3.897  -2.169  0.00  0.00     0.027 H 
ATOM     19  H4  <0> d          -1.129   3.960  -0.392  0.00  0.00     0.027 H 
ENDBRANCH  13  16
ENDBRANCH  11  13
BRANCH  11  20
ATOM     20  O1  <0> d          -0.687   1.964   1.186  0.00  0.00    -0.391 OA
ATOM     21  H13 <0> d          -1.604   1.665   1.259  0.00  0.00     0.210 HD
ENDBRANCH  11  20
ENDBRANCH   1  11
BRANCH   4  22
ATOM     22  N1  <0> d           0.059  -4.167  -0.020  0.00  0.00    -0.399 N 
ATOM     23  H11 <0> d           0.852  -4.640  -0.318  0.00  0.00     0.156 HD
ATOM     24  H12 <0> d          -0.721  -4.665   0.272  0.00  0.00     0.156 HD
ENDBRANCH   4  22
TORSDOF 5
