REMARK  2 active torsions:
REMARK  status: ('A' for Active; 'I' for Inactive)
REMARK    1  A    between atoms: C4_4  and  O2_11 
REMARK    2  A    between atoms: C5_6  and  C7_9 
ROOT
ATOM      1  C1  <0> d          -0.013   1.086   0.008  0.00  0.00    -0.064 C 
ATOM      2  C2  <0> d          -0.729   1.579   1.267  0.00  0.00    -0.063 C 
ATOM      3  C3  <0> d          -0.750   3.109   1.275  0.00  0.00    -0.040 C 
ATOM      4  C4  <0> d          -1.490   3.616   0.036  0.00  0.00     0.048 C 
ATOM      5  H1  <0> d          -2.512   3.239   0.043  0.00  0.00     0.084 H 
ATOM      6  C5  <0> d          -0.773   3.123  -1.223  0.00  0.00     0.055 C 
ATOM      7  H2  <0> d           0.249   3.500  -1.231  0.00  0.00     0.060 H 
ATOM      8  C6  <0> d          -0.753   1.593  -1.232  0.00  0.00    -0.050 C 
ATOM      9  H3  <0> d           0.002  -0.004   0.002  0.00  0.00     0.033 H 
ATOM     10  H4  <0> d           1.010   1.463   0.000  0.00  0.00     0.033 H 
ATOM     11  H5  <0> d          -1.751   1.202   1.275  0.00  0.00     0.033 H 
ATOM     12  H6  <0> d          -0.202   1.218   2.150  0.00  0.00     0.033 H 
ATOM     13  H7  <0> d           0.273   3.486   1.268  0.00  0.00     0.036 H 
ATOM     14  H8  <0> d          -1.260   3.461   2.172  0.00  0.00     0.036 H 
ATOM     15  H9  <0> d          -0.242   1.241  -2.128  0.00  0.00     0.034 H 
ATOM     16  H10 <0> d          -1.775   1.215  -1.224  0.00  0.00     0.034 H 
ENDROOT
BRANCH   6  17
ATOM     17  C7  <0> d          -1.502   3.622  -2.444  0.00  0.00     0.179 C 
ATOM     18  O1  <0> d          -2.493   4.302  -2.320  0.00  0.00    -0.648 OA
ATOM     19  O3  <0> d          -1.051   3.310  -3.669  0.00  0.00    -0.648 OA
ENDBRANCH   6  17
BRANCH   4  20
ATOM     20  O2  <0> d          -1.509   5.045   0.044  0.00  0.00    -0.395 OA
ATOM     21  H11 <0> d          -1.949   5.428   0.815  0.00  0.00     0.210 HD
ENDBRANCH   4  20
TORSDOF 2
