REMARK  2 active torsions:
REMARK  status: ('A' for Active; 'I' for Inactive)
REMARK    1  A    between atoms: C1_1  and  N1_2 
REMARK    2  A    between atoms: C3_4  and  C5_7 
ROOT
ATOM      1  N1  <0> d           1.992   5.125   0.010  0.00  0.00    -0.262 N 
ATOM      2  C2  <0> d           2.382   3.840  -0.000  0.00  0.00     0.140 A 
ATOM      3  C3  <0> d           1.238   3.061   0.007  0.00  0.00     0.100 A 
ATOM      4  C4  <0> d           0.135   3.945   0.016  0.00  0.00     0.041 A 
ATOM      5  N2  <0> d           0.594   5.165   0.023  0.00  0.00    -0.183 NA
ATOM      6 Cl1  <0> d           4.019   3.262  -0.018  0.00  0.00    -0.062 Cl
ATOM      7  H4  <0> d          -0.907   3.659   0.018  0.00  0.00     0.119 H 
ENDROOT
BRANCH   1   8
ATOM      8  C1  <0> d           2.882   6.289   0.007  0.00  0.00     0.004 C 
ATOM      9  H1  <0> d           3.093   6.583  -1.021  0.00  0.00     0.059 H 
ATOM     10  H2  <0> d           2.401   7.115   0.530  0.00  0.00     0.059 H 
ATOM     11  H3  <0> d           3.815   6.035   0.511  0.00  0.00     0.059 H 
ENDBRANCH   1   8
BRANCH   3  12
ATOM     12  C5  <0> d           1.181   1.591  -0.001  0.00  0.00     0.214 C 
ATOM     13  O1  <0> d           2.209   0.943  -0.014  0.00  0.00    -0.644 OA
ATOM     14  O2  <0> d          -0.011   0.963   0.007  0.00  0.00    -0.644 OA
ENDBRANCH   3  12
TORSDOF 2
