REMARK  5 active torsions:
REMARK  status: ('A' for Active; 'I' for Inactive)
REMARK    1  A    between atoms: C1_1  and  C2_2 
REMARK    2  A    between atoms: C4_4  and  C9_11 
REMARK    3  A    between atoms: N1_5  and  C5_7 
REMARK    4  A    between atoms: C5_7  and  C6_8 
REMARK    5  A    between atoms: C6_8  and  C8_10 
ROOT
ATOM      1  C2  <0> d          -2.875   1.942  -3.230  0.00  0.00     0.053 A 
ATOM      2  C3  <0> d          -2.198   3.159  -3.357  0.00  0.00    -0.035 A 
ATOM      3  C4  <0> d          -1.565   3.407  -2.187  0.00  0.00     0.029 A 
ATOM      4  N1  <0> d          -1.825   2.379  -1.352  0.00  0.00    -0.270 N 
ATOM      5  N2  <0> d          -2.652   1.473  -2.029  0.00  0.00    -0.177 NA
ATOM      6  H4  <0> d          -2.186   3.791  -4.233  0.00  0.00     0.089 H 
ENDROOT
BRANCH   4   7
ATOM      7  C5  <0> d          -1.333   2.239   0.021  0.00  0.00     0.036 C 
ATOM      8  H5  <0> d          -2.059   1.678   0.610  0.00  0.00     0.074 H 
ATOM      9  H6  <0> d          -1.194   3.226   0.460  0.00  0.00     0.074 H 
BRANCH   7  10
ATOM     10  C6  <0> d          -0.018   1.503   0.010  0.00  0.00    -0.073 C 
ATOM     11  C7  <0> d           1.107   2.173   0.003  0.00  0.00    -0.118 C 
ATOM     12  H7  <0> d           1.092   3.253   0.009  0.00  0.00     0.067 H 
ATOM     13  H8  <0> d           2.050   1.646  -0.009  0.00  0.00     0.067 H 
BRANCH  10  14
ATOM     14  C8  <0> d           0.002  -0.004   0.002  0.00  0.00    -0.054 C 
ATOM     15  H9  <0> d           0.017  -0.373   1.028  0.00  0.00     0.033 H 
ATOM     16  H10 <0> d          -0.888  -0.377  -0.505  0.00  0.00     0.033 H 
ATOM     17  H11 <0> d           0.892  -0.352  -0.522  0.00  0.00     0.033 H 
ENDBRANCH  10  14
ENDBRANCH   7  10
ENDBRANCH   4   7
BRANCH   3  18
ATOM     18  C9  <0> d          -0.719   4.614  -1.874  0.00  0.00    -0.036 C 
ATOM     19  H12 <0> d           0.317   4.413  -2.146  0.00  0.00     0.035 H 
ATOM     20  H13 <0> d          -1.084   5.471  -2.440  0.00  0.00     0.035 H 
ATOM     21  H14 <0> d          -0.778   4.833  -0.807  0.00  0.00     0.035 H 
ENDBRANCH   3  18
BRANCH   1  22
ATOM     22  C1  <0> d          -3.717   1.283  -4.293  0.00  0.00    -0.034 C 
ATOM     23  H1  <0> d          -4.749   1.622  -4.201  0.00  0.00     0.035 H 
ATOM     24  H2  <0> d          -3.333   1.550  -5.277  0.00  0.00     0.035 H 
ATOM     25  H3  <0> d          -3.677   0.201  -4.169  0.00  0.00     0.035 H 
ENDBRANCH   1  22
TORSDOF 5
