REMARK  0 active torsions:
REMARK  status: ('A' for Active; 'I' for Inactive)
ROOT
ATOM      1  C1  <0> d           1.231  -0.641  -0.013  0.00  0.00    -0.065 A 
ATOM      2  C2  <0> d           0.002  -0.004   0.002  0.00  0.00    -0.064 A 
ATOM      3  C3  <0> d          -0.017   1.394   0.010  0.00  0.00     0.066 A 
ATOM      4  C4  <0> d           1.197   2.086   0.002  0.00  0.00     0.074 A 
ATOM      5  N1  <0> d           2.340   1.437  -0.013  0.00  0.00    -0.262 NA
ATOM      6  C5  <0> d           2.388   0.117  -0.020  0.00  0.00     0.003 A 
ATOM      7  C6  <0> d           0.844   3.553   0.013  0.00  0.00     0.070 A 
ATOM      8  O1  <0> d          -0.608   3.627   0.027  0.00  0.00    -0.311 OA
ATOM      9  C7  <0> d          -1.110   2.381   0.019  0.00  0.00     0.295 A 
ATOM     10  O2  <0> d          -2.293   2.108   0.023  0.00  0.00    -0.259 OA
ATOM     11  H1  <0> d           1.287  -1.720  -0.020  0.00  0.00     0.085 H 
ATOM     12  H2  <0> d          -0.917  -0.572   0.007  0.00  0.00     0.085 H 
ATOM     13  H3  <0> d           3.348  -0.378  -0.032  0.00  0.00     0.114 H 
ATOM     14  H4  <0> d           1.251   4.029   0.904  0.00  0.00     0.085 H 
ATOM     15  H5  <0> d           1.234   4.038  -0.882  0.00  0.00     0.085 H 
ENDROOT
TORSDOF 0
