REMARK  4 active torsions:
REMARK  status: ('A' for Active; 'I' for Inactive)
REMARK    1  A    between atoms: C1_1  and  C2_2 
REMARK    2  A    between atoms: C2_2  and  C3_3 
REMARK    3  A    between atoms: C3_3  and  C4_4 
REMARK    4  A    between atoms: C4_4  and  O1_10 
ROOT
ATOM      1  C4  <0> d           0.018  -2.057  -1.314  0.00  0.00     0.072 C 
ATOM      2  C5  <0> d          -1.220  -2.953  -1.388  0.00  0.00    -0.035 C 
ATOM      3  C6  <0> d          -1.223  -3.711  -2.717  0.00  0.00    -0.062 C 
ATOM      4  C7  <0> d           0.038  -4.573  -2.815  0.00  0.00    -0.065 C 
ATOM      5  C8  <0> d           1.276  -3.677  -2.741  0.00  0.00    -0.062 C 
ATOM      6  C9  <0> d           1.278  -2.919  -1.412  0.00  0.00    -0.035 C 
ATOM      7  H4  <0> d          -1.203  -3.666  -0.564  0.00  0.00     0.037 H 
ATOM      8  H5  <0> d          -2.118  -2.339  -1.319  0.00  0.00     0.037 H 
ATOM      9  H6  <0> d          -2.104  -4.350  -2.770  0.00  0.00     0.033 H 
ATOM     10  H7  <0> d          -1.240  -2.998  -3.542  0.00  0.00     0.033 H 
ATOM     11  H8  <0> d           0.055  -5.286  -1.991  0.00  0.00     0.033 H 
ATOM     12  H9  <0> d           0.036  -5.113  -3.762  0.00  0.00     0.033 H 
ATOM     13  H10 <0> d           2.173  -4.291  -2.811  0.00  0.00     0.033 H 
ATOM     14  H11 <0> d           1.258  -2.965  -3.566  0.00  0.00     0.033 H 
ATOM     15  H12 <0> d           2.160  -2.281  -1.359  0.00  0.00     0.037 H 
ATOM     16  H13 <0> d           1.295  -3.632  -0.588  0.00  0.00     0.037 H 
ENDROOT
BRANCH   1  17
ATOM     17  C3  <0> d           0.020  -1.311  -0.005  0.00  0.00     0.039 C 
ATOM     18  H3  <0> d           0.036  -1.856   0.927  0.00  0.00     0.065 H 
BRANCH  17  19
ATOM     19  C2  <0> d           0.002  -0.004   0.002  0.00  0.00    -0.173 C 
BRANCH  19  20
ATOM     20  C1  <0> d          -0.016   1.303   0.009  0.00  0.00    -0.011 C 
ATOM     21  H1  <0> d           0.912   1.855   0.003  0.00  0.00     0.051 H 
ATOM     22  H2  <0> d          -0.958   1.830   0.017  0.00  0.00     0.051 H 
ENDBRANCH  19  20
ENDBRANCH  17  19
ENDBRANCH   1  17
BRANCH   1  23
ATOM     23  O1  <0> d          -0.005  -1.123  -2.395  0.00  0.00    -0.389 OA
ATOM     24  H14 <0> d          -0.778  -0.542  -2.397  0.00  0.00     0.210 HD
ENDBRANCH   1  23
TORSDOF 4
