REMARK  4 active torsions:
REMARK  status: ('A' for Active; 'I' for Inactive)
REMARK    1  A    between atoms: C1_1  and  C2_2 
REMARK    2  A    between atoms: C3_3  and  C5_7 
REMARK    3  A    between atoms: C5_7  and  O2_9 
REMARK    4  A    between atoms: O2_9  and  C6_10 
ROOT
ATOM      1  C2  <0> d           0.002  -0.004   0.002  0.00  0.00     0.056 A 
ATOM      2  C3  <0> d           0.006  -0.722  -1.193  0.00  0.00     0.072 A 
ATOM      3  C4  <0> d           0.025  -2.100  -1.038  0.00  0.00    -0.009 A 
ATOM      4  S1  <0> d           0.036  -2.288   0.630  0.00  0.00     0.000 SA
ATOM      5  N1  <0> d           0.022  -0.688   1.112  0.00  0.00    -0.216 NA
ATOM      6  H4  <0> d           0.032  -2.863  -1.801  0.00  0.00     0.098 H 
ENDROOT
BRANCH   2   7
ATOM      7  C5  <0> d          -0.010  -0.071  -2.513  0.00  0.00     0.295 C 
ATOM      8  O1  <0> d          -0.027   1.142  -2.592  0.00  0.00    -0.259 OA
BRANCH   7   9
ATOM      9  O2  <0> d          -0.005  -0.819  -3.634  0.00  0.00    -0.322 OA
BRANCH   9  10
ATOM     10  C6  <0> d          -0.022  -0.121  -4.880  0.00  0.00     0.013 C 
ATOM     11  H5  <0> d           0.859   0.517  -4.950  0.00  0.00     0.067 H 
ATOM     12  H6  <0> d          -0.016  -0.839  -5.700  0.00  0.00     0.067 H 
ATOM     13  H7  <0> d          -0.920   0.493  -4.941  0.00  0.00     0.067 H 
ENDBRANCH   9  10
ENDBRANCH   7   9
ENDBRANCH   2   7
BRANCH   1  14
ATOM     14  C1  <0> d          -0.018   1.503   0.010  0.00  0.00    -0.034 C 
ATOM     15  H1  <0> d           1.004   1.880   0.003  0.00  0.00     0.035 H 
ATOM     16  H2  <0> d          -0.545   1.864  -0.873  0.00  0.00     0.035 H 
ATOM     17  H3  <0> d          -0.529   1.854   0.907  0.00  0.00     0.035 H 
ENDBRANCH   1  14
TORSDOF 4
