REMARK  5 active torsions:
REMARK  status: ('A' for Active; 'I' for Inactive)
REMARK    1  A    between atoms: C1_1  and  C2_2 
REMARK    2  A    between atoms: C2_2  and  C3_3 
REMARK    3  A    between atoms: C3_3  and  C4_4 
REMARK    4  A    between atoms: C4_4  and  N1_5 
REMARK    5  A    between atoms: N1_5  and  C5_6 
ROOT
ATOM      1  C4  <0> d          -1.256  -0.754   0.010  0.00  0.00    -0.007 C 
ATOM      2  H8  <0> d          -1.823  -0.503   0.907  0.00  0.00     0.063 H 
ATOM      3  H9  <0> d          -1.840  -0.493  -0.873  0.00  0.00     0.063 H 
ENDROOT
BRANCH   1   4
ATOM      4  C3  <0> d          -0.957  -2.254  -0.001  0.00  0.00    -0.051 C 
ATOM      5  H6  <0> d          -0.390  -2.505  -0.898  0.00  0.00     0.035 H 
ATOM      6  H7  <0> d          -0.373  -2.514   0.882  0.00  0.00     0.035 H 
BRANCH   4   7
ATOM      7  C2  <0> d          -2.271  -3.037   0.007  0.00  0.00    -0.067 C 
ATOM      8  H4  <0> d          -2.838  -2.786   0.904  0.00  0.00     0.032 H 
ATOM      9  H5  <0> d          -2.855  -2.777  -0.876  0.00  0.00     0.032 H 
BRANCH   7  10
ATOM     10  C1  <0> d          -1.971  -4.537  -0.004  0.00  0.00    -0.076 C 
ATOM     11  H1  <0> d          -1.388  -4.798   0.880  0.00  0.00     0.027 H 
ATOM     12  H2  <0> d          -2.908  -5.095   0.003  0.00  0.00     0.027 H 
ATOM     13  H3  <0> d          -1.405  -4.788  -0.900  0.00  0.00     0.027 H 
ENDBRANCH   7  10
ENDBRANCH   4   7
ENDBRANCH   1   4
BRANCH   1  14
ATOM     14  N1  <0> d           0.002  -0.004   0.002  0.00  0.00    -0.390 N 
ATOM     15  H10 <0> d           0.849  -0.478  -0.009  0.00  0.00     0.159 HD
BRANCH  14  16
ATOM     16  C5  <0> d          -0.017   1.393   0.010  0.00  0.00     0.027 A 
ATOM     17  C10 <0> d           1.176   2.105   0.002  0.00  0.00    -0.058 A 
ATOM     18  C9  <0> d           1.153   3.486   0.009  0.00  0.00    -0.081 A 
ATOM     19  H15 <0> d           2.119   1.580  -0.010  0.00  0.00     0.086 H 
ATOM     20  C8  <0> d          -0.054   4.159   0.024  0.00  0.00    -0.083 A 
ATOM     21  H14 <0> d           2.080   4.040   0.004  0.00  0.00     0.083 H 
ATOM     22  C7  <0> d          -1.243   3.453   0.031  0.00  0.00    -0.081 A 
ATOM     23  H13 <0> d          -0.069   5.239   0.029  0.00  0.00     0.083 H 
ATOM     24  C6  <0> d          -1.228   2.072   0.019  0.00  0.00    -0.058 A 
ATOM     25  H12 <0> d          -2.185   3.982   0.042  0.00  0.00     0.083 H 
ATOM     26  H11 <0> d          -2.157   1.521   0.021  0.00  0.00     0.086 H 
ENDBRANCH  14  16
ENDBRANCH   1  14
TORSDOF 5
