REMARK  3 active torsions:
REMARK  status: ('A' for Active; 'I' for Inactive)
REMARK    1  A    between atoms: C1_1  and  C2_2 
REMARK    2  A    between atoms: C2_2  and  C6_11 
REMARK    3  A    between atoms: C4_5  and  C5_8 
ROOT
ATOM      1  C2  <0> d           0.002  -0.004   0.002  0.00  0.00     0.158 C 
ATOM      2  O1  <0> d           0.687  -0.471  -1.172  0.00  0.00    -0.353 OA
ATOM      3  C3  <0> d           2.048  -0.708  -0.737  0.00  0.00     0.057 C 
ATOM      4  C4  <0> d           1.831  -1.242   0.701  0.00  0.00     0.145 C 
ATOM      5  H1  <0> d           1.601  -2.307   0.685  0.00  0.00     0.104 H 
ATOM      6  O2  <0> d           0.695  -0.483   1.162  0.00  0.00    -0.338 OA
ATOM      7  H5  <0> d           2.533  -1.457  -1.363  0.00  0.00     0.079 H 
ATOM      8  H6  <0> d           2.621   0.220  -0.727  0.00  0.00     0.079 H 
ENDROOT
BRANCH   1   9
ATOM      9  C1  <0> d          -0.019   1.526   0.010  0.00  0.00    -0.026 C 
ATOM     10  H2  <0> d           1.004   1.903   0.003  0.00  0.00     0.035 H 
ATOM     11  H3  <0> d          -0.546   1.887  -0.873  0.00  0.00     0.035 H 
ATOM     12  H4  <0> d          -0.529   1.877   0.907  0.00  0.00     0.035 H 
ENDBRANCH   1   9
BRANCH   1  13
ATOM     13  C6  <0> d          -1.432  -0.537   0.003  0.00  0.00    -0.026 C 
ATOM     14  H7  <0> d          -1.958  -0.168  -0.877  0.00  0.00     0.035 H 
ATOM     15  H8  <0> d          -1.414  -1.627  -0.016  0.00  0.00     0.035 H 
ATOM     16  H9  <0> d          -1.945  -0.198   0.902  0.00  0.00     0.035 H 
ENDBRANCH   1  13
BRANCH   4  17
ATOM     17  C5  <0> d           3.040  -0.972   1.558  0.00  0.00     0.205 C 
ATOM     18  O3  <0> d           2.957  -0.213   2.509  0.00  0.00    -0.646 OA
ATOM     19  O4  <0> d           4.103  -1.511   1.300  0.00  0.00    -0.646 OA
ENDBRANCH   4  17
TORSDOF 3
