REMARK  2 active torsions:
REMARK  status: ('A' for Active; 'I' for Inactive)
REMARK    1  A    between atoms: C3_3  and  C5_7 
REMARK    2  A    between atoms: C5_7  and  N1_8 
REMARK       I    between atoms: N1_8  and  C6_9 
REMARK       I    between atoms: C6_9  and  N2_11 
ROOT
ATOM      1  C1  <0> d          -6.835   0.880  -1.249  0.00  0.00    -0.043 C 
ATOM      2  C2  <0> d          -6.123   1.382   0.031  0.00  0.00    -0.037 C 
ATOM      3  C3  <0> d          -4.773   0.639   0.028  0.00  0.00     0.053 C 
ATOM      4  H1  <0> d          -4.702  -0.003   0.906  0.00  0.00     0.085 H 
ATOM      5  O1  <0> d          -4.723  -0.158  -1.167  0.00  0.00    -0.384 OA
ATOM      6  C4  <0> d          -6.090  -0.449  -1.535  0.00  0.00     0.020 C 
ATOM      7  H2  <0> d          -7.893   0.701  -1.061  0.00  0.00     0.036 H 
ATOM      8  H3  <0> d          -6.702   1.585  -2.070  0.00  0.00     0.036 H 
ATOM      9  H4  <0> d          -6.702   1.119   0.917  0.00  0.00     0.036 H 
ATOM     10  H5  <0> d          -5.966   2.460  -0.017  0.00  0.00     0.036 H 
ATOM     11  H6  <0> d          -6.490  -1.253  -0.916  0.00  0.00     0.074 H 
ATOM     12  H7  <0> d          -6.160  -0.708  -2.591  0.00  0.00     0.074 H 
ENDROOT
BRANCH   3  13
ATOM     13  C5  <0> d          -3.624   1.649   0.028  0.00  0.00     0.021 C 
ATOM     14  H8  <0> d          -3.686   2.270   0.922  0.00  0.00     0.068 H 
ATOM     15  H9  <0> d          -3.694   2.280  -0.858  0.00  0.00     0.068 H 
BRANCH  13  16
ATOM     16  N1  <0> d          -2.345   0.934   0.018  0.00  0.00    -0.341 N 
ATOM     17  C6  <0> d          -1.187   1.624   0.017  0.00  0.00     0.313 C 
ATOM     18  O2  <0> d          -1.204   2.840   0.023  0.00  0.00    -0.248 OA
ATOM     19  N2  <0> d          -0.011   0.966   0.007  0.00  0.00    -0.352 N 
ATOM     20  H11 <0> d           0.002  -0.004   0.002  0.00  0.00     0.160 HD
ATOM     21  H12 <0> d           0.822   1.462   0.002  0.00  0.00     0.160 HD
ATOM     22  H10 <0> d          -2.332  -0.036   0.013  0.00  0.00     0.164 HD
ENDBRANCH  13  16
ENDBRANCH   3  13
TORSDOF 2
