REMARK  4 active torsions:
REMARK  status: ('A' for Active; 'I' for Inactive)
REMARK    1  A    between atoms: C1_1  and  C2_2 
REMARK    2  A    between atoms: C3_3  and  C5_8 
REMARK    3  A    between atoms: C5_8  and  C6_9 
REMARK    4  A    between atoms: C6_9  and  C8_11 
ROOT
ATOM      1  C2  <0> d           0.002  -0.004   0.002  0.00  0.00     0.061 A 
ATOM      2  C3  <0> d           0.008  -0.817  -1.136  0.00  0.00     0.027 A 
ATOM      3  C4  <0> d           0.027  -2.112  -0.722  0.00  0.00     0.203 A 
ATOM      4  N1  <0> d           0.034  -2.110   0.629  0.00  0.00    -0.254 N 
ATOM      5  N2  <0> d           0.023  -0.776   1.058  0.00  0.00    -0.177 NA
ATOM      6  O1  <0> d           0.038  -3.209  -1.522  0.00  0.00    -0.170 OA
ATOM      7  H4  <0> d           0.047  -2.893   1.201  0.00  0.00     0.191 HD
ENDROOT
BRANCH   2   8
ATOM      8  C5  <0> d          -0.005  -0.342  -2.566  0.00  0.00    -0.015 C 
ATOM      9  H5  <0> d          -0.512  -1.079  -3.189  0.00  0.00     0.047 H 
ATOM     10  H6  <0> d          -0.533   0.610  -2.628  0.00  0.00     0.047 H 
BRANCH   8  11
ATOM     11  C6  <0> d           1.411  -0.164  -3.049  0.00  0.00    -0.089 C 
ATOM     12  C7  <0> d           2.006  -1.130  -3.704  0.00  0.00    -0.119 C 
ATOM     13  H7  <0> d           3.021  -1.003  -4.050  0.00  0.00     0.067 H 
ATOM     14  H8  <0> d           1.481  -2.054  -3.897  0.00  0.00     0.067 H 
BRANCH  11  15
ATOM     15  C8  <0> d           2.143   1.126  -2.780  0.00  0.00    -0.055 C 
ATOM     16  H9  <0> d           1.492   1.804  -2.228  0.00  0.00     0.033 H 
ATOM     17  H10 <0> d           3.036   0.920  -2.191  0.00  0.00     0.033 H 
ATOM     18  H11 <0> d           2.429   1.586  -3.725  0.00  0.00     0.033 H 
ENDBRANCH  11  15
ENDBRANCH   8  11
ENDBRANCH   2   8
BRANCH   1  19
ATOM     19  C1  <0> d          -0.018   1.503   0.010  0.00  0.00    -0.033 C 
ATOM     20  H1  <0> d           1.004   1.880   0.003  0.00  0.00     0.035 H 
ATOM     21  H2  <0> d          -0.545   1.864  -0.873  0.00  0.00     0.035 H 
ATOM     22  H3  <0> d          -0.529   1.854   0.907  0.00  0.00     0.035 H 
ENDBRANCH   1  19
TORSDOF 4
