REMARK  3 active torsions:
REMARK  status: ('A' for Active; 'I' for Inactive)
REMARK    1  A    between atoms: C1_1  and  O1_2 
REMARK    2  A    between atoms: O1_2  and  C2_3 
REMARK    3  A    between atoms: C2_3  and  C3_5 
ROOT
ATOM      1  C3  <0> d           0.657  -2.104  -1.120  0.00  0.00     0.215 C 
ATOM      2  H1  <0> d           0.861  -2.510  -0.129  0.00  0.00     0.104 H 
ATOM      3  C4  <0> d          -0.683  -2.641  -1.626  0.00  0.00    -0.027 C 
ATOM      4  C5  <0> d          -0.611  -4.168  -1.722  0.00  0.00    -0.061 C 
ATOM      5  C6  <0> d           0.542  -4.560  -2.650  0.00  0.00    -0.040 C 
ATOM      6  C7  <0> d           1.846  -3.966  -2.114  0.00  0.00     0.112 C 
ATOM      7  N1  <0> d           1.727  -2.505  -2.042  0.00  0.00     0.097 N 
ATOM      8  H5  <0> d          -1.474  -2.357  -0.933  0.00  0.00     0.036 H 
ATOM      9  H6  <0> d          -0.893  -2.224  -2.611  0.00  0.00     0.036 H 
ATOM     10  H7  <0> d          -0.439  -4.587  -0.731  0.00  0.00     0.033 H 
ATOM     11  H8  <0> d          -1.549  -4.552  -2.123  0.00  0.00     0.033 H 
ATOM     12  H9  <0> d           0.625  -5.646  -2.689  0.00  0.00     0.035 H 
ATOM     13  H10 <0> d           0.350  -4.173  -3.651  0.00  0.00     0.035 H 
ATOM     14  H11 <0> d           2.044  -4.364  -1.119  0.00  0.00     0.079 H 
ATOM     15  H12 <0> d           2.667  -4.232  -2.781  0.00  0.00     0.079 H 
ATOM     16  H13 <0> d           1.582  -2.108  -2.959  0.00  0.00     0.317 HD
ENDROOT
BRANCH   1  17
ATOM     17  C2  <0> d           0.598  -0.600  -1.043  0.00  0.00     0.292 C 
ATOM     18  O2  <0> d           1.088   0.070  -1.921  0.00  0.00    -0.263 OA
BRANCH  17  19
ATOM     19  O1  <0> d           0.002  -0.004   0.002  0.00  0.00    -0.325 OA
BRANCH  19  20
ATOM     20  C1  <0> d          -0.017   1.425   0.010  0.00  0.00     0.013 C 
ATOM     21  H2  <0> d           1.005   1.802   0.002  0.00  0.00     0.067 H 
ATOM     22  H3  <0> d          -0.544   1.786  -0.873  0.00  0.00     0.067 H 
ATOM     23  H4  <0> d          -0.527   1.776   0.907  0.00  0.00     0.067 H 
ENDBRANCH  19  20
ENDBRANCH  17  19
ENDBRANCH   1  17
TORSDOF 3
