REMARK  1 active torsions:
REMARK  status: ('A' for Active; 'I' for Inactive)
REMARK    1  A    between atoms: C1_1  and  C2_2 
REMARK       I    between atoms: C2_2  and  N1_4 
ROOT
ATOM      1  C2  <0> d           0.002  -0.004   0.002  0.00  0.00     0.215 C 
ATOM      2  O1  <0> d           1.060  -0.596  -0.011  0.00  0.00    -0.274 OA
ATOM      3  N1  <0> d          -1.156  -0.694   0.009  0.00  0.00    -0.352 N 
ATOM      4  C3  <0> d          -2.588  -0.359   0.018  0.00  0.00    -0.001 C 
ATOM      5  C4  <0> d          -2.842  -1.701   0.719  0.00  0.00    -0.035 C 
ATOM      6  C5  <0> d          -1.543  -2.112   0.005  0.00  0.00    -0.001 C 
ATOM      7  H4  <0> d          -2.828   0.506   0.637  0.00  0.00     0.064 H 
ATOM      8  H5  <0> d          -3.026  -0.299  -0.978  0.00  0.00     0.064 H 
ATOM      9  H6  <0> d          -2.765  -1.660   1.805  0.00  0.00     0.037 H 
ATOM     10  H7  <0> d          -3.729  -2.228   0.367  0.00  0.00     0.037 H 
ATOM     11  H8  <0> d          -1.706  -2.515  -0.994  0.00  0.00     0.064 H 
ATOM     12  H9  <0> d          -0.893  -2.742   0.613  0.00  0.00     0.064 H 
ENDROOT
BRANCH   1  13
ATOM     13  C1  <0> d          -0.018   1.503   0.010  0.00  0.00    -0.003 C 
ATOM     14  H1  <0> d           1.004   1.880   0.003  0.00  0.00     0.040 H 
ATOM     15  H2  <0> d          -0.545   1.864  -0.873  0.00  0.00     0.040 H 
ATOM     16  H3  <0> d          -0.529   1.854   0.907  0.00  0.00     0.040 H 
ENDBRANCH   1  13
TORSDOF 1
