REMARK  0 active torsions:
REMARK  status: ('A' for Active; 'I' for Inactive)
ROOT
ATOM      1  C1  <0> d          -0.013   1.076   0.008  0.00  0.00     0.053 A 
ATOM      2  C2  <0> d           1.120   1.833   0.001  0.00  0.00     0.114 A 
ATOM      3  S1  <0> d           0.451   3.431   0.016  0.00  0.00     0.048 SA
ATOM      4  N1  <0> d          -1.084   3.062   0.029  0.00  0.00    -0.110 NA
ATOM      5  N2  <0> d          -1.126   1.778   0.017  0.00  0.00    -0.153 NA
ATOM      6 Cl1  <0> d           2.782   1.333  -0.018  0.00  0.00    -0.073 Cl
ATOM      7  H1  <0> d           0.002  -0.004   0.002  0.00  0.00     0.121 H 
ENDROOT
TORSDOF 0
