REMARK  3 active torsions:
REMARK  status: ('A' for Active; 'I' for Inactive)
REMARK    1  A    between atoms: C1_1  and  N1_2 
REMARK    2  A    between atoms: N1_2  and  C2_3 
REMARK    3  A    between atoms: N1_2  and  C3_4 
ROOT
ATOM      1  C3  <0> d           3.111   2.416  -1.159  0.00  0.00     0.130 A 
ATOM      2  C4  <0> d           1.847   1.833  -1.203  0.00  0.00     0.013 A 
ATOM      3  C5  <0> d           1.220   1.531  -0.001  0.00  0.00     0.183 A 
ATOM      4  N2  <0> d           1.841   1.812   1.141  0.00  0.00    -0.329 N 
ATOM      5  C6  <0> d           3.039   2.360   1.143  0.00  0.00     0.068 A 
ATOM      6  N3  <0> d           3.668   2.662   0.025  0.00  0.00    -0.226 NA
ATOM      7  O1  <0> d          -0.011   0.963   0.007  0.00  0.00    -0.172 OA
ATOM      8  H7  <0> d           1.415   1.641  -2.084  0.00  0.00     0.096 H 
ATOM      9  H8  <0> d           3.470   2.546   2.025  0.00  0.00     0.143 H 
ATOM     10  H9  <0> d           1.341   1.581   2.093  0.00  0.00     0.168 HD
ENDROOT
BRANCH   1  11
ATOM     11  N1  <0> d           3.779   2.736  -2.330  0.00  0.00    -0.374 N 
BRANCH  11  12
ATOM     12  C1  <0> d           3.114   2.563  -3.624  0.00  0.00    -0.018 C 
ATOM     13  H1  <0> d           2.098   2.173  -3.464  0.00  0.00     0.056 H 
ATOM     14  H2  <0> d           3.687   1.854  -4.239  0.00  0.00     0.056 H 
ATOM     15  H3  <0> d           3.057   3.534  -4.139  0.00  0.00     0.056 H 
ENDBRANCH  11  12
BRANCH  11  16
ATOM     16  C2  <0> d           5.151   3.248  -2.275  0.00  0.00    -0.018 C 
ATOM     17  H4  <0> d           5.478   3.308  -1.226  0.00  0.00     0.056 H 
ATOM     18  H5  <0> d           5.188   4.249  -2.728  0.00  0.00     0.056 H 
ATOM     19  H6  <0> d           5.818   2.570  -2.828  0.00  0.00     0.056 H 
ENDBRANCH  11  16
ENDBRANCH   1  11
TORSDOF 3
