REMARK  5 active torsions:
REMARK  status: ('A' for Active; 'I' for Inactive)
REMARK    1  A    between atoms: C1_1  and  C2_2 
REMARK    2  A    between atoms: C2_2  and  C3_3 
REMARK    3  A    between atoms: C2_2  and  C4_4 
REMARK    4  A    between atoms: C2_2  and  C6_8 
REMARK    5  A    between atoms: C4_4  and  C5_5 
REMARK       I    between atoms: C5_5  and  N1_7 
ROOT
ATOM      1  C2  <0> d          -2.479   0.934   0.019  0.00  0.00     0.049 C 
ENDROOT
BRANCH   1   2
ATOM      2  C1  <0> d          -2.392   0.063  -1.236  0.00  0.00    -0.059 C 
ATOM      3  H1  <0> d          -1.441  -0.469  -1.243  0.00  0.00     0.029 H 
ATOM      4  H2  <0> d          -3.211  -0.657  -1.236  0.00  0.00     0.029 H 
ATOM      5  H3  <0> d          -2.462   0.693  -2.122  0.00  0.00     0.029 H 
ENDBRANCH   1   2
BRANCH   1   6
ATOM      6  C3  <0> d          -2.380   0.049   1.263  0.00  0.00    -0.059 C 
ATOM      7  H4  <0> d          -2.442   0.670   2.156  0.00  0.00     0.029 H 
ATOM      8  H5  <0> d          -3.199  -0.670   1.263  0.00  0.00     0.029 H 
ATOM      9  H6  <0> d          -1.429  -0.483   1.256  0.00  0.00     0.029 H 
ENDBRANCH   1   6
BRANCH   1  10
ATOM     10  C4  <0> d          -1.330   1.944   0.019  0.00  0.00     0.025 C 
ATOM     11  H7  <0> d          -1.392   2.565   0.913  0.00  0.00     0.049 H 
ATOM     12  H8  <0> d          -1.400   2.575  -0.867  0.00  0.00     0.049 H 
BRANCH  10  13
ATOM     13  C5  <0> d          -0.014   1.209   0.009  0.00  0.00     0.216 C 
ATOM     14  O1  <0> d           0.002  -0.004   0.002  0.00  0.00    -0.274 OA
ATOM     15  N1  <0> d           1.143   1.898   0.001  0.00  0.00    -0.370 N 
ATOM     16  H9  <0> d           1.990   1.425  -0.009  0.00  0.00     0.159 HD
ATOM     17  H10 <0> d           1.130   2.868   0.007  0.00  0.00     0.159 HD
ENDBRANCH  10  13
ENDBRANCH   1  10
BRANCH   1  18
ATOM     18  C6  <0> d          -3.794   1.670   0.029  0.00  0.00     0.181 C 
ATOM     19  O2  <0> d          -3.811   2.878   0.036  0.00  0.00    -0.647 OA
ATOM     20  O3  <0> d          -4.947   0.983   0.031  0.00  0.00    -0.647 OA
ENDBRANCH   1  18
TORSDOF 5
