REMARK  0 active torsions:
REMARK  status: ('A' for Active; 'I' for Inactive)
ROOT
ATOM      1  C1  <0> d          -0.765   1.599  -1.226  0.00  0.00    -0.055 C 
ATOM      2  C2  <0> d          -2.243   1.215  -1.104  0.00  0.00    -0.044 C 
ATOM      3  C3  <0> d          -2.828   1.847   0.162  0.00  0.00     0.029 C 
ATOM      4  O1  <0> d          -2.067   1.397   1.317  0.00  0.00    -0.321 OA
ATOM      5  C4  <0> d          -0.731   1.579   1.245  0.00  0.00     0.258 C 
ATOM      6  O2  <0> d          -0.127   2.119   2.141  0.00  0.00    -0.265 OA
ATOM      7  C5  <0> d          -0.013   1.086   0.008  0.00  0.00     0.016 C 
ATOM      8  H1  <0> d          -0.669   2.693  -1.285  0.00  0.00     0.033 H 
ATOM      9  H2  <0> d          -0.337   1.144  -2.132  0.00  0.00     0.033 H 
ATOM     10  H3  <0> d          -2.790   1.580  -1.985  0.00  0.00     0.036 H 
ATOM     11  H4  <0> d          -2.333   0.120  -1.044  0.00  0.00     0.036 H 
ATOM     12  H5  <0> d          -2.770   2.943   0.085  0.00  0.00     0.075 H 
ATOM     13  H6  <0> d          -3.880   1.543   0.271  0.00  0.00     0.075 H 
ATOM     14  H7  <0> d           0.004  -0.014  -0.004  0.00  0.00     0.048 H 
ATOM     15  H8  <0> d           1.018   1.468  -0.006  0.00  0.00     0.048 H 
ENDROOT
TORSDOF 0
