REMARK  0 active torsions:
REMARK  status: ('A' for Active; 'I' for Inactive)
ROOT
ATOM      1  C1  <0> d          -0.013   1.076   0.008  0.00  0.00     0.003 A 
ATOM      2  C2  <0> d           1.188   1.814   0.001  0.00  0.00     0.161 A 
ATOM      3  N1  <0> d           2.469   1.500  -0.012  0.00  0.00    -0.130 NA
ATOM      4  N2  <0> d           3.176   2.576  -0.013  0.00  0.00    -0.143 NA
ATOM      5  C3  <0> d           2.401   3.630  -0.001  0.00  0.00     0.094 A 
ATOM      6  N3  <0> d           1.113   3.190   0.008  0.00  0.00    -0.281 N 
ATOM      7  C4  <0> d          -0.102   3.796   0.022  0.00  0.00     0.074 A 
ATOM      8  N4  <0> d          -1.202   3.095   0.028  0.00  0.00    -0.231 NA
ATOM      9  C5  <0> d          -1.191   1.757   0.017  0.00  0.00     0.131 A 
ATOM     10 Cl1  <0> d          -2.691   0.883   0.020  0.00  0.00    -0.062 Cl
ATOM     11  H1  <0> d           0.002  -0.004   0.002  0.00  0.00     0.094 H 
ATOM     12  H2  <0> d           2.724   4.660   0.001  0.00  0.00     0.147 H 
ATOM     13  H3  <0> d          -0.159   4.874   0.028  0.00  0.00     0.144 H 
ENDROOT
TORSDOF 0
