REMARK  2 active torsions:
REMARK  status: ('A' for Active; 'I' for Inactive)
REMARK    1  A    between atoms: C1_1  and  C2_2 
REMARK    2  A    between atoms: C2_2  and  C3_3 
ROOT
ATOM      1  C3  <0> d           0.728  -0.396   1.291  0.00  0.00    -0.028 C 
ATOM      2  H1  <0> d           0.219   0.030   2.155  0.00  0.00     0.047 H 
ATOM      3  C4  <0> d           0.803  -1.932   1.417  0.00  0.00    -0.054 C 
ATOM      4  C5  <0> d           2.172  -2.142   2.098  0.00  0.00    -0.040 C 
ATOM      5  C6  <0> d           2.998  -0.934   1.709  0.00  0.00    -0.051 A 
ATOM      6  C7  <0> d           2.167   0.071   1.246  0.00  0.00    -0.048 A 
ATOM      7  C8  <0> d           2.706   1.278   0.833  0.00  0.00    -0.076 A 
ATOM      8  C9  <0> d           4.071   1.483   0.883  0.00  0.00    -0.082 A 
ATOM      9  C10 <0> d           4.903   0.480   1.346  0.00  0.00    -0.082 A 
ATOM     10  C11 <0> d           4.366  -0.730   1.757  0.00  0.00    -0.076 A 
ATOM     11  H7  <0> d          -0.004  -2.310   2.045  0.00  0.00     0.034 H 
ATOM     12  H8  <0> d           0.784  -2.403   0.434  0.00  0.00     0.034 H 
ATOM     13  H9  <0> d           2.053  -2.186   3.181  0.00  0.00     0.040 H 
ATOM     14  H10 <0> d           2.642  -3.055   1.731  0.00  0.00     0.040 H 
ATOM     15  H11 <0> d           2.057   2.062   0.471  0.00  0.00     0.084 H 
ATOM     16  H12 <0> d           4.489   2.425   0.560  0.00  0.00     0.083 H 
ATOM     17  H13 <0> d           5.970   0.639   1.386  0.00  0.00     0.083 H 
ATOM     18  H14 <0> d           5.015  -1.513   2.119  0.00  0.00     0.084 H 
ENDROOT
BRANCH   1  19
ATOM     19  C2  <0> d           0.002  -0.004   0.002  0.00  0.00    -0.061 C 
ATOM     20  H5  <0> d           0.439  -0.542  -0.839  0.00  0.00     0.033 H 
ATOM     21  H6  <0> d           0.104   1.069  -0.160  0.00  0.00     0.033 H 
BRANCH  19  22
ATOM     22  C1  <0> d          -1.480  -0.363   0.122  0.00  0.00    -0.076 C 
ATOM     23  H2  <0> d          -1.895   0.099   1.018  0.00  0.00     0.027 H 
ATOM     24  H3  <0> d          -2.014  -0.000  -0.756  0.00  0.00     0.027 H 
ATOM     25  H4  <0> d          -1.587  -1.446   0.190  0.00  0.00     0.027 H 
ENDBRANCH  19  22
ENDBRANCH   1  19
TORSDOF 2
