REMARK  0 active torsions:
REMARK  status: ('A' for Active; 'I' for Inactive)
ROOT
ATOM      1  C1  <0> d          -2.528   2.779  -2.984  0.00  0.00    -0.079 A 
ATOM      2  C2  <0> d          -2.743   2.926  -1.630  0.00  0.00    -0.057 A 
ATOM      3  C3  <0> d          -1.872   2.339  -0.710  0.00  0.00     0.036 A 
ATOM      4  C4  <0> d          -0.790   1.609  -1.179  0.00  0.00    -0.009 A 
ATOM      5  C5  <0> d          -0.578   1.465  -2.537  0.00  0.00     0.042 A 
ATOM      6  C6  <0> d          -1.446   2.050  -3.442  0.00  0.00    -0.061 A 
ATOM      7 Cl1  <0> d           0.782   0.549  -3.109  0.00  0.00    -0.084 Cl
ATOM      8  C7  <0> d          -0.013   1.086   0.008  0.00  0.00    -0.023 A 
ATOM      9  C8  <0> d          -0.780   1.605   1.235  0.00  0.00    -0.004 A 
ATOM     10  N1  <0> d          -1.909   2.365   0.685  0.00  0.00    -0.389 N 
ATOM     11  H1  <0> d          -3.206   3.236  -3.689  0.00  0.00     0.083 H 
ATOM     12  H2  <0> d          -3.590   3.497  -1.279  0.00  0.00     0.086 H 
ATOM     13  H3  <0> d          -1.280   1.937  -4.503  0.00  0.00     0.086 H 
ATOM     14  H4  <0> d           0.002  -0.004   0.002  0.00  0.00     0.042 H 
ATOM     15  H5  <0> d           1.004   1.479   0.000  0.00  0.00     0.042 H 
ATOM     16  H6  <0> d          -1.141   0.771   1.836  0.00  0.00     0.064 H 
ATOM     17  H7  <0> d          -0.141   2.255   1.833  0.00  0.00     0.064 H 
ATOM     18  H8  <0> d          -2.584   2.819   1.214  0.00  0.00     0.159 HD
ENDROOT
TORSDOF 0
