REMARK  2 active torsions:
REMARK  status: ('A' for Active; 'I' for Inactive)
REMARK    1  A    between atoms: C1_1  and  C2_2 
REMARK    2  A    between atoms: C2_2  and  C3_3 
ROOT
ATOM      1  C3  <0> d          -1.266   2.058   0.019  0.00  0.00     0.025 C 
ATOM      2  H1  <0> d          -1.983   1.672   0.743  0.00  0.00     0.054 H 
ATOM      3  C4  <0> d          -0.768   3.460   0.446  0.00  0.00    -0.039 C 
ATOM      4  C5  <0> d           0.711   3.415   0.003  0.00  0.00    -0.004 C 
ATOM      5  N1  <0> d           1.077   1.993   0.003  0.00  0.00    -0.361 N 
ATOM      6  C6  <0> d          -0.014   1.209   0.009  0.00  0.00     0.221 C 
ATOM      7  O1  <0> d           0.002  -0.004   0.002  0.00  0.00    -0.273 OA
ATOM      8  H7  <0> d          -0.848   3.594   1.525  0.00  0.00     0.036 H 
ATOM      9  H8  <0> d          -1.310   4.243  -0.084  0.00  0.00     0.036 H 
ATOM     10  H9  <0> d           1.334   3.964   0.710  0.00  0.00     0.064 H 
ATOM     11  H10 <0> d           0.820   3.833  -0.998  0.00  0.00     0.064 H 
ATOM     12  H11 <0> d           1.989   1.663  -0.002  0.00  0.00     0.162 HD
ENDROOT
BRANCH   1  13
ATOM     13  C2  <0> d          -1.889   2.111  -1.378  0.00  0.00    -0.057 C 
ATOM     14  H5  <0> d          -2.720   2.816  -1.379  0.00  0.00     0.033 H 
ATOM     15  H6  <0> d          -1.138   2.433  -2.099  0.00  0.00     0.033 H 
BRANCH  13  16
ATOM     16  C1  <0> d          -2.399   0.720  -1.761  0.00  0.00    -0.076 C 
ATOM     17  H2  <0> d          -1.568   0.015  -1.760  0.00  0.00     0.027 H 
ATOM     18  H3  <0> d          -3.150   0.397  -1.041  0.00  0.00     0.027 H 
ATOM     19  H4  <0> d          -2.842   0.757  -2.756  0.00  0.00     0.027 H 
ENDBRANCH  13  16
ENDBRANCH   1  13
TORSDOF 2
