REMARK  2 active torsions:
REMARK  status: ('A' for Active; 'I' for Inactive)
REMARK    1  A    between atoms: C1_1  and  C2_2 
REMARK    2  A    between atoms: C2_2  and  C3_4 
ROOT
ATOM      1  C3  <0> d          -1.262  -0.757   0.010  0.00  0.00     0.009 A 
ATOM      2  C4  <0> d          -2.485  -0.078   0.019  0.00  0.00    -0.070 A 
ATOM      3  C5  <0> d          -3.665  -0.791   0.026  0.00  0.00    -0.082 A 
ATOM      4  C6  <0> d          -3.642  -2.175   0.024  0.00  0.00    -0.083 A 
ATOM      5  C7  <0> d          -2.436  -2.854   0.015  0.00  0.00    -0.082 A 
ATOM      6  C8  <0> d          -1.248  -2.156   0.002  0.00  0.00    -0.070 A 
ATOM      7  H4  <0> d          -2.504   1.002   0.022  0.00  0.00     0.085 H 
ATOM      8  H5  <0> d          -4.610  -0.268   0.034  0.00  0.00     0.083 H 
ATOM      9  H6  <0> d          -4.570  -2.727   0.030  0.00  0.00     0.083 H 
ATOM     10  H7  <0> d          -2.427  -3.934   0.014  0.00  0.00     0.083 H 
ATOM     11  H8  <0> d          -0.307  -2.687  -0.009  0.00  0.00     0.085 H 
ENDROOT
BRANCH   1  12
ATOM     12  C2  <0> d           0.002  -0.004   0.002  0.00  0.00     0.155 C 
ATOM     13  O1  <0> d           1.060  -0.596  -0.011  0.00  0.00    -0.293 OA
BRANCH  12  14
ATOM     14  C1  <0> d          -0.018   1.503   0.010  0.00  0.00    -0.017 C 
ATOM     15  H1  <0> d           1.004   1.880   0.003  0.00  0.00     0.038 H 
ATOM     16  H2  <0> d          -0.545   1.864  -0.873  0.00  0.00     0.038 H 
ATOM     17  H3  <0> d          -0.529   1.854   0.907  0.00  0.00     0.038 H 
ENDBRANCH  12  14
ENDBRANCH   1  12
TORSDOF 2
