REMARK  1 active torsions:
REMARK  status: ('A' for Active; 'I' for Inactive)
REMARK    1  A    between atoms: C6_7  and  C8_10 
ROOT
ATOM      1  C1  <0> d          -0.018   1.499   0.010  0.00  0.00    -0.064 C 
ATOM      2  C2  <0> d           1.427   2.053  -0.001  0.00  0.00    -0.059 C 
ATOM      3  C3  <0> d           2.343   1.181   0.893  0.00  0.00    -0.010 C 
ATOM      4  C4  <0> d           1.773   0.737   2.183  0.00  0.00     0.127 C 
ATOM      5  O1  <0> d           1.911   1.405   3.179  0.00  0.00    -0.298 OA
ATOM      6  C5  <0> d           0.996  -0.599   2.234  0.00  0.00     0.003 C 
ATOM      7  C6  <0> d          -0.227  -0.403   1.454  0.00  0.00     0.037 C 
ATOM      8  H1  <0> d          -0.823   0.374   1.934  0.00  0.00     0.057 H 
ATOM      9  C7  <0> d           0.002  -0.004   0.002  0.00  0.00    -0.052 C 
ATOM     10  H2  <0> d          -0.532   1.849   0.906  0.00  0.00     0.033 H 
ATOM     11  H3  <0> d          -0.549   1.858  -0.872  0.00  0.00     0.033 H 
ATOM     12  H4  <0> d           1.808   2.047  -1.022  0.00  0.00     0.033 H 
ATOM     13  H5  <0> d           1.425   3.076   0.375  0.00  0.00     0.033 H 
ATOM     14  H6  <0> d           2.624   0.294   0.325  0.00  0.00     0.044 H 
ATOM     15  H7  <0> d           3.250   1.747   1.101  0.00  0.00     0.044 H 
ATOM     16  H8  <0> d           1.595  -1.396   1.794  0.00  0.00     0.045 H 
ATOM     17  H9  <0> d           0.744  -0.846   3.266  0.00  0.00     0.045 H 
ATOM     18  H10 <0> d          -0.798  -0.391  -0.629  0.00  0.00     0.034 H 
ATOM     19  H11 <0> d           0.970  -0.369  -0.343  0.00  0.00     0.034 H 
ENDROOT
BRANCH   7  20
ATOM     20  C8  <0> d          -1.017  -1.686   1.473  0.00  0.00     0.177 C 
ATOM     21  O2  <0> d          -1.399  -2.151   2.533  0.00  0.00    -0.648 OA
ATOM     22  O3  <0> d          -1.272  -2.261   0.428  0.00  0.00    -0.648 OA
ENDBRANCH   7  20
TORSDOF 1
