REMARK  4 active torsions:
REMARK  status: ('A' for Active; 'I' for Inactive)
REMARK    1  A    between atoms: C1_1  and  O1_2 
REMARK    2  A    between atoms: O1_2  and  C2_3 
REMARK    3  A    between atoms: C7_8  and  O2_9 
REMARK    4  A    between atoms: O2_9  and  C8_10 
ROOT
ATOM      1  C2  <0> d           2.400   0.023  -0.021  0.00  0.00     0.104 A 
ATOM      2  C3  <0> d           1.206  -0.682  -0.013  0.00  0.00    -0.048 A 
ATOM      3  C4  <0> d           0.002  -0.004   0.002  0.00  0.00    -0.077 A 
ATOM      4  C5  <0> d          -0.017   1.378   0.010  0.00  0.00    -0.043 A 
ATOM      5  C6  <0> d           1.171   2.089   0.002  0.00  0.00     0.152 A 
ATOM      6  C7  <0> d           2.383   1.414  -0.013  0.00  0.00     0.140 A 
ATOM      7  F1  <0> d           1.150   3.440   0.009  0.00  0.00    -0.203 F 
ATOM      8  H4  <0> d           1.218  -1.762  -0.018  0.00  0.00     0.087 H 
ATOM      9  H5  <0> d          -0.926  -0.555   0.008  0.00  0.00     0.083 H 
ATOM     10  H6  <0> d          -0.960   1.905   0.017  0.00  0.00     0.088 H 
ENDROOT
BRANCH   1  11
ATOM     11  O1  <0> d           3.585  -0.644  -0.035  0.00  0.00    -0.353 OA
BRANCH  11  12
ATOM     12  C1  <0> d           3.526  -2.071  -0.041  0.00  0.00     0.010 C 
ATOM     13  H1  <0> d           3.006  -2.417   0.852  0.00  0.00     0.066 H 
ATOM     14  H2  <0> d           2.989  -2.409  -0.928  0.00  0.00     0.066 H 
ATOM     15  H3  <0> d           4.538  -2.477  -0.053  0.00  0.00     0.066 H 
ENDBRANCH  11  12
ENDBRANCH   1  11
BRANCH   6  16
ATOM     16  O2  <0> d           3.552   2.110  -0.021  0.00  0.00    -0.350 OA
BRANCH  16  17
ATOM     17  C8  <0> d           4.097   2.448  -1.298  0.00  0.00     0.011 C 
ATOM     18  H7  <0> d           4.296   1.537  -1.861  0.00  0.00     0.067 H 
ATOM     19  H8  <0> d           3.385   3.066  -1.845  0.00  0.00     0.067 H 
ATOM     20  H9  <0> d           5.027   3.001  -1.161  0.00  0.00     0.067 H 
ENDBRANCH  16  17
ENDBRANCH   6  16
TORSDOF 4
