REMARK  2 active torsions:
REMARK  status: ('A' for Active; 'I' for Inactive)
REMARK    1  A    between atoms: C1_1  and  C2_2 
REMARK    2  A    between atoms: C6_8  and  N3_12 
ROOT
ATOM      1  C2  <0> d           0.002  -0.004   0.002  0.00  0.00     0.118 C 
ATOM      2  N1  <0> d          -1.081  -0.737   0.003  0.00  0.00    -0.260 NA
ATOM      3  C3  <0> d          -0.623  -2.115   0.075  0.00  0.00     0.093 C 
ATOM      4  H1  <0> d          -0.820  -2.497   1.077  0.00  0.00     0.092 H 
ATOM      5  C4  <0> d          -1.180  -3.073  -0.920  0.00  0.00    -0.072 C 
ATOM      6  C5  <0> d          -0.400  -4.035  -1.419  0.00  0.00    -0.059 C 
ATOM      7  C6  <0> d           1.026  -4.140  -1.093  0.00  0.00     0.027 C 
ATOM      8  C7  <0> d           1.678  -3.062  -0.503  0.00  0.00    -0.031 C 
ATOM      9  C8  <0> d           0.874  -2.005  -0.113  0.00  0.00     0.067 C 
ATOM     10  N2  <0> d           1.130  -0.724  -0.013  0.00  0.00    -0.236 NA
ATOM     11  H5  <0> d          -2.209  -2.990  -1.236  0.00  0.00     0.080 H 
ATOM     12  H6  <0> d          -0.836  -4.764  -2.087  0.00  0.00     0.086 H 
ATOM     13  H7  <0> d           2.749  -3.050  -0.366  0.00  0.00     0.090 H 
ENDROOT
BRANCH   1  14
ATOM     14  C1  <0> d          -0.018   1.503   0.010  0.00  0.00    -0.020 C 
ATOM     15  H2  <0> d           1.004   1.880   0.003  0.00  0.00     0.037 H 
ATOM     16  H3  <0> d          -0.545   1.864  -0.873  0.00  0.00     0.037 H 
ATOM     17  H4  <0> d          -0.529   1.854   0.907  0.00  0.00     0.037 H 
ENDBRANCH   1  14
BRANCH   7  18
ATOM     18  N3  <0> d           1.714  -5.298  -1.370  0.00  0.00    -0.399 N 
ATOM     19  H8  <0> d           1.257  -6.048  -1.781  0.00  0.00     0.156 HD
ATOM     20  H9  <0> d           2.658  -5.364  -1.153  0.00  0.00     0.156 HD
ENDBRANCH   7  18
TORSDOF 2
