REMARK  2 active torsions:
REMARK  status: ('A' for Active; 'I' for Inactive)
REMARK    1  A    between atoms: C1_1  and  C2_2 
REMARK    2  A    between atoms: C3_3  and  C6_8 
ROOT
ATOM      1  C2  <0> d           1.429   1.887  -0.001  0.00  0.00    -0.048 A 
ATOM      2  C3  <0> d           2.167   0.781  -0.014  0.00  0.00     0.017 A 
ATOM      3  C4  <0> d           1.291  -0.393  -0.012  0.00  0.00     0.289 A 
ATOM      4  O1  <0> d           1.671  -1.548  -0.023  0.00  0.00    -0.260 OA
ATOM      5  O2  <0> d           0.002  -0.004   0.002  0.00  0.00    -0.313 OA
ATOM      6  C5  <0> d          -0.018   1.451   0.010  0.00  0.00     0.050 A 
ATOM      7  H4  <0> d          -0.529   1.824  -0.877  0.00  0.00     0.082 H 
ATOM      8  H5  <0> d          -0.512   1.815   0.911  0.00  0.00     0.082 H 
ENDROOT
BRANCH   1   9
ATOM      9  C1  <0> d           1.938   3.306   0.001  0.00  0.00    -0.052 C 
ATOM     10  H1  <0> d           1.093   3.995   0.012  0.00  0.00     0.033 H 
ATOM     11  H2  <0> d           2.553   3.470   0.885  0.00  0.00     0.033 H 
ATOM     12  H3  <0> d           2.535   3.479  -0.894  0.00  0.00     0.033 H 
ENDBRANCH   1   9
BRANCH   2  13
ATOM     13  C6  <0> d           3.674   0.741  -0.029  0.00  0.00    -0.045 C 
ATOM     14  H6  <0> d           4.010  -0.295  -0.038  0.00  0.00     0.033 H 
ATOM     15  H7  <0> d           4.042   1.250  -0.920  0.00  0.00     0.033 H 
ATOM     16  H8  <0> d           4.059   1.241   0.859  0.00  0.00     0.033 H 
ENDBRANCH   2  13
TORSDOF 2
