REMARK  1 active torsions:
REMARK  status: ('A' for Active; 'I' for Inactive)
REMARK    1  A    between atoms: C1_1  and  N1_2 
ROOT
ATOM      1  N1  <0> d          -1.202   3.128   0.029  0.00  0.00    -0.313 N 
ATOM      2  C2  <0> d          -0.020   3.774   0.022  0.00  0.00     0.070 A 
ATOM      3  N2  <0> d           1.113   3.124   0.008  0.00  0.00    -0.232 NA
ATOM      4  C3  <0> d           1.151   1.788   0.001  0.00  0.00     0.132 A 
ATOM      5  C4  <0> d          -0.013   1.076   0.008  0.00  0.00     0.022 A 
ATOM      6  C5  <0> d          -1.233   1.778   0.018  0.00  0.00     0.251 A 
ATOM      7  O1  <0> d          -2.296   1.180   0.019  0.00  0.00    -0.268 OA
ATOM      8 Cl1  <0> d           2.677   0.962  -0.018  0.00  0.00    -0.062 Cl
ATOM      9  H4  <0> d          -0.008   4.854   0.027  0.00  0.00     0.144 H 
ATOM     10  H5  <0> d           0.002  -0.004   0.002  0.00  0.00     0.097 H 
ENDROOT
BRANCH   1  11
ATOM     11  C1  <0> d          -2.453   3.890   0.045  0.00  0.00    -0.010 C 
ATOM     12  H1  <0> d          -2.229   4.957   0.049  0.00  0.00     0.057 H 
ATOM     13  H2  <0> d          -3.039   3.645  -0.840  0.00  0.00     0.057 H 
ATOM     14  H3  <0> d          -3.022   3.635   0.940  0.00  0.00     0.057 H 
ENDBRANCH   1  11
TORSDOF 1
