REMARK  0 active torsions:
REMARK  status: ('A' for Active; 'I' for Inactive)
ROOT
ATOM      1  C1  <0> d          -2.636   1.660   0.036  0.00  0.00    -0.051 A 
ATOM      2  C2  <0> d          -3.353   2.795   0.048  0.00  0.00    -0.020 A 
ATOM      3  N1  <0> d          -2.514   3.877   0.045  0.00  0.00    -0.350 N 
ATOM      4  H1  <0> d          -2.802   4.803   0.052  0.00  0.00     0.166 HD
ATOM      5  C3  <0> d          -1.206   3.458   0.031  0.00  0.00     0.140 A 
ATOM      6  C4  <0> d          -1.225   2.051   0.019  0.00  0.00     0.050 A 
ATOM      7  C5  <0> d          -0.016   1.347   0.009  0.00  0.00     0.131 A 
ATOM      8  C6  <0> d           1.161   2.076   0.002  0.00  0.00    -0.028 A 
ATOM      9  C7  <0> d           1.103   3.460   0.010  0.00  0.00     0.007 A 
ATOM     10  N2  <0> d          -0.046   4.103   0.023  0.00  0.00    -0.242 NA
ATOM     11  F1  <0> d           0.002  -0.004   0.002  0.00  0.00    -0.205 F 
ATOM     12  H2  <0> d          -3.025   0.653   0.035  0.00  0.00     0.087 H 
ATOM     13  H3  <0> d          -4.432   2.846   0.058  0.00  0.00     0.111 H 
ATOM     14  H4  <0> d           2.116   1.571  -0.009  0.00  0.00     0.090 H 
ATOM     15  H5  <0> d           2.023   4.026   0.004  0.00  0.00     0.115 H 
ENDROOT
TORSDOF 0
