REMARK  3 active torsions:
REMARK  status: ('A' for Active; 'I' for Inactive)
REMARK    1  A    between atoms: C4_4  and  C7_7 
REMARK    2  A    between atoms: C7_7  and  C8_9 
REMARK    3  A    between atoms: C7_7  and  N2_12 
REMARK       I    between atoms: C8_9  and  N1_11 
ROOT
ATOM      1  C1  <0> d           1.208  -0.679  -0.014  0.00  0.00    -0.083 A 
ATOM      2  C2  <0> d           0.002  -0.004   0.002  0.00  0.00    -0.082 A 
ATOM      3  C3  <0> d          -0.017   1.378   0.010  0.00  0.00    -0.074 A 
ATOM      4  C4  <0> d           1.171   2.086   0.002  0.00  0.00    -0.016 A 
ATOM      5  C5  <0> d           2.377   1.411  -0.014  0.00  0.00    -0.074 A 
ATOM      6  C6  <0> d           2.396   0.029  -0.021  0.00  0.00    -0.082 A 
ATOM      7  H2  <0> d           1.223  -1.759  -0.020  0.00  0.00     0.083 H 
ATOM      8  H3  <0> d          -0.926  -0.557   0.008  0.00  0.00     0.083 H 
ATOM      9  H4  <0> d          -0.959   1.905   0.017  0.00  0.00     0.084 H 
ATOM     10  H5  <0> d           3.305   1.963  -0.019  0.00  0.00     0.084 H 
ATOM     11  H6  <0> d           3.339  -0.499  -0.033  0.00  0.00     0.083 H 
ENDROOT
BRANCH   4  12
ATOM     12  C7  <0> d           1.151   3.592   0.010  0.00  0.00     0.231 C 
ATOM     13  H1  <0> d           0.180   3.960  -0.354  0.00  0.00     0.111 H 
BRANCH  12  14
ATOM     14  C8  <0> d           1.403   4.091   1.409  0.00  0.00     0.253 C 
ATOM     15  O1  <0> d           2.509   4.478   1.725  0.00  0.00    -0.271 OA
ATOM     16  N1  <0> d           0.402   4.106   2.311  0.00  0.00    -0.368 N 
ATOM     17  H7  <0> d           0.586   4.470   3.332  0.00  0.00     0.159 HD
ATOM     18  H8  <0> d          -0.601   3.755   2.025  0.00  0.00     0.159 HD
ENDBRANCH  12  14
BRANCH  12  19
ATOM     19  N2  <0> d           2.196   4.101  -0.888  0.00  0.00     0.096 N 
ATOM     20  H9  <0> d           2.181   5.201  -0.882  0.00  0.00     0.314 HD
ATOM     21  H10 <0> d           3.179   3.746  -0.544  0.00  0.00     0.314 HD
ENDBRANCH  12  19
ENDBRANCH   4  12
TORSDOF 3
