REMARK  6 active torsions:
REMARK  status: ('A' for Active; 'I' for Inactive)
REMARK    1  A    between atoms: C1_1  and  O1_2 
REMARK    2  A    between atoms: O1_2  and  C2_3 
REMARK    3  A    between atoms: C2_3  and  C3_4 
REMARK    4  A    between atoms: C3_4  and  C4_5 
REMARK    5  A    between atoms: C4_5  and  S1_6 
REMARK    6  A    between atoms: S1_6  and  N1_9 
ROOT
ATOM      1  C3  <0> d           0.613  -2.097  -1.041  0.00  0.00    -0.031 C 
ATOM      2  H6  <0> d           1.126  -2.416  -0.134  0.00  0.00     0.037 H 
ATOM      3  H7  <0> d          -0.423  -2.433  -1.010  0.00  0.00     0.037 H 
ENDROOT
BRANCH   1   4
ATOM      4  C2  <0> d           0.652  -0.570  -1.138  0.00  0.00     0.020 C 
ATOM      5  H4  <0> d           0.139  -0.251  -2.045  0.00  0.00     0.074 H 
ATOM      6  H5  <0> d           1.688  -0.234  -1.169  0.00  0.00     0.074 H 
BRANCH   4   7
ATOM      7  O1  <0> d           0.002  -0.004   0.002  0.00  0.00    -0.396 OA
BRANCH   7   8
ATOM      8  C1  <0> d          -0.017   1.425   0.010  0.00  0.00     0.004 C 
ATOM      9  H1  <0> d           1.005   1.802   0.002  0.00  0.00     0.066 H 
ATOM     10  H2  <0> d          -0.544   1.786  -0.873  0.00  0.00     0.066 H 
ATOM     11  H3  <0> d          -0.527   1.776   0.907  0.00  0.00     0.066 H 
ENDBRANCH   7   8
ENDBRANCH   4   7
ENDBRANCH   1   4
BRANCH   1  12
ATOM     12  C4  <0> d           1.309  -2.703  -2.261  0.00  0.00     0.048 C 
ATOM     13  H8  <0> d           0.795  -2.383  -3.168  0.00  0.00     0.059 H 
ATOM     14  H9  <0> d           2.345  -2.367  -2.293  0.00  0.00     0.059 H 
BRANCH  12  15
ATOM     15  S1  <0> d           1.263  -4.513  -2.147  0.00  0.00     0.224 S 
ATOM     16  O2  <0> d           2.077  -4.956  -1.070  0.00  0.00    -0.206 OA
ATOM     17  O3  <0> d          -0.073  -4.978  -2.284  0.00  0.00    -0.206 OA
BRANCH  15  18
ATOM     18  N1  <0> d           2.038  -5.045  -3.510  0.00  0.00    -0.328 N 
ATOM     19  H10 <0> d           2.392  -4.406  -4.148  0.00  0.00     0.168 HD
ATOM     20  H11 <0> d           2.139  -5.997  -3.670  0.00  0.00     0.168 HD
ENDBRANCH  15  18
ENDBRANCH  12  15
ENDBRANCH   1  12
TORSDOF 6
