REMARK  2 active torsions:
REMARK  status: ('A' for Active; 'I' for Inactive)
REMARK    1  A    between atoms: C1_1  and  C2_2 
REMARK    2  A    between atoms: N1_5  and  C5_7 
ROOT
ATOM      1  C2  <0> d           0.002  -0.004   0.002  0.00  0.00     0.073 A 
ATOM      2  C3  <0> d          -0.017   1.409   0.010  0.00  0.00     0.087 A 
ATOM      3  C4  <0> d           1.296   1.834  -0.001  0.00  0.00     0.020 A 
ATOM      4  N1  <0> d           2.074   0.738  -0.014  0.00  0.00    -0.283 N 
ATOM      5  N2  <0> d           1.248  -0.392  -0.012  0.00  0.00    -0.177 NA
ATOM      6  C6  <0> d          -1.181   2.243   0.020  0.00  0.00     0.103 C 
ATOM      7  N3  <0> d          -2.104   2.904   0.028  0.00  0.00    -0.191 NA
ATOM      8  H4  <0> d           1.635   2.860   0.001  0.00  0.00     0.116 H 
ENDROOT
BRANCH   1   9
ATOM      9  C1  <0> d          -1.205  -0.906   0.008  0.00  0.00    -0.032 C 
ATOM     10  H1  <0> d          -1.506  -1.118  -1.018  0.00  0.00     0.035 H 
ATOM     11  H2  <0> d          -0.959  -1.839   0.515  0.00  0.00     0.035 H 
ATOM     12  H3  <0> d          -2.024  -0.413   0.532  0.00  0.00     0.035 H 
ENDBRANCH   1   9
BRANCH   4  13
ATOM     13  C5  <0> d           3.539   0.728  -0.027  0.00  0.00     0.002 C 
ATOM     14  H5  <0> d           3.893   0.732  -1.058  0.00  0.00     0.059 H 
ATOM     15  H6  <0> d           3.913   1.613   0.488  0.00  0.00     0.059 H 
ATOM     16  H7  <0> d           3.901  -0.167   0.478  0.00  0.00     0.059 H 
ENDBRANCH   4  13
TORSDOF 2
