REMARK  5 active torsions:
REMARK  status: ('A' for Active; 'I' for Inactive)
REMARK    1  A    between atoms: C1_1  and  C2_2 
REMARK    2  A    between atoms: C2_2  and  C3_3 
REMARK    3  A    between atoms: C2_2  and  C4_4 
REMARK    4  A    between atoms: C4_4  and  C5_5 
REMARK    5  A    between atoms: C5_5  and  C6_6 
ROOT
ATOM      1  C5  <0> d          -2.135  -0.131  -1.286  0.00  0.00    -0.055 C 
ATOM      2  H11 <0> d          -2.150   0.956  -1.369  0.00  0.00     0.034 H 
ATOM      3  H12 <0> d          -1.598  -0.554  -2.135  0.00  0.00     0.034 H 
ENDROOT
BRANCH   1   4
ATOM      4  C4  <0> d          -1.433  -0.534   0.013  0.00  0.00    -0.062 C 
ATOM      5  H9  <0> d          -1.419  -1.620   0.097  0.00  0.00     0.033 H 
ATOM      6  H10 <0> d          -1.970  -0.111   0.862  0.00  0.00     0.033 H 
BRANCH   4   7
ATOM      7  C2  <0> d           0.002  -0.004   0.002  0.00  0.00    -0.061 C 
ATOM      8  H5  <0> d           0.512  -0.356  -0.895  0.00  0.00     0.038 H 
BRANCH   7   9
ATOM      9  C1  <0> d          -0.019   1.526   0.010  0.00  0.00    -0.073 C 
ATOM     10  H2  <0> d           1.004   1.903   0.003  0.00  0.00     0.028 H 
ATOM     11  H3  <0> d          -0.546   1.887  -0.873  0.00  0.00     0.028 H 
ATOM     12  H4  <0> d          -0.529   1.877   0.907  0.00  0.00     0.028 H 
ENDBRANCH   7   9
BRANCH   7  13
ATOM     13  C3  <0> d           0.742  -0.511   1.242  0.00  0.00    -0.073 C 
ATOM     14  H6  <0> d           0.232  -0.159   2.138  0.00  0.00     0.028 H 
ATOM     15  H7  <0> d           0.757  -1.601   1.236  0.00  0.00     0.028 H 
ATOM     16  H8  <0> d           1.765  -0.134   1.234  0.00  0.00     0.028 H 
ENDBRANCH   7  13
ENDBRANCH   4   7
ENDBRANCH   1   4
BRANCH   1  17
ATOM     17  C6  <0> d          -3.571  -0.661  -1.275  0.00  0.00     0.004 C 
ATOM     18  H1  <0> d          -4.085  -0.324  -0.375  0.00  0.00     0.051 H 
ATOM     19  C10 <0> d          -3.564  -2.174  -1.332  0.00  0.00     0.131 C 
ATOM     20  C9  <0> d          -4.293  -2.581  -2.602  0.00  0.00    -0.009 C 
ATOM     21  O1  <0> d          -3.072  -2.919  -0.519  0.00  0.00    -0.298 OA
ATOM     22  C8  <0> d          -5.212  -1.376  -2.923  0.00  0.00    -0.058 C 
ATOM     23  H17 <0> d          -4.887  -3.478  -2.429  0.00  0.00     0.044 H 
ATOM     24  H18 <0> d          -3.582  -2.744  -3.413  0.00  0.00     0.044 H 
ATOM     25  C7  <0> d          -4.324  -0.168  -2.528  0.00  0.00    -0.055 C 
ATOM     26  H15 <0> d          -6.117  -1.406  -2.316  0.00  0.00     0.033 H 
ATOM     27  H16 <0> d          -5.456  -1.347  -3.985  0.00  0.00     0.033 H 
ATOM     28  H13 <0> d          -4.940   0.698  -2.288  0.00  0.00     0.034 H 
ATOM     29  H14 <0> d          -3.623   0.069  -3.328  0.00  0.00     0.034 H 
ENDBRANCH   1  17
TORSDOF 5
