REMARK  1 active torsions:
REMARK  status: ('A' for Active; 'I' for Inactive)
REMARK    1  A    between atoms: C1_1  and  C2_2 
ROOT
ATOM      1  C2  <0> d           0.002  -0.004   0.002  0.00  0.00     0.011 C 
ATOM      2  H1  <0> d           0.500  -0.363  -0.899  0.00  0.00     0.072 H 
ATOM      3  C3  <0> d          -1.442  -0.549   0.056  0.00  0.00    -0.044 C 
ATOM      4  C4  <0> d          -1.604  -0.976   1.543  0.00  0.00    -0.044 C 
ATOM      5  C5  <0> d          -0.182  -1.498   1.841  0.00  0.00     0.015 C 
ATOM      6  H2  <0> d          -0.026  -2.501   1.446  0.00  0.00     0.072 H 
ATOM      7  N1  <0> d           0.707  -0.502   1.196  0.00  0.00    -0.343 N 
ATOM      8  C6  <0> d           1.826  -0.355   1.929  0.00  0.00     0.220 C 
ATOM      9  O1  <0> d           2.825   0.227   1.561  0.00  0.00    -0.273 OA
ATOM     10  C7  <0> d           1.659  -1.020   3.278  0.00  0.00     0.011 C 
ATOM     11  C8  <0> d           0.138  -1.416   3.343  0.00  0.00    -0.038 C 
ATOM     12  H6  <0> d          -2.158   0.232  -0.201  0.00  0.00     0.036 H 
ATOM     13  H7  <0> d          -1.554  -1.408  -0.606  0.00  0.00     0.036 H 
ATOM     14  H8  <0> d          -1.852  -0.123   2.174  0.00  0.00     0.036 H 
ATOM     15  H9  <0> d          -2.345  -1.769   1.647  0.00  0.00     0.036 H 
ATOM     16  H10 <0> d           2.276  -1.916   3.340  0.00  0.00     0.047 H 
ATOM     17  H11 <0> d           1.912  -0.326   4.079  0.00  0.00     0.047 H 
ATOM     18  H12 <0> d          -0.450  -0.638   3.829  0.00  0.00     0.036 H 
ATOM     19  H13 <0> d          -0.011  -2.380   3.829  0.00  0.00     0.036 H 
ENDROOT
BRANCH   1  20
ATOM     20  C1  <0> d          -0.019   1.526   0.010  0.00  0.00    -0.057 C 
ATOM     21  H3  <0> d           1.004   1.903   0.003  0.00  0.00     0.030 H 
ATOM     22  H4  <0> d          -0.546   1.887  -0.873  0.00  0.00     0.030 H 
ATOM     23  H5  <0> d          -0.529   1.877   0.907  0.00  0.00     0.030 H 
ENDBRANCH   1  20
TORSDOF 1
