REMARK  4 active torsions:
REMARK  status: ('A' for Active; 'I' for Inactive)
REMARK    1  A    between atoms: C2_2  and  C3_3 
REMARK    2  A    between atoms: C3_3  and  O1_4 
REMARK    3  A    between atoms: O1_4  and  C4_5 
REMARK    4  A    between atoms: C4_5  and  C5_6 
ROOT
ATOM      1  C4  <0> d           0.002  -0.004   0.002  0.00  0.00     0.043 C 
ATOM      2  H6  <0> d          -0.888  -0.377  -0.505  0.00  0.00     0.081 H 
ATOM      3  H7  <0> d           0.892  -0.352  -0.522  0.00  0.00     0.081 H 
ENDROOT
BRANCH   1   4
ATOM      4  O1  <0> d           0.021  -0.488   1.347  0.00  0.00    -0.383 OA
BRANCH   4   5
ATOM      5  C3  <0> d           0.042  -1.913   1.452  0.00  0.00     0.034 C 
ATOM      6  H4  <0> d          -0.847  -2.325   0.974  0.00  0.00     0.080 H 
ATOM      7  H5  <0> d           0.932  -2.301   0.957  0.00  0.00     0.080 H 
BRANCH   5   8
ATOM      8  C2  <0> d           0.061  -2.309   2.905  0.00  0.00    -0.090 C 
ATOM      9  C1  <0> d          -0.724  -3.266   3.334  0.00  0.00    -0.123 C 
ATOM     10  H1  <0> d          -1.385  -3.771   2.645  0.00  0.00     0.066 H 
ATOM     11  H2  <0> d          -0.711  -3.550   4.376  0.00  0.00     0.066 H 
ATOM     12  H3  <0> d           0.722  -1.804   3.594  0.00  0.00     0.078 H 
ENDBRANCH   5   8
ENDBRANCH   4   5
ENDBRANCH   1   4
BRANCH   1  13
ATOM     13  C5  <0> d          -0.018   1.503   0.010  0.00  0.00    -0.035 A 
ATOM     14  C10 <0> d           1.169   2.210   0.003  0.00  0.00    -0.075 A 
ATOM     15  C9  <0> d           1.151   3.592   0.010  0.00  0.00    -0.082 A 
ATOM     16  H12 <0> d           2.112   1.683  -0.009  0.00  0.00     0.084 H 
ATOM     17  C8  <0> d          -0.056   4.267   0.025  0.00  0.00    -0.083 A 
ATOM     18  H11 <0> d           2.078   4.145   0.004  0.00  0.00     0.083 H 
ATOM     19  C7  <0> d          -1.244   3.560   0.032  0.00  0.00    -0.082 A 
ATOM     20  H10 <0> d          -0.070   5.347   0.031  0.00  0.00     0.083 H 
ATOM     21  C6  <0> d          -1.225   2.178   0.020  0.00  0.00    -0.075 A 
ATOM     22  H9  <0> d          -2.186   4.087   0.044  0.00  0.00     0.083 H 
ATOM     23  H8  <0> d          -2.153   1.625   0.021  0.00  0.00     0.084 H 
ENDBRANCH   1  13
TORSDOF 4
