REMARK  1 active torsions:
REMARK  status: ('A' for Active; 'I' for Inactive)
REMARK    1  A    between atoms: C5_6  and  O1_7 
ROOT
ATOM      1  C1  <0> d           1.852   1.835  -1.205  0.00  0.00    -0.046 A 
ATOM      2  C2  <0> d           3.109   2.414  -1.164  0.00  0.00    -0.041 A 
ATOM      3  C3  <0> d           3.694   2.672   0.063  0.00  0.00     0.125 A 
ATOM      4  N1  <0> d           3.070   2.374   1.187  0.00  0.00    -0.246 NA
ATOM      5  C4  <0> d           1.870   1.826   1.190  0.00  0.00     0.036 A 
ATOM      6  C5  <0> d           1.223   1.533  -0.001  0.00  0.00     0.083 A 
ATOM      7 Cl1  <0> d           5.270   3.399   0.126  0.00  0.00    -0.062 Cl
ATOM      8  H1  <0> d           1.371   1.622  -2.149  0.00  0.00     0.087 H 
ATOM      9  H2  <0> d           3.627   2.662  -2.079  0.00  0.00     0.088 H 
ATOM     10  H3  <0> d           1.389   1.600   2.129  0.00  0.00     0.119 H 
ENDROOT
BRANCH   6  11
ATOM     11  O1  <0> d          -0.011   0.963   0.007  0.00  0.00    -0.359 OA
ATOM     12  H4  <0> d           0.002  -0.004   0.002  0.00  0.00     0.217 HD
ENDBRANCH   6  11
TORSDOF 1
