REMARK  2 active torsions:
REMARK  status: ('A' for Active; 'I' for Inactive)
REMARK    1  A    between atoms: C4_4  and  O2_8 
REMARK    2  A    between atoms: C6_6  and  O1_7 
ROOT
ATOM      1  C1  <0> d           1.862   1.822   1.195  0.00  0.00    -0.048 A 
ATOM      2  C2  <0> d           3.120   2.396   1.188  0.00  0.00    -0.040 A 
ATOM      3  C3  <0> d           3.739   2.694  -0.013  0.00  0.00     0.149 A 
ATOM      4  C4  <0> d           3.099   2.410  -1.213  0.00  0.00     0.106 A 
ATOM      5  C5  <0> d           1.841   1.830  -1.207  0.00  0.00    -0.016 A 
ATOM      6  C6  <0> d           1.223   1.533  -0.001  0.00  0.00     0.068 A 
ATOM      7  F1  <0> d           4.965   3.260  -0.018  0.00  0.00    -0.203 F 
ATOM      8  H1  <0> d           1.378   1.595   2.134  0.00  0.00     0.087 H 
ATOM      9  H2  <0> d           3.617   2.617   2.120  0.00  0.00     0.088 H 
ATOM     10  H3  <0> d           1.343   1.609  -2.139  0.00  0.00     0.092 H 
ENDROOT
BRANCH   4  11
ATOM     11  O2  <0> d           3.708   2.702  -2.393  0.00  0.00    -0.358 OA
ATOM     12  H5  <0> d           3.514   3.589  -2.728  0.00  0.00     0.217 HD
ENDBRANCH   4  11
BRANCH   6  13
ATOM     13  O1  <0> d          -0.011   0.963   0.007  0.00  0.00    -0.361 OA
ATOM     14  H4  <0> d           0.002  -0.004   0.002  0.00  0.00     0.217 HD
ENDBRANCH   6  13
TORSDOF 2
