REMARK  5 active torsions:
REMARK  status: ('A' for Active; 'I' for Inactive)
REMARK    1  A    between atoms: C1_1  and  C2_2 
REMARK    2  A    between atoms: C2_2  and  C3_4 
REMARK    3  A    between atoms: C2_2  and  O4_9 
REMARK    4  A    between atoms: C3_4  and  O1_5 
REMARK    5  A    between atoms: O1_5  and  C4_6 
ROOT
ATOM      1  C2  <0> d           0.002  -0.004   0.002  0.00  0.00     0.053 C 
ATOM      2  H1  <0> d          -1.020  -0.381   0.010  0.00  0.00     0.085 H 
ENDROOT
BRANCH   1   3
ATOM      3  C1  <0> d          -0.019   1.526   0.010  0.00  0.00    -0.050 C 
ATOM      4  H2  <0> d           1.004   1.903   0.003  0.00  0.00     0.031 H 
ATOM      5  H3  <0> d          -0.546   1.887  -0.873  0.00  0.00     0.031 H 
ATOM      6  H4  <0> d          -0.529   1.877   0.907  0.00  0.00     0.031 H 
ENDBRANCH   1   3
BRANCH   1   7
ATOM      7  C3  <0> d           0.742  -0.511   1.242  0.00  0.00     0.055 C 
ATOM      8  H5  <0> d           0.184  -0.235   2.136  0.00  0.00     0.079 H 
ATOM      9  H6  <0> d           0.835  -1.596   1.191  0.00  0.00     0.079 H 
BRANCH   7  10
ATOM     10  O1  <0> d           2.044   0.076   1.292  0.00  0.00    -0.293 OA
BRANCH  10  11
ATOM     11  C4  <0> d           2.828  -0.267   2.327  0.00  0.00     0.332 C 
ATOM     12  O2  <0> d           2.417  -1.050   3.171  0.00  0.00    -0.624 OA
ATOM     13  O3  <0> d           3.952   0.202   2.425  0.00  0.00    -0.624 OA
ENDBRANCH  10  11
ENDBRANCH   7  10
ENDBRANCH   1   7
BRANCH   1  14
ATOM     14  O4  <0> d           0.671  -0.465  -1.174  0.00  0.00    -0.394 OA
ATOM     15  H7  <0> d           0.256  -0.181  -1.999  0.00  0.00     0.210 HD
ENDBRANCH   1  14
TORSDOF 5
