REMARK  2 active torsions:
REMARK  status: ('A' for Active; 'I' for Inactive)
REMARK    1  A    between atoms: C3_3  and  C6_7 
REMARK    2  A    between atoms: C6_7  and  C7_8 
ROOT
ATOM      1  C1  <0> d           3.991   5.383  -0.833  0.00  0.00    -0.049 C 
ATOM      2  C2  <0> d           2.782   5.089   0.089  0.00  0.00    -0.055 C 
ATOM      3  C3  <0> d           2.696   3.548  -0.005  0.00  0.00    -0.029 C 
ATOM      4  H1  <0> d           3.243   3.086   0.818  0.00  0.00     0.046 H 
ATOM      5  C4  <0> d           3.344   3.204  -1.326  0.00  0.00    -0.102 C 
ATOM      6  C5  <0> d           4.050   4.205  -1.778  0.00  0.00    -0.106 C 
ATOM      7  H2  <0> d           4.907   5.446  -0.247  0.00  0.00     0.038 H 
ATOM      8  H3  <0> d           3.832   6.307  -1.389  0.00  0.00     0.038 H 
ATOM      9  H4  <0> d           1.875   5.556  -0.295  0.00  0.00     0.034 H 
ATOM     10  H5  <0> d           2.982   5.408   1.112  0.00  0.00     0.034 H 
ATOM     11  H6  <0> d           3.237   2.255  -1.830  0.00  0.00     0.076 H 
ATOM     12  H7  <0> d           4.604   4.192  -2.705  0.00  0.00     0.076 H 
ENDROOT
BRANCH   3  13
ATOM     13  C6  <0> d           1.235   3.094   0.007  0.00  0.00     0.022 C 
ATOM     14  H8  <0> d           0.727   3.482  -0.876  0.00  0.00     0.050 H 
ATOM     15  H9  <0> d           0.744   3.473   0.904  0.00  0.00     0.050 H 
BRANCH  13  16
ATOM     16  C7  <0> d           1.177   1.588  -0.001  0.00  0.00     0.173 C 
ATOM     17  O1  <0> d           2.199   0.944  -0.014  0.00  0.00    -0.648 OA
ATOM     18  O2  <0> d          -0.011   0.963   0.007  0.00  0.00    -0.648 OA
ENDBRANCH  13  16
ENDBRANCH   3  13
TORSDOF 2
