REMARK  4 active torsions:
REMARK  status: ('A' for Active; 'I' for Inactive)
REMARK    1  A    between atoms: C1_1  and  C2_2 
REMARK    2  A    between atoms: C4_4  and  C7_10 
REMARK    3  A    between atoms: C5_6  and  O1_8 
REMARK    4  A    between atoms: O1_8  and  C6_9 
ROOT
ATOM      1  C2  <0> d           2.302  -0.053  -0.020  0.00  0.00     0.037 A 
ATOM      2  C3  <0> d           2.320   1.333  -0.013  0.00  0.00    -0.036 A 
ATOM      3  C4  <0> d           1.112   2.011   0.002  0.00  0.00     0.037 A 
ATOM      4  N1  <0> d          -0.016   1.319   0.009  0.00  0.00    -0.212 NA
ATOM      5  C5  <0> d           0.002  -0.004   0.002  0.00  0.00     0.268 A 
ATOM      6  N2  <0> d           1.138  -0.682  -0.012  0.00  0.00    -0.212 NA
ATOM      7  H4  <0> d           3.256   1.873  -0.019  0.00  0.00     0.089 H 
ENDROOT
BRANCH   5   8
ATOM      8  O1  <0> d          -1.171  -0.681   0.010  0.00  0.00    -0.324 OA
BRANCH   8   9
ATOM      9  C6  <0> d          -1.097  -2.108   0.001  0.00  0.00     0.013 C 
ATOM     10  H5  <0> d          -2.114  -2.528   0.009  0.00  0.00     0.067 H 
ATOM     11  H6  <0> d          -0.552  -2.452   0.892  0.00  0.00     0.067 H 
ATOM     12  H7  <0> d          -0.569  -2.442  -0.904  0.00  0.00     0.067 H 
ENDBRANCH   8   9
ENDBRANCH   5   8
BRANCH   3  13
ATOM     13  C7  <0> d           1.082   3.518   0.010  0.00  0.00    -0.035 C 
ATOM     14  H8  <0> d           0.038   3.864   0.022  0.00  0.00     0.035 H 
ATOM     15  H9  <0> d           1.585   3.899  -0.891  0.00  0.00     0.035 H 
ATOM     16  H10 <0> d           1.602   3.890   0.905  0.00  0.00     0.035 H 
ENDBRANCH   3  13
BRANCH   1  17
ATOM     17  C1  <0> d           3.591  -0.833  -0.035  0.00  0.00    -0.035 C 
ATOM     18  H1  <0> d           4.442  -0.135  -0.040  0.00  0.00     0.035 H 
ATOM     19  H2  <0> d           3.628  -1.462  -0.937  0.00  0.00     0.035 H 
ATOM     20  H3  <0> d           3.645  -1.470   0.859  0.00  0.00     0.035 H 
ENDBRANCH   1  17
TORSDOF 4
