REMARK  0 active torsions:
REMARK  status: ('A' for Active; 'I' for Inactive)
ROOT
ATOM      1  C1  <0> d          -0.016   1.339   0.009  0.00  0.00     0.058 A 
ATOM      2  C2  <0> d           1.280   1.754  -0.001  0.00  0.00     0.160 A 
ATOM      3  N1  <0> d           2.057   0.637  -0.014  0.00  0.00    -0.224 NA
ATOM      4  C3  <0> d           1.281  -0.406  -0.012  0.00  0.00     0.104 A 
ATOM      5  O1  <0> d           0.002  -0.004   0.002  0.00  0.00    -0.313 OA
ATOM      6  C4  <0> d           1.740   3.110   0.001  0.00  0.00     0.121 C 
ATOM      7  N2  <0> d           2.105   4.186   0.003  0.00  0.00    -0.190 NA
ATOM      8  H1  <0> d          -0.892   1.970   0.025  0.00  0.00     0.128 H 
ATOM      9  H2  <0> d           1.613  -1.433  -0.021  0.00  0.00     0.155 H 
ENDROOT
TORSDOF 0
