REMARK  6 active torsions:
REMARK  status: ('A' for Active; 'I' for Inactive)
REMARK    1  A    between atoms: C1_1  and  C2_2 
REMARK    2  A    between atoms: C2_2  and  C3_3 
REMARK    3  A    between atoms: C2_2  and  C4_4 
REMARK    4  A    between atoms: C4_4  and  N1_5 
REMARK    5  A    between atoms: C7_9  and  C8_10 
REMARK    6  A    between atoms: C8_10  and  O1_11 
ROOT
ATOM      1  C4  <0> d          -1.614   4.584   0.413  0.00  0.00     0.003 C 
ATOM      2  H8  <0> d          -1.092   5.436   0.871  0.00  0.00     0.065 H 
ATOM      3  H9  <0> d          -2.537   4.374   0.975  0.00  0.00     0.065 H 
ENDROOT
BRANCH   1   4
ATOM      4  C2  <0> d          -1.966   4.920  -1.038  0.00  0.00    -0.045 C 
ATOM      5  H4  <0> d          -2.397   4.034  -1.526  0.00  0.00     0.041 H 
BRANCH   4   6
ATOM      6  C1  <0> d          -2.982   6.063  -1.064  0.00  0.00    -0.072 C 
ATOM      7  H1  <0> d          -3.893   5.756  -0.528  0.00  0.00     0.028 H 
ATOM      8  H2  <0> d          -3.235   6.305  -2.107  0.00  0.00     0.028 H 
ATOM      9  H3  <0> d          -2.551   6.949  -0.576  0.00  0.00     0.028 H 
ENDBRANCH   4   6
BRANCH   4  10
ATOM     10  C3  <0> d          -0.699   5.347  -1.783  0.00  0.00    -0.072 C 
ATOM     11  H5  <0> d           0.032   4.525  -1.764  0.00  0.00     0.028 H 
ATOM     12  H6  <0> d          -0.268   6.233  -1.295  0.00  0.00     0.028 H 
ATOM     13  H7  <0> d          -0.952   5.589  -2.826  0.00  0.00     0.028 H 
ENDBRANCH   4  10
ENDBRANCH   1   4
BRANCH   1  14
ATOM     14  N1  <0> d          -0.745   3.405   0.444  0.00  0.00    -0.342 N 
ATOM     15  C7  <0> d          -1.142   2.115   0.380  0.00  0.00     0.129 A 
ATOM     16  N2  <0> d          -0.086   1.350   0.436  0.00  0.00    -0.244 NA
ATOM     17  C6  <0> d           1.010   2.115   0.538  0.00  0.00     0.019 A 
ATOM     18  C5  <0> d           0.619   3.404   0.550  0.00  0.00    -0.002 A 
ATOM     19  H11 <0> d           2.028   1.760   0.604  0.00  0.00     0.117 H 
ATOM     20  H10 <0> d           1.260   4.270   0.628  0.00  0.00     0.113 H 
BRANCH  15  21
ATOM     21  C8  <0> d          -2.567   1.639   0.261  0.00  0.00     0.071 C 
ATOM     22  H12 <0> d          -3.150   2.370  -0.319  0.00  0.00     0.086 H 
ATOM     23  H13 <0> d          -2.587   0.665  -0.251  0.00  0.00     0.086 H 
BRANCH  21  24
ATOM     24  O1  <0> d          -3.134   1.504   1.565  0.00  0.00    -0.393 OA
ATOM     25  H14 <0> d          -4.174   1.164   1.681  0.00  0.00     0.209 HD
ENDBRANCH  21  24
ENDBRANCH  15  21
ENDBRANCH   1  14
TORSDOF 6
