REMARK  3 active torsions:
REMARK  status: ('A' for Active; 'I' for Inactive)
REMARK    1  A    between atoms: C1_1  and  C2_2 
REMARK       I    between atoms: C2_2  and  N1_4 
REMARK    2  A    between atoms: N1_4  and  C3_5 
REMARK    3  A    between atoms: N3_10  and  C6_11 
ROOT
ATOM      1  C3  <0> d          -1.499   3.336   2.597  0.00  0.00     0.708 A 
ATOM      2  N2  <0> d          -2.005   2.538   3.510  0.00  0.00    -0.026 NA
ATOM      3  C4  <0> d          -2.577   3.205   4.510  0.00  0.00     0.278 A 
ATOM      4  O2  <0> d          -3.123   2.732   5.487  0.00  0.00    -0.269 OA
ATOM      5  C5  <0> d          -2.407   4.675   4.181  0.00  0.00     0.087 A 
ATOM      6  N3  <0> d          -1.677   4.650   2.900  0.00  0.00    -0.211 N 
ATOM      7  H5  <0> d          -3.377   5.158   4.065  0.00  0.00     0.079 H 
ATOM      8  H6  <0> d          -1.818   5.176   4.949  0.00  0.00     0.079 H 
ENDROOT
BRANCH   1   9
ATOM      9  N1  <0> d          -0.857   2.894   1.470  0.00  0.00    -0.158 N 
ATOM     10  C2  <0> d          -0.718   1.572   1.248  0.00  0.00     0.232 C 
ATOM     11  O1  <0> d          -1.160   0.773   2.046  0.00  0.00    -0.273 OA
ATOM     12  H4  <0> d          -0.503   3.533   0.831  0.00  0.00     0.187 HD
BRANCH  10  13
ATOM     13  C1  <0> d          -0.013   1.086   0.008  0.00  0.00    -0.002 C 
ATOM     14  H1  <0> d           0.002  -0.004   0.002  0.00  0.00     0.040 H 
ATOM     15  H2  <0> d           1.010   1.463   0.000  0.00  0.00     0.040 H 
ATOM     16  H3  <0> d          -0.540   1.447  -0.875  0.00  0.00     0.040 H 
ENDBRANCH  10  13
ENDBRANCH   1   9
BRANCH   6  17
ATOM     17  C6  <0> d          -1.237   5.804   2.112  0.00  0.00    -0.002 C 
ATOM     18  H7  <0> d          -0.726   5.458   1.214  0.00  0.00     0.057 H 
ATOM     19  H8  <0> d          -2.103   6.403   1.830  0.00  0.00     0.057 H 
ATOM     20  H9  <0> d          -0.554   6.411   2.707  0.00  0.00     0.057 H 
ENDBRANCH   6  17
TORSDOF 3
