REMARK  3 active torsions:
REMARK  status: ('A' for Active; 'I' for Inactive)
REMARK    1  A    between atoms: N1_6  and  C5_7 
REMARK    2  A    between atoms: C5_7  and  C6_8 
REMARK    3  A    between atoms: C6_8  and  O2_9 
ROOT
ATOM      1  C1  <0> d           1.421   1.950  -0.001  0.00  0.00     0.133 C 
ATOM      2  C2  <0> d          -0.017   1.426   0.010  0.00  0.00     0.044 C 
ATOM      3  O1  <0> d           0.002  -0.004   0.002  0.00  0.00    -0.388 OA
ATOM      4  C3  <0> d           0.701  -0.577   1.111  0.00  0.00     0.044 C 
ATOM      5  C4  <0> d           2.147  -0.072   1.111  0.00  0.00     0.133 C 
ATOM      6  N1  <0> d           2.148   1.397   1.151  0.00  0.00     0.094 N 
ATOM      7  H1  <0> d           1.413   3.049   0.063  0.00  0.00     0.083 H 
ATOM      8  H2  <0> d           1.919   1.641  -0.932  0.00  0.00     0.083 H 
ATOM      9  H3  <0> d          -0.531   1.783   0.915  0.00  0.00     0.077 H 
ATOM     10  H4  <0> d          -0.548   1.792  -0.881  0.00  0.00     0.077 H 
ATOM     11  H5  <0> d           0.207  -0.280   2.048  0.00  0.00     0.077 H 
ATOM     12  H6  <0> d           0.693  -1.673   1.022  0.00  0.00     0.077 H 
ATOM     13  H7  <0> d           2.672  -0.466   1.994  0.00  0.00     0.083 H 
ATOM     14  H8  <0> d           2.655  -0.416   0.198  0.00  0.00     0.083 H 
ENDROOT
BRANCH   6  15
ATOM     15  C5  <0> d           3.519   1.922   1.210  0.00  0.00     0.133 C 
ATOM     16  H9  <0> d           3.956   1.695   2.193  0.00  0.00     0.083 H 
ATOM     17  H10 <0> d           4.125   1.452   0.421  0.00  0.00     0.083 H 
BRANCH  15  18
ATOM     18  C6  <0> d           3.495   3.437   1.000  0.00  0.00     0.042 C 
ATOM     19  H11 <0> d           4.526   3.817   0.954  0.00  0.00     0.076 H 
ATOM     20  H12 <0> d           2.977   3.668   0.058  0.00  0.00     0.076 H 
BRANCH  18  21
ATOM     21  O2  <0> d           2.806   4.058   2.087  0.00  0.00    -0.399 OA
ATOM     22  H13 <0> d           2.687   5.151   2.111  0.00  0.00     0.209 HD
ENDBRANCH  18  21
ENDBRANCH  15  18
ENDBRANCH   6  15
TORSDOF 3
