REMARK  1 active torsions:
REMARK  status: ('A' for Active; 'I' for Inactive)
REMARK    1  A    between atoms: C4_4  and  C6_7 
REMARK       I    between atoms: C6_7  and  N2_9 
ROOT
ATOM      1  C1  <0> d          -0.013   1.076   0.008  0.00  0.00    -0.064 A 
ATOM      2  C2  <0> d          -1.218   1.759   0.017  0.00  0.00    -0.058 A 
ATOM      3  C3  <0> d          -1.192   3.146   0.030  0.00  0.00     0.068 A 
ATOM      4  C4  <0> d           0.039   3.800   0.021  0.00  0.00     0.145 A 
ATOM      5  N1  <0> d           1.171   3.107   0.007  0.00  0.00    -0.254 NA
ATOM      6  C5  <0> d           1.174   1.792   0.001  0.00  0.00     0.003 A 
ATOM      7 Cl1  <0> d          -2.672   4.054   0.049  0.00  0.00    -0.082 Cl
ATOM      8  H1  <0> d           0.002  -0.004   0.002  0.00  0.00     0.085 H 
ATOM      9  H2  <0> d          -2.156   1.224   0.019  0.00  0.00     0.086 H 
ATOM     10  H3  <0> d           2.115   1.262  -0.011  0.00  0.00     0.114 H 
ENDROOT
BRANCH   4  11
ATOM     11  C6  <0> d           0.085   5.280   0.028  0.00  0.00     0.269 C 
ATOM     12  O1  <0> d          -0.948   5.920   0.041  0.00  0.00    -0.266 OA
ATOM     13  N2  <0> d           1.272   5.918   0.020  0.00  0.00    -0.365 N 
ATOM     14  H4  <0> d           2.097   5.407   0.010  0.00  0.00     0.159 HD
ATOM     15  H5  <0> d           1.302   6.887   0.025  0.00  0.00     0.159 HD
ENDBRANCH   4  11
TORSDOF 1
