REMARK  2 active torsions:
REMARK  status: ('A' for Active; 'I' for Inactive)
REMARK    1  A    between atoms: C1_1  and  C2_2 
REMARK    2  A    between atoms: C1_1  and  N1_4 
REMARK       I    between atoms: N1_4  and  C3_5 
REMARK       I    between atoms: C3_5  and  N2_7 
ROOT
ATOM      1  N1  <0> d          -0.016   1.344   0.009  0.00  0.00    -0.333 N 
ATOM      2  C3  <0> d           0.002  -0.004   0.002  0.00  0.00     0.314 C 
ATOM      3  O2  <0> d          -1.042  -0.626   0.009  0.00  0.00    -0.248 OA
ATOM      4  N2  <0> d           1.178  -0.662  -0.013  0.00  0.00    -0.352 N 
ATOM      5  H3  <0> d           0.817   1.840   0.004  0.00  0.00     0.164 HD
ATOM      6  H4  <0> d           2.012  -0.166  -0.018  0.00  0.00     0.160 HD
ATOM      7  H5  <0> d           1.191  -1.632  -0.018  0.00  0.00     0.160 HD
ENDROOT
BRANCH   1   8
ATOM      8  C1  <0> d          -1.295   2.059   0.019  0.00  0.00     0.077 C 
ATOM      9  H1  <0> d          -1.867   1.792  -0.869  0.00  0.00     0.080 H 
ATOM     10  H2  <0> d          -1.859   1.783   0.911  0.00  0.00     0.080 H 
BRANCH   8  11
ATOM     11  C2  <0> d          -1.040   3.544   0.026  0.00  0.00     0.191 C 
ATOM     12  O1  <0> d           0.094   3.962   0.023  0.00  0.00    -0.647 OA
ATOM     13  O3  <0> d          -2.071   4.402   0.036  0.00  0.00    -0.647 OA
ENDBRANCH   8  11
ENDBRANCH   1   8
TORSDOF 2
