REMARK  7 active torsions:
REMARK  status: ('A' for Active; 'I' for Inactive)
REMARK    1  A    between atoms: C1_1  and  C2_2 
REMARK    2  A    between atoms: C2_2  and  O1_3 
REMARK    3  A    between atoms: O1_3  and  C3_4 
REMARK    4  A    between atoms: C3_4  and  C4_6 
REMARK    5  A    between atoms: C5_7  and  C6_8 
REMARK    6  A    between atoms: C5_7  and  O3_9 
REMARK    7  A    between atoms: O3_9  and  C7_10 
ROOT
ATOM      1  C4  <0> d          -0.886   1.566  -3.551  0.00  0.00     0.017 C 
ATOM      2  C5  <0> d          -0.273   1.382  -4.734  0.00  0.00     0.047 C 
ATOM      3  H6  <0> d          -1.819   2.108  -3.505  0.00  0.00     0.096 H 
ENDROOT
BRANCH   1   4
ATOM      4  C3  <0> d          -0.309   1.049  -2.366  0.00  0.00     0.285 C 
ATOM      5  O2  <0> d           0.690   0.356  -2.429  0.00  0.00    -0.260 OA
BRANCH   4   6
ATOM      6  O1  <0> d          -0.866   1.323  -1.169  0.00  0.00    -0.318 OA
BRANCH   6   7
ATOM      7  C2  <0> d          -0.231   0.768  -0.015  0.00  0.00     0.026 C 
ATOM      8  H4  <0> d          -0.223  -0.319  -0.092  0.00  0.00     0.074 H 
ATOM      9  H5  <0> d           0.794   1.135   0.047  0.00  0.00     0.074 H 
BRANCH   7  10
ATOM     10  C1  <0> d          -0.999   1.185   1.240  0.00  0.00    -0.056 C 
ATOM     11  H1  <0> d          -1.007   2.272   1.317  0.00  0.00     0.030 H 
ATOM     12  H2  <0> d          -2.023   0.818   1.178  0.00  0.00     0.030 H 
ATOM     13  H3  <0> d          -0.514   0.762   2.120  0.00  0.00     0.030 H 
ENDBRANCH   7  10
ENDBRANCH   6   7
ENDBRANCH   4   6
ENDBRANCH   1   4
BRANCH   2  14
ATOM     14  C6  <0> d          -0.826   2.029  -5.978  0.00  0.00    -0.032 C 
ATOM     15  H7  <0> d          -0.378   3.014  -6.105  0.00  0.00     0.036 H 
ATOM     16  H8  <0> d          -0.593   1.409  -6.844  0.00  0.00     0.036 H 
ATOM     17  H9  <0> d          -1.907   2.130  -5.885  0.00  0.00     0.036 H 
ENDBRANCH   2  14
BRANCH   2  18
ATOM     18  O3  <0> d           0.837   0.620  -4.807  0.00  0.00    -0.360 OA
BRANCH  18  19
ATOM     19  C7  <0> d           2.072   1.288  -5.178  0.00  0.00     0.010 C 
ATOM     20  H10 <0> d           2.900   0.582  -5.113  0.00  0.00     0.066 H 
ATOM     21  H11 <0> d           1.991   1.660  -6.199  0.00  0.00     0.066 H 
ATOM     22  H12 <0> d           2.251   2.122  -4.500  0.00  0.00     0.066 H 
ENDBRANCH  18  19
ENDBRANCH   2  18
TORSDOF 7
