REMARK  0 active torsions:
REMARK  status: ('A' for Active; 'I' for Inactive)
ROOT
ATOM      1  C1  <0> d          -0.739   4.103   0.029  0.00  0.00    -0.083 A 
ATOM      2  C2  <0> d          -1.577   3.011   0.032  0.00  0.00    -0.083 A 
ATOM      3  C3  <0> d          -1.249   1.653   0.017  0.00  0.00    -0.079 A 
ATOM      4  C4  <0> d          -0.013   1.076   0.008  0.00  0.00    -0.035 A 
ATOM      5  C5  <0> d           1.249   1.708  -0.001  0.00  0.00     0.171 A 
ATOM      6  O1  <0> d           2.219   0.963  -0.014  0.00  0.00    -0.289 OA
ATOM      7  C6  <0> d           1.534   3.090   0.004  0.00  0.00    -0.035 A 
ATOM      8  C7  <0> d           0.658   4.135   0.017  0.00  0.00    -0.079 A 
ATOM      9  H1  <0> d          -1.227   5.066   0.039  0.00  0.00     0.083 H 
ATOM     10  H2  <0> d          -2.634   3.235   0.043  0.00  0.00     0.083 H 
ATOM     11  H3  <0> d          -2.085   0.970   0.018  0.00  0.00     0.083 H 
ATOM     12  H4  <0> d           0.002  -0.004   0.002  0.00  0.00     0.089 H 
ATOM     13  H5  <0> d           2.582   3.354  -0.005  0.00  0.00     0.089 H 
ATOM     14  H6  <0> d           1.103   5.119   0.017  0.00  0.00     0.083 H 
ENDROOT
TORSDOF 0
