REMARK  2 active torsions:
REMARK  status: ('A' for Active; 'I' for Inactive)
REMARK    1  A    between atoms: C2_2  and  O2_9 
REMARK    2  A    between atoms: C4_6  and  C5_7 
ROOT
ATOM      1  C1  <0> d          -0.539   1.969   1.362  0.00  0.00     0.007 C 
ATOM      2  C2  <0> d          -0.017   1.425   0.010  0.00  0.00     0.058 C 
ATOM      3  H1  <0> d          -0.603   1.812  -0.824  0.00  0.00     0.086 H 
ATOM      4  C3  <0> d           1.418   2.002  -0.001  0.00  0.00     0.039 C 
ATOM      5  N1  <0> d           1.749   2.227   1.411  0.00  0.00    -0.284 NA
ATOM      6  C4  <0> d           0.720   2.215   2.162  0.00  0.00     0.107 C 
ATOM      7  H2  <0> d          -1.046   2.826   1.266  0.00  0.00     0.046 H 
ATOM      8  H3  <0> d          -1.168   1.228   1.856  0.00  0.00     0.046 H 
ATOM      9  H4  <0> d           2.111   1.287  -0.443  0.00  0.00     0.071 H 
ATOM     10  H5  <0> d           1.443   2.944  -0.550  0.00  0.00     0.071 H 
ENDROOT
BRANCH   2  11
ATOM     11  O2  <0> d           0.002  -0.004   0.002  0.00  0.00    -0.394 OA
ATOM     12  H6  <0> d           0.422  -0.387  -0.780  0.00  0.00     0.210 HD
ENDBRANCH   2  11
BRANCH   6  13
ATOM     13  C5  <0> d           0.754   2.417   3.631  0.00  0.00     0.224 C 
ATOM     14  O1  <0> d          -0.278   2.390   4.270  0.00  0.00    -0.643 OA
ATOM     15  O3  <0> d           1.928   2.629   4.255  0.00  0.00    -0.643 OA
ENDBRANCH   6  13
TORSDOF 2
