REMARK  3 active torsions:
REMARK  status: ('A' for Active; 'I' for Inactive)
REMARK    1  A    between atoms: C1_1  and  C2_2 
REMARK    2  A    between atoms: C7_8  and  O2_10 
REMARK    3  A    between atoms: O2_10  and  C9_11 
ROOT
ATOM      1  C2  <0> d          -0.718   1.572   1.248  0.00  0.00    -0.059 A 
ATOM      2  C3  <0> d          -2.079   1.757   1.123  0.00  0.00    -0.077 A 
ATOM      3  C4  <0> d          -2.997   2.187   2.079  0.00  0.00    -0.079 A 
ATOM      4  C5  <0> d          -2.772   2.546   3.390  0.00  0.00    -0.032 A 
ATOM      5  C6  <0> d          -1.555   2.563   4.094  0.00  0.00     0.205 A 
ATOM      6  O1  <0> d          -1.617   2.925   5.261  0.00  0.00    -0.285 OA
ATOM      7  C7  <0> d          -0.264   2.214   3.620  0.00  0.00     0.118 A 
ATOM      8  C8  <0> d           0.095   1.777   2.359  0.00  0.00    -0.041 A 
ATOM      9  H4  <0> d          -2.492   1.534   0.151  0.00  0.00     0.084 H 
ATOM     10  H5  <0> d          -4.022   2.252   1.747  0.00  0.00     0.083 H 
ATOM     11  H6  <0> d          -3.643   2.853   3.949  0.00  0.00     0.089 H 
ATOM     12  H7  <0> d           1.145   1.567   2.217  0.00  0.00     0.088 H 
ENDROOT
BRANCH   7  13
ATOM     13  O2  <0> d           0.745   2.323   4.518  0.00  0.00    -0.352 OA
BRANCH  13  14
ATOM     14  C9  <0> d           2.055   1.978   4.066  0.00  0.00     0.011 C 
ATOM     15  H8  <0> d           2.767   2.109   4.881  0.00  0.00     0.067 H 
ATOM     16  H9  <0> d           2.065   0.937   3.740  0.00  0.00     0.067 H 
ATOM     17  H10 <0> d           2.334   2.622   3.232  0.00  0.00     0.067 H 
ENDBRANCH  13  14
ENDBRANCH   7  13
BRANCH   1  18
ATOM     18  C1  <0> d          -0.013   1.086   0.008  0.00  0.00    -0.051 C 
ATOM     19  H1  <0> d           0.002  -0.004   0.002  0.00  0.00     0.033 H 
ATOM     20  H2  <0> d           1.010   1.463   0.000  0.00  0.00     0.033 H 
ATOM     21  H3  <0> d          -0.540   1.447  -0.875  0.00  0.00     0.033 H 
ENDBRANCH   1  18
TORSDOF 3
