REMARK  0 active torsions:
REMARK  status: ('A' for Active; 'I' for Inactive)
ROOT
ATOM      1  C1  <0> d          -1.246   3.492   0.031  0.00  0.00    -0.081 A 
ATOM      2  C2  <0> d          -0.056   4.199   0.024  0.00  0.00    -0.080 A 
ATOM      3  C3  <0> d           1.154   3.530   0.009  0.00  0.00    -0.044 A 
ATOM      4  C4  <0> d           1.182   2.147   0.002  0.00  0.00     0.137 A 
ATOM      5  C5  <0> d          -0.017   1.428   0.010  0.00  0.00     0.083 A 
ATOM      6  C6  <0> d          -1.234   2.113   0.019  0.00  0.00    -0.060 A 
ATOM      7  C7  <0> d           0.002  -0.004   0.002  0.00  0.00     0.102 C 
ATOM      8  N1  <0> d           0.018  -1.140  -0.004  0.00  0.00    -0.191 NA
ATOM      9  F1  <0> d           2.364   1.493  -0.013  0.00  0.00    -0.204 F 
ATOM     10  H1  <0> d          -2.187   4.022   0.042  0.00  0.00     0.083 H 
ATOM     11  H2  <0> d          -0.072   5.279   0.029  0.00  0.00     0.083 H 
ATOM     12  H3  <0> d           2.079   4.088   0.004  0.00  0.00     0.088 H 
ATOM     13  H4  <0> d          -2.164   1.564   0.021  0.00  0.00     0.086 H 
ENDROOT
TORSDOF 0
