REMARK  0 active torsions:
REMARK  status: ('A' for Active; 'I' for Inactive)
ROOT
ATOM      1  C1  <0> d          -0.017   1.383   0.010  0.00  0.00    -0.020 A 
ATOM      2  C2  <0> d           1.202   2.050   0.002  0.00  0.00     0.056 A 
ATOM      3  C3  <0> d           2.362   1.288  -0.014  0.00  0.00     0.045 A 
ATOM      4  N1  <0> d           2.282  -0.028  -0.020  0.00  0.00    -0.160 NA
ATOM      5  N2  <0> d           1.157  -0.645  -0.013  0.00  0.00    -0.138 NA
ATOM      6  C4  <0> d           0.002  -0.004   0.002  0.00  0.00     0.149 A 
ATOM      7 Cl1  <0> d          -1.488  -0.895   0.012  0.00  0.00    -0.060 Cl
ATOM      8 Cl2  <0> d           1.272   3.785   0.010  0.00  0.00    -0.083 Cl
ATOM      9  H1  <0> d          -0.950   1.927   0.026  0.00  0.00     0.091 H 
ATOM     10  H2  <0> d           3.327   1.772  -0.021  0.00  0.00     0.120 H 
ENDROOT
TORSDOF 0
