REMARK  6 active torsions:
REMARK  status: ('A' for Active; 'I' for Inactive)
REMARK    1  A    between atoms: C1_1  and  C2_2 
REMARK    2  A    between atoms: C2_2  and  C3_4 
REMARK    3  A    between atoms: C2_2  and  C4_6 
REMARK    4  A    between atoms: C3_4  and  O1_5 
REMARK    5  A    between atoms: C4_6  and  C5_7 
REMARK    6  A    between atoms: C4_6  and  C6_8 
ROOT
ATOM      1  C2  <0> d           0.002  -0.004   0.002  0.00  0.00    -0.034 C 
ATOM      2  H1  <0> d           0.529  -0.365   0.885  0.00  0.00     0.043 H 
ENDROOT
BRANCH   1   3
ATOM      3  C1  <0> d          -0.019   1.526   0.010  0.00  0.00    -0.071 C 
ATOM      4  H2  <0> d           1.004   1.903   0.003  0.00  0.00     0.028 H 
ATOM      5  H3  <0> d          -0.546   1.887  -0.873  0.00  0.00     0.028 H 
ATOM      6  H4  <0> d          -0.529   1.877   0.907  0.00  0.00     0.028 H 
ENDBRANCH   1   3
BRANCH   1   7
ATOM      7  C3  <0> d          -1.433  -0.534   0.013  0.00  0.00     0.020 C 
ATOM      8  H5  <0> d          -1.986  -0.102  -0.821  0.00  0.00     0.074 H 
ATOM      9  H6  <0> d          -1.421  -1.619  -0.083  0.00  0.00     0.074 H 
BRANCH   7  10
ATOM     10  O1  <0> d          -2.066  -0.171   1.242  0.00  0.00    -0.400 OA
ATOM     11  H7  <0> d          -2.980  -0.475   1.318  0.00  0.00     0.209 HD
ENDBRANCH   7  10
ENDBRANCH   1   7
BRANCH   1  12
ATOM     12  C4  <0> d           0.718  -0.497  -1.257  0.00  0.00    -0.056 C 
ATOM     13  H8  <0> d           0.191  -0.136  -2.140  0.00  0.00     0.039 H 
BRANCH  12  14
ATOM     14  C5  <0> d           2.154   0.032  -1.268  0.00  0.00    -0.073 C 
ATOM     15  H9  <0> d           2.681  -0.329  -0.385  0.00  0.00     0.028 H 
ATOM     16  H10 <0> d           2.664  -0.319  -2.164  0.00  0.00     0.028 H 
ATOM     17  H11 <0> d           2.139   1.122  -1.262  0.00  0.00     0.028 H 
ENDBRANCH  12  14
BRANCH  12  18
ATOM     18  C6  <0> d           0.739  -2.027  -1.265  0.00  0.00    -0.073 C 
ATOM     19  H12 <0> d          -0.284  -2.405  -1.258  0.00  0.00     0.028 H 
ATOM     20  H13 <0> d           1.249  -2.379  -2.162  0.00  0.00     0.028 H 
ATOM     21  H14 <0> d           1.266  -2.388  -0.382  0.00  0.00     0.028 H 
ENDBRANCH  12  18
ENDBRANCH   1  12
TORSDOF 6
