REMARK  2 active torsions:
REMARK  status: ('A' for Active; 'I' for Inactive)
REMARK    1  A    between atoms: C1_1  and  N1_2 
REMARK    2  A    between atoms: C5_7  and  N4_9 
ROOT
ATOM      1  N1  <0> d           0.002  -0.004   0.002  0.00  0.00    -0.256 N 
ATOM      2  C2  <0> d           0.008  -0.787  -1.114  0.00  0.00     0.178 A 
ATOM      3  C3  <0> d           0.028  -2.127  -0.668  0.00  0.00     0.049 A 
ATOM      4  C4  <0> d           0.037  -3.150  -1.620  0.00  0.00     0.036 A 
ATOM      5  N2  <0> d           0.026  -2.822  -2.899  0.00  0.00    -0.074 NA
ATOM      6  C5  <0> d           0.007  -1.551  -3.284  0.00  0.00     0.722 A 
ATOM      7  N3  <0> d          -0.002  -0.549  -2.422  0.00  0.00    -0.043 NA
ATOM      8  C6  <0> d           0.034  -2.075   0.789  0.00  0.00     0.037 A 
ATOM      9  N5  <0> d           0.024  -0.820   1.138  0.00  0.00    -0.183 NA
ATOM     10  H4  <0> d           0.053  -4.186  -1.316  0.00  0.00     0.117 H 
ATOM     11  H7  <0> d           0.048  -2.923   1.457  0.00  0.00     0.118 H 
ENDROOT
BRANCH   1  12
ATOM     12  C1  <0> d          -0.018   1.461   0.010  0.00  0.00     0.004 C 
ATOM     13  H1  <0> d           1.005   1.838   0.002  0.00  0.00     0.059 H 
ATOM     14  H2  <0> d          -0.545   1.822  -0.873  0.00  0.00     0.059 H 
ATOM     15  H3  <0> d          -0.528   1.812   0.907  0.00  0.00     0.059 H 
ENDBRANCH   1  12
BRANCH   6  16
ATOM     16  N4  <0> d          -0.003  -1.264  -4.638  0.00  0.00    -0.231 N 
ATOM     17  H5  <0> d           0.003  -1.986  -5.287  0.00  0.00     0.174 HD
ATOM     18  H6  <0> d          -0.017  -0.342  -4.939  0.00  0.00     0.174 HD
ENDBRANCH   6  16
TORSDOF 2
