REMARK  5 active torsions:
REMARK  status: ('A' for Active; 'I' for Inactive)
REMARK    1  A    between atoms: C1_1  and  C2_2 
REMARK    2  A    between atoms: C3_3  and  N3_11 
REMARK    3  A    between atoms: C4_4  and  C7_9 
REMARK    4  A    between atoms: C5_5  and  N2_8 
REMARK    5  A    between atoms: C7_9  and  O1_10 
ROOT
ATOM      1  C2  <0> d           0.964   5.150   1.172  0.00  0.00     0.057 A 
ATOM      2  C3  <0> d           1.092   3.766   1.206  0.00  0.00     0.061 A 
ATOM      3  C4  <0> d           1.147   3.062   0.008  0.00  0.00     0.021 A 
ATOM      4  C5  <0> d           1.075   3.780  -1.183  0.00  0.00     0.054 A 
ATOM      5  C6  <0> d           0.942   5.162  -1.131  0.00  0.00     0.028 A 
ATOM      6  N1  <0> d           0.894   5.793   0.025  0.00  0.00    -0.261 NA
ATOM      7  H4  <0> d           0.882   5.726  -2.050  0.00  0.00     0.118 H 
ENDROOT
BRANCH   3   8
ATOM      8  C7  <0> d           1.286   1.562  -0.002  0.00  0.00     0.045 C 
ATOM      9  H7  <0> d           1.840   1.243   0.881  0.00  0.00     0.081 H 
ATOM     10  H8  <0> d           1.823   1.252  -0.899  0.00  0.00     0.081 H 
BRANCH   8  11
ATOM     11  O1  <0> d          -0.011   0.963   0.007  0.00  0.00    -0.396 OA
ATOM     12  H9  <0> d           0.002  -0.004   0.002  0.00  0.00     0.209 HD
ENDBRANCH   8  11
ENDBRANCH   3   8
BRANCH   2  13
ATOM     13  N3  <0> d           1.165   3.092   2.428  0.00  0.00    -0.397 N 
ATOM     14  H10 <0> d           1.254   2.126   2.444  0.00  0.00     0.156 HD
ATOM     15  H11 <0> d           1.127   3.589   3.259  0.00  0.00     0.156 HD
ENDBRANCH   2  13
BRANCH   4  16
ATOM     16  N2  <0> d           1.131   3.119  -2.412  0.00  0.00    -0.397 N 
ATOM     17  H5  <0> d           1.220   2.154  -2.440  0.00  0.00     0.156 HD
ATOM     18  H6  <0> d           1.081   3.626  -3.238  0.00  0.00     0.156 HD
ENDBRANCH   4  16
BRANCH   1  19
ATOM     19  C1  <0> d           0.904   5.923   2.464  0.00  0.00    -0.033 C 
ATOM     20  H1  <0> d           1.913   6.205   2.767  0.00  0.00     0.035 H 
ATOM     21  H2  <0> d           0.303   6.822   2.322  0.00  0.00     0.035 H 
ATOM     22  H3  <0> d           0.452   5.303   3.239  0.00  0.00     0.035 H 
ENDBRANCH   1  19
TORSDOF 5
