REMARK  0 active torsions:
REMARK  status: ('A' for Active; 'I' for Inactive)
ROOT
ATOM      1  C1  <0> d           1.145   1.769   0.001  0.00  0.00     0.019 A 
ATOM      2  C2  <0> d          -0.013   1.076   0.008  0.00  0.00     0.005 A 
ATOM      3  N1  <0> d          -1.204   1.746   0.017  0.00  0.00    -0.294 N 
ATOM      4  C3  <0> d          -2.500   1.378   0.021  0.00  0.00     0.093 A 
ATOM      5  N2  <0> d          -3.223   2.471   0.030  0.00  0.00    -0.143 NA
ATOM      6  N3  <0> d          -2.461   3.508   0.043  0.00  0.00    -0.127 NA
ATOM      7  C4  <0> d          -1.198   3.122   0.029  0.00  0.00     0.198 A 
ATOM      8  C5  <0> d           0.039   3.797   0.021  0.00  0.00     0.174 A 
ATOM      9  N4  <0> d           1.155   3.106   0.007  0.00  0.00    -0.244 NA
ATOM     10 Cl1  <0> d           0.088   5.533   0.030  0.00  0.00    -0.058 Cl
ATOM     11  H1  <0> d           2.083   1.234  -0.011  0.00  0.00     0.117 H 
ATOM     12  H2  <0> d           0.002  -0.004   0.002  0.00  0.00     0.114 H 
ATOM     13  H3  <0> d          -2.876   0.365   0.018  0.00  0.00     0.147 H 
ENDROOT
TORSDOF 0
