REMARK  4 active torsions:
REMARK  status: ('A' for Active; 'I' for Inactive)
REMARK    1  A    between atoms: C1_1  and  C2_2 
REMARK    2  A    between atoms: C2_2  and  C3_4 
REMARK    3  A    between atoms: C3_4  and  O1_5 
REMARK    4  A    between atoms: O1_5  and  C4_6 
ROOT
ATOM      1  C2  <0> d           0.002  -0.004   0.002  0.00  0.00     0.047 C 
ATOM      2  H1  <0> d           0.529  -0.365   0.885  0.00  0.00     0.065 H 
ATOM      3  C5  <0> d          -1.379  -0.514   0.013  0.00  0.00     0.065 C 
ATOM      4  N1  <0> d          -2.445  -0.907   0.021  0.00  0.00    -0.197 NA
ENDROOT
BRANCH   1   5
ATOM      5  C1  <0> d          -0.019   1.526   0.010  0.00  0.00    -0.059 C 
ATOM      6  H2  <0> d           1.004   1.903   0.003  0.00  0.00     0.029 H 
ATOM      7  H3  <0> d          -0.546   1.887  -0.873  0.00  0.00     0.029 H 
ATOM      8  H4  <0> d          -0.529   1.877   0.907  0.00  0.00     0.029 H 
ENDBRANCH   1   5
BRANCH   1   9
ATOM      9  C3  <0> d           0.718  -0.497  -1.257  0.00  0.00     0.034 C 
ATOM     10  H5  <0> d           0.656  -1.585  -1.308  0.00  0.00     0.076 H 
ATOM     11  H6  <0> d           0.244  -0.064  -2.138  0.00  0.00     0.076 H 
BRANCH   9  12
ATOM     12  O1  <0> d           2.090  -0.101  -1.210  0.00  0.00    -0.395 OA
BRANCH  12  13
ATOM     13  C4  <0> d           2.853  -0.514  -2.346  0.00  0.00     0.004 C 
ATOM     14  H7  <0> d           3.883  -0.175  -2.235  0.00  0.00     0.066 H 
ATOM     15  H8  <0> d           2.835  -1.602  -2.420  0.00  0.00     0.066 H 
ATOM     16  H9  <0> d           2.424  -0.082  -3.249  0.00  0.00     0.066 H 
ENDBRANCH  12  13
ENDBRANCH   9  12
ENDBRANCH   1   9
TORSDOF 4
