REMARK  5 active torsions:
REMARK  status: ('A' for Active; 'I' for Inactive)
REMARK    1  A    between atoms: C1_1  and  C2_2 
REMARK    2  A    between atoms: C2_2  and  C3_3 
REMARK    3  A    between atoms: C3_3  and  C4_4 
REMARK    4  A    between atoms: C4_4  and  C5_5 
REMARK    5  A    between atoms: C6_7  and  C9_13 
ROOT
ATOM      1  C5  <0> d          -0.705   1.566   3.765  0.00  0.00     0.051 C 
ATOM      2  H1  <0> d          -0.791   2.652   3.752  0.00  0.00     0.084 H 
ATOM      3  C6  <0> d           0.046   1.097   5.032  0.00  0.00    -0.023 C 
ATOM      4  H2  <0> d           0.714   1.876   5.398  0.00  0.00     0.044 H 
ATOM      5  C7  <0> d          -1.112   0.854   6.025  0.00  0.00     0.021 C 
ATOM      6  C8  <0> d          -2.358   0.817   5.166  0.00  0.00     0.259 C 
ATOM      7  O1  <0> d          -3.485   0.686   5.582  0.00  0.00    -0.265 OA
ATOM      8  O2  <0> d          -2.023   0.952   3.875  0.00  0.00    -0.316 OA
ATOM      9  H12 <0> d          -1.172   1.671   6.745  0.00  0.00     0.048 H 
ATOM     10  H13 <0> d          -0.978  -0.097   6.540  0.00  0.00     0.048 H 
ENDROOT
BRANCH   1  11
ATOM     11  C4  <0> d           0.011   1.072   2.506  0.00  0.00    -0.040 C 
ATOM     12  H10 <0> d           0.026  -0.018   2.500  0.00  0.00     0.036 H 
ATOM     13  H11 <0> d           1.034   1.450   2.499  0.00  0.00     0.036 H 
BRANCH  11  14
ATOM     14  C3  <0> d          -0.729   1.579   1.267  0.00  0.00    -0.063 C 
ATOM     15  H8  <0> d          -0.744   2.669   1.273  0.00  0.00     0.033 H 
ATOM     16  H9  <0> d          -1.751   1.202   1.275  0.00  0.00     0.033 H 
BRANCH  14  17
ATOM     17  C2  <0> d          -0.013   1.086   0.008  0.00  0.00    -0.068 C 
ATOM     18  H6  <0> d           0.002  -0.004   0.002  0.00  0.00     0.032 H 
ATOM     19  H7  <0> d           1.010   1.463   0.000  0.00  0.00     0.032 H 
BRANCH  17  20
ATOM     20  C1  <0> d          -0.753   1.593  -1.232  0.00  0.00    -0.077 C 
ATOM     21  H3  <0> d          -0.242   1.241  -2.128  0.00  0.00     0.027 H 
ATOM     22  H4  <0> d          -1.775   1.215  -1.224  0.00  0.00     0.027 H 
ATOM     23  H5  <0> d          -0.767   2.683  -1.226  0.00  0.00     0.027 H 
ENDBRANCH  17  20
ENDBRANCH  14  17
ENDBRANCH  11  14
ENDBRANCH   1  11
BRANCH   3  24
ATOM     24  C9  <0> d           0.813  -0.199   4.763  0.00  0.00    -0.070 C 
ATOM     25  H14 <0> d           1.538  -0.033   3.966  0.00  0.00     0.028 H 
ATOM     26  H15 <0> d           1.333  -0.509   5.669  0.00  0.00     0.028 H 
ATOM     27  H16 <0> d           0.114  -0.979   4.461  0.00  0.00     0.028 H 
ENDBRANCH   3  24
TORSDOF 5
