REMARK  1 active torsions:
REMARK  status: ('A' for Active; 'I' for Inactive)
REMARK    1  A    between atoms: C3_3  and  C6_7 
ROOT
ATOM      1  C1  <0> d          -0.017   1.380   0.010  0.00  0.00    -0.065 A 
ATOM      2  C2  <0> d           0.002  -0.004   0.002  0.00  0.00    -0.069 A 
ATOM      3  C3  <0> d           1.241  -0.650  -0.013  0.00  0.00    -0.005 A 
ATOM      4  C4  <0> d           2.402   0.120  -0.020  0.00  0.00     0.013 A 
ATOM      5  N1  <0> d           2.335   1.435  -0.013  0.00  0.00    -0.272 NA
ATOM      6  C5  <0> d           1.180   2.073   0.002  0.00  0.00     0.002 A 
ATOM      7  H1  <0> d          -0.956   1.913   0.017  0.00  0.00     0.085 H 
ATOM      8  H2  <0> d          -0.917  -0.570   0.008  0.00  0.00     0.085 H 
ATOM      9  H3  <0> d           3.367  -0.366  -0.032  0.00  0.00     0.116 H 
ATOM     10  H4  <0> d           1.169   3.153   0.008  0.00  0.00     0.114 H 
ENDROOT
BRANCH   3  11
ATOM     11  C6  <0> d           1.319  -2.132  -0.021  0.00  0.00     0.011 A 
ATOM     12  C9  <0> d           2.553  -2.786  -0.037  0.00  0.00     0.016 A 
ATOM     13  N3  <0> d           2.577  -4.108  -0.043  0.00  0.00    -0.253 NA
ATOM     14  H7  <0> d           3.473  -2.220  -0.043  0.00  0.00     0.116 H 
ATOM     15  C8  <0> d           1.459  -4.806  -0.035  0.00  0.00     0.086 A 
ATOM     16  N2  <0> d           0.274  -4.229  -0.021  0.00  0.00    -0.253 NA
ATOM     17  H6  <0> d           1.515  -5.884  -0.041  0.00  0.00     0.146 H 
ATOM     18  C7  <0> d           0.160  -2.912  -0.008  0.00  0.00     0.016 A 
ATOM     19  H5  <0> d          -0.815  -2.446   0.008  0.00  0.00     0.116 H 
ENDBRANCH   3  11
TORSDOF 1
