REMARK  2 active torsions:
REMARK  status: ('A' for Active; 'I' for Inactive)
REMARK    1  A    between atoms: C1_1  and  C2_2 
REMARK    2  A    between atoms: C6_7  and  N4_11 
ROOT
ATOM      1  C2  <0> d           0.002  -0.004   0.002  0.00  0.00    -0.027 A 
ATOM      2  C3  <0> d           0.006  -0.704  -1.212  0.00  0.00     0.012 A 
ATOM      3  N1  <0> d           0.023  -2.016  -1.220  0.00  0.00    -0.241 NA
ATOM      4  C4  <0> d           0.038  -2.709  -0.072  0.00  0.00     0.153 A 
ATOM      5  C5  <0> d           0.057  -4.069   0.200  0.00  0.00     0.009 A 
ATOM      6  C6  <0> d           0.066  -4.221   1.585  0.00  0.00     0.145 A 
ATOM      7  N2  <0> d           0.053  -3.027   2.144  0.00  0.00    -0.149 NA
ATOM      8  N3  <0> d           0.035  -2.057   1.135  0.00  0.00    -0.224 N 
ATOM      9  C7  <0> d           0.022  -0.694   1.169  0.00  0.00     0.013 A 
ATOM     10  H4  <0> d          -0.006  -0.161  -2.146  0.00  0.00     0.115 H 
ATOM     11  H5  <0> d           0.064  -4.866  -0.529  0.00  0.00     0.095 H 
ATOM     12  H6  <0> d           0.024  -0.170   2.114  0.00  0.00     0.115 H 
ENDROOT
BRANCH   1  13
ATOM     13  C1  <0> d          -0.018   1.503   0.010  0.00  0.00    -0.049 C 
ATOM     14  H1  <0> d           1.004   1.880   0.003  0.00  0.00     0.033 H 
ATOM     15  H2  <0> d          -0.545   1.864  -0.873  0.00  0.00     0.033 H 
ATOM     16  H3  <0> d          -0.529   1.854   0.907  0.00  0.00     0.033 H 
ENDBRANCH   1  13
BRANCH   6  17
ATOM     17  N4  <0> d           0.085  -5.440   2.270  0.00  0.00    -0.383 N 
ATOM     18  H7  <0> d           0.093  -6.274   1.775  0.00  0.00     0.157 HD
ATOM     19  H8  <0> d           0.090  -5.451   3.240  0.00  0.00     0.157 HD
ENDBRANCH   6  17
TORSDOF 2
