REMARK  2 active torsions:
REMARK  status: ('A' for Active; 'I' for Inactive)
REMARK    1  A    between atoms: C1_1  and  O1_2 
REMARK    2  A    between atoms: O1_2  and  C2_3 
ROOT
ATOM      1  C2  <0> d           2.338   1.401  -0.013  0.00  0.00     0.152 A 
ATOM      2  C3  <0> d           1.156   2.056   0.002  0.00  0.00     0.019 A 
ATOM      3  N1  <0> d          -0.016   1.341   0.009  0.00  0.00    -0.316 N 
ATOM      4  H1  <0> d          -0.891   1.825   0.020  0.00  0.00     0.170 HD
ATOM      5  C4  <0> d           0.002  -0.004   0.002  0.00  0.00     0.327 A 
ATOM      6  O2  <0> d          -1.048  -0.617   0.008  0.00  0.00    -0.247 OA
ATOM      7  N2  <0> d           1.165  -0.681  -0.013  0.00  0.00    -0.273 N 
ATOM      8  H2  <0> d           1.158  -1.681  -0.018  0.00  0.00     0.173 HD
ATOM      9  C5  <0> d           2.339  -0.019  -0.021  0.00  0.00     0.284 A 
ATOM     10  O3  <0> d           3.391  -0.633  -0.034  0.00  0.00    -0.265 OA
ATOM     11  H6  <0> d           1.133   3.136   0.008  0.00  0.00     0.116 H 
ENDROOT
BRANCH   1  12
ATOM     12  O1  <0> d           3.511   2.092  -0.021  0.00  0.00    -0.350 OA
BRANCH  12  13
ATOM     13  C1  <0> d           3.424   3.518  -0.012  0.00  0.00     0.011 C 
ATOM     14  H3  <0> d           2.897   3.845   0.885  0.00  0.00     0.067 H 
ATOM     15  H4  <0> d           4.427   3.944  -0.020  0.00  0.00     0.067 H 
ATOM     16  H5  <0> d           2.880   3.854  -0.895  0.00  0.00     0.067 H 
ENDBRANCH  12  13
ENDBRANCH   1  12
TORSDOF 2
