REMARK  1 active torsions:
REMARK  status: ('A' for Active; 'I' for Inactive)
REMARK    1  A    between atoms: C2_3  and  C3_4 
ROOT
ATOM      1  C1  <0> d           0.002  -0.004   0.002  0.00  0.00     0.147 C 
ATOM      2  N1  <0> d           0.018  -1.140  -0.004  0.00  0.00    -0.191 NA
ATOM      3  C2  <0> d          -0.018   1.468   0.010  0.00  0.00     0.425 C 
ATOM      4  F4  <0> d           1.295   1.952   0.000  0.00  0.00    -0.179 F 
ATOM      5  F5  <0> d          -0.695   1.931  -1.123  0.00  0.00    -0.179 F 
ENDROOT
BRANCH   3   6
ATOM      6  C3  <0> d          -0.734   1.961   1.269  0.00  0.00     0.469 C 
ATOM      7  F1  <0> d          -0.057   1.498   2.402  0.00  0.00    -0.164 F 
ATOM      8  F2  <0> d          -0.753   3.360   1.277  0.00  0.00    -0.164 F 
ATOM      9  F3  <0> d          -2.046   1.477   1.279  0.00  0.00    -0.164 F 
ENDBRANCH   3   6
TORSDOF 1
