REMARK  0 active torsions:
REMARK  status: ('A' for Active; 'I' for Inactive)
ROOT
ATOM      1  C1  <0> d          -0.013   1.076   0.008  0.00  0.00    -0.081 A 
ATOM      2  C2  <0> d           1.179   1.785   0.000  0.00  0.00    -0.074 A 
ATOM      3  C3  <0> d           1.167   3.162   0.007  0.00  0.00    -0.021 A 
ATOM      4  C4  <0> d          -0.031   3.864   0.023  0.00  0.00     0.062 A 
ATOM      5  C5  <0> d          -1.240   3.144   0.031  0.00  0.00     0.071 A 
ATOM      6  C6  <0> d          -1.216   1.748   0.017  0.00  0.00    -0.061 A 
ATOM      7  C7  <0> d          -2.491   3.840   0.046  0.00  0.00     0.102 C 
ATOM      8  N1  <0> d          -3.483   4.393   0.059  0.00  0.00    -0.191 NA
ATOM      9  N2  <0> d           0.212   5.232   0.027  0.00  0.00    -0.325 N 
ATOM     10  C8  <0> d           1.525   5.518   0.016  0.00  0.00     0.226 A 
ATOM     11  O1  <0> d           2.022   6.625   0.017  0.00  0.00    -0.273 OA
ATOM     12  C9  <0> d           2.267   4.199   0.002  0.00  0.00     0.035 A 
ATOM     13  H1  <0> d           0.002  -0.004   0.002  0.00  0.00     0.083 H 
ATOM     14  H2  <0> d           2.120   1.256  -0.011  0.00  0.00     0.084 H 
ATOM     15  H3  <0> d          -2.142   1.194   0.019  0.00  0.00     0.086 H 
ATOM     16  H4  <0> d          -0.487   5.905   0.037  0.00  0.00     0.169 HD
ATOM     17  H5  <0> d           2.889   4.100   0.891  0.00  0.00     0.054 H 
ATOM     18  H6  <0> d           2.872   4.109  -0.900  0.00  0.00     0.054 H 
ENDROOT
TORSDOF 0
