REMARK  2 active torsions:
REMARK  status: ('A' for Active; 'I' for Inactive)
REMARK    1  A    between atoms: C1_1  and  C2_2 
REMARK    2  A    between atoms: C8_9  and  C10_12 
ROOT
ATOM      1  C2  <0> d           0.002  -0.004   0.002  0.00  0.00    -0.031 A 
ATOM      2  C3  <0> d           0.009  -0.803  -1.083  0.00  0.00     0.025 A 
ATOM      3  O1  <0> d           0.027  -2.083  -0.670  0.00  0.00    -0.326 OA
ATOM      4  C4  <0> d           0.034  -2.119   0.668  0.00  0.00     0.059 A 
ATOM      5  C5  <0> d           0.024  -0.850   1.125  0.00  0.00    -0.021 A 
ATOM      6  C6  <0> d           0.031  -0.467   2.582  0.00  0.00    -0.038 C 
ATOM      7  C7  <0> d          -0.354  -1.701   3.409  0.00  0.00    -0.058 C 
ATOM      8  C8  <0> d           0.495  -2.896   2.965  0.00  0.00    -0.052 C 
ATOM      9  H1  <0> d           1.547  -2.608   2.952  0.00  0.00     0.040 H 
ATOM     10  C9  <0> d           0.059  -3.336   1.560  0.00  0.00    -0.017 C 
ATOM     11  H5  <0> d          -0.001  -0.472  -2.111  0.00  0.00     0.124 H 
ATOM     12  H6  <0> d           1.026  -0.130   2.869  0.00  0.00     0.040 H 
ATOM     13  H7  <0> d          -0.692   0.330   2.755  0.00  0.00     0.040 H 
ATOM     14  H8  <0> d          -0.177  -1.501   4.465  0.00  0.00     0.034 H 
ATOM     15  H9  <0> d          -1.409  -1.928   3.254  0.00  0.00     0.034 H 
ATOM     16  H10 <0> d          -0.934  -3.784   1.597  0.00  0.00     0.043 H 
ATOM     17  H11 <0> d           0.775  -4.061   1.173  0.00  0.00     0.043 H 
ENDROOT
BRANCH   8  18
ATOM     18  C10 <0> d           0.296  -4.054   3.945  0.00  0.00    -0.073 C 
ATOM     19  H12 <0> d          -0.755  -4.341   3.959  0.00  0.00     0.028 H 
ATOM     20  H13 <0> d           0.900  -4.904   3.630  0.00  0.00     0.028 H 
ATOM     21  H14 <0> d           0.601  -3.742   4.944  0.00  0.00     0.028 H 
ENDBRANCH   8  18
BRANCH   1  22
ATOM     22  C1  <0> d          -0.018   1.503   0.010  0.00  0.00    -0.049 C 
ATOM     23  H2  <0> d           1.004   1.880   0.003  0.00  0.00     0.033 H 
ATOM     24  H3  <0> d          -0.545   1.864  -0.873  0.00  0.00     0.033 H 
ATOM     25  H4  <0> d          -0.529   1.854   0.907  0.00  0.00     0.033 H 
ENDBRANCH   1  22
TORSDOF 2
