REMARK  2 active torsions:
REMARK  status: ('A' for Active; 'I' for Inactive)
REMARK    1  A    between atoms: C3_3  and  C8_9 
REMARK    2  A    between atoms: C8_9  and  O1_10 
ROOT
ATOM      1  C1  <0> d           1.171   1.783   0.001  0.00  0.00    -0.081 A 
ATOM      2  C2  <0> d           1.155   3.167   0.008  0.00  0.00    -0.075 A 
ATOM      3  C3  <0> d          -0.048   3.850   0.023  0.00  0.00    -0.033 A 
ATOM      4  C4  <0> d          -1.240   3.155   0.031  0.00  0.00    -0.055 A 
ATOM      5  C5  <0> d          -1.230   1.759   0.017  0.00  0.00     0.045 A 
ATOM      6  C6  <0> d          -0.013   1.076   0.008  0.00  0.00    -0.063 A 
ATOM      7  C7  <0> d          -2.464   1.031   0.019  0.00  0.00     0.099 C 
ATOM      8  N1  <0> d          -3.442   0.454   0.021  0.00  0.00    -0.191 NA
ATOM      9  H1  <0> d           2.114   1.256  -0.012  0.00  0.00     0.083 H 
ATOM     10  H2  <0> d           2.084   3.716   0.002  0.00  0.00     0.084 H 
ATOM     11  H3  <0> d          -2.178   3.690   0.044  0.00  0.00     0.086 H 
ATOM     12  H4  <0> d           0.002  -0.004   0.002  0.00  0.00     0.085 H 
ENDROOT
BRANCH   3  13
ATOM     13  C8  <0> d          -0.057   5.357   0.032  0.00  0.00     0.040 C 
ATOM     14  H5  <0> d          -0.944   5.713   0.556  0.00  0.00     0.081 H 
ATOM     15  H6  <0> d           0.836   5.723   0.539  0.00  0.00     0.081 H 
BRANCH  13  16
ATOM     16  O1  <0> d          -0.072   5.841  -1.313  0.00  0.00    -0.396 OA
ATOM     17  H7  <0> d          -0.078   6.805  -1.384  0.00  0.00     0.209 HD
ENDBRANCH  13  16
ENDBRANCH   3  13
TORSDOF 2
