REMARK  6 active torsions:
REMARK  status: ('A' for Active; 'I' for Inactive)
REMARK    1  A    between atoms: C1_1  and  C2_2 
REMARK    2  A    between atoms: C2_2  and  C3_3 
REMARK    3  A    between atoms: C3_3  and  C4_4 
REMARK    4  A    between atoms: C3_3  and  C6_6 
REMARK    5  A    between atoms: C4_4  and  C5_5 
REMARK    6  A    between atoms: C6_6  and  C7_8 
ROOT
ATOM      1  C3  <0> d           1.479   2.189   0.063  0.00  0.00     0.003 C 
ATOM      2  H6  <0> d           1.611   3.058  -0.413  0.00  0.00     0.051 H 
ENDROOT
BRANCH   1   3
ATOM      3  C2  <0> d           1.902   2.340   1.526  0.00  0.00    -0.059 C 
ATOM      4  H4  <0> d           1.677   1.420   2.066  0.00  0.00     0.033 H 
ATOM      5  H5  <0> d           2.973   2.538   1.576  0.00  0.00     0.033 H 
BRANCH   3   6
ATOM      6  C1  <0> d           1.138   3.503   2.160  0.00  0.00    -0.076 C 
ATOM      7  H1  <0> d           1.264   4.397   1.550  0.00  0.00     0.027 H 
ATOM      8  H2  <0> d           0.079   3.252   2.221  0.00  0.00     0.027 H 
ATOM      9  H3  <0> d           1.525   3.689   3.162  0.00  0.00     0.027 H 
ENDBRANCH   3   6
ENDBRANCH   1   3
BRANCH   1  10
ATOM     10  C4  <0> d           2.330   1.107  -0.605  0.00  0.00    -0.059 C 
ATOM     11  H7  <0> d           2.270   0.187  -0.024  0.00  0.00     0.033 H 
ATOM     12  H8  <0> d           1.959   0.924  -1.614  0.00  0.00     0.033 H 
BRANCH  10  13
ATOM     13  C5  <0> d           3.786   1.573  -0.673  0.00  0.00    -0.076 C 
ATOM     14  H9  <0> d           3.853   2.466  -1.295  0.00  0.00     0.027 H 
ATOM     15  H10 <0> d           4.141   1.803   0.331  0.00  0.00     0.027 H 
ATOM     16  H11 <0> d           4.401   0.783  -1.104  0.00  0.00     0.027 H 
ENDBRANCH  10  13
ENDBRANCH   1  10
BRANCH   1  17
ATOM     17  C6  <0> d           0.026   1.796  -0.002  0.00  0.00     0.127 C 
ATOM     18  O1  <0> d          -0.285   0.629  -0.002  0.00  0.00    -0.298 OA
BRANCH  17  19
ATOM     19  C7  <0> d          -1.040   2.859  -0.072  0.00  0.00    -0.021 C 
ATOM     20  H12 <0> d          -1.325   3.107   0.854  0.00  0.00     0.037 H 
ATOM     21  H13 <0> d          -0.643   3.739  -0.577  0.00  0.00     0.037 H 
ATOM     22  H14 <0> d          -1.898   2.478  -0.626  0.00  0.00     0.037 H 
ENDBRANCH  17  19
ENDBRANCH   1  17
TORSDOF 6
