REMARK  2 active torsions:
REMARK  status: ('A' for Active; 'I' for Inactive)
REMARK    1  A    between atoms: C1_1  and  N1_2 
REMARK    2  A    between atoms: N1_2  and  C2_3 
ROOT
ATOM      1  C2  <0> d           2.401   0.029  -0.021  0.00  0.00     0.030 A 
ATOM      2  C3  <0> d           1.207  -0.680  -0.013  0.00  0.00    -0.054 A 
ATOM      3  C4  <0> d           0.002  -0.004   0.002  0.00  0.00    -0.041 A 
ATOM      4  C5  <0> d          -0.017   1.380   0.010  0.00  0.00     0.154 A 
ATOM      5  C6  <0> d           1.174   2.091   0.002  0.00  0.00     0.157 A 
ATOM      6  C7  <0> d           2.382   1.418  -0.013  0.00  0.00    -0.017 A 
ATOM      7  F1  <0> d           1.153   3.442   0.010  0.00  0.00    -0.203 F 
ATOM      8  F2  <0> d          -1.196   2.039   0.019  0.00  0.00    -0.203 F 
ATOM      9  H5  <0> d           1.220  -1.760  -0.019  0.00  0.00     0.087 H 
ATOM     10  H6  <0> d          -0.926  -0.556   0.008  0.00  0.00     0.088 H 
ATOM     11  H7  <0> d           3.309   1.971  -0.019  0.00  0.00     0.091 H 
ENDROOT
BRANCH   1  12
ATOM     12  N1  <0> d           3.621  -0.654  -0.036  0.00  0.00    -0.394 N 
ATOM     13  H4  <0> d           3.635  -1.754  -0.041  0.00  0.00     0.159 HD
BRANCH  12  14
ATOM     14  C1  <0> d           4.880   0.095  -0.044  0.00  0.00    -0.021 C 
ATOM     15  H1  <0> d           5.725  -0.608  -0.055  0.00  0.00     0.056 H 
ATOM     16  H2  <0> d           4.938   0.724   0.857  0.00  0.00     0.056 H 
ATOM     17  H3  <0> d           4.921   0.733  -0.939  0.00  0.00     0.056 H 
ENDBRANCH  12  14
ENDBRANCH   1  12
TORSDOF 2
