REMARK  3 active torsions:
REMARK  status: ('A' for Active; 'I' for Inactive)
REMARK    1  A    between atoms: C1_1  and  N1_2 
REMARK    2  A    between atoms: N1_2  and  C2_3 
REMARK    3  A    between atoms: N1_2  and  C3_4 
ROOT
ATOM      1  C3  <0> d          -0.000  -0.696  -1.211  0.00  0.00     0.029 A 
ATOM      2  C4  <0> d           0.013  -2.085  -1.221  0.00  0.00    -0.057 A 
ATOM      3  C5  <0> d           0.010  -2.766  -2.422  0.00  0.00    -0.081 A 
ATOM      4  C6  <0> d          -0.005  -2.066  -3.615  0.00  0.00    -0.083 A 
ATOM      5  C7  <0> d          -0.018  -0.684  -3.609  0.00  0.00    -0.081 A 
ATOM      6  C8  <0> d          -0.021   0.004  -2.411  0.00  0.00    -0.057 A 
ATOM      7  H7  <0> d           0.025  -2.632  -0.289  0.00  0.00     0.086 H 
ATOM      8  H8  <0> d           0.021  -3.846  -2.430  0.00  0.00     0.083 H 
ATOM      9  H9  <0> d          -0.006  -2.601  -4.553  0.00  0.00     0.083 H 
ATOM     10  H10 <0> d          -0.029  -0.140  -4.543  0.00  0.00     0.083 H 
ATOM     11  H11 <0> d          -0.036   1.083  -2.408  0.00  0.00     0.086 H 
ENDROOT
BRANCH   1  12
ATOM     12  N1  <0> d           0.002  -0.004   0.002  0.00  0.00    -0.390 N 
BRANCH  12  13
ATOM     13  C1  <0> d          -0.018   1.461   0.010  0.00  0.00    -0.019 C 
ATOM     14  H1  <0> d           1.005   1.838   0.002  0.00  0.00     0.056 H 
ATOM     15  H2  <0> d          -0.545   1.822  -0.873  0.00  0.00     0.056 H 
ATOM     16  H3  <0> d          -0.528   1.812   0.907  0.00  0.00     0.056 H 
ENDBRANCH  12  13
BRANCH  12  17
ATOM     17  C2  <0> d           0.024  -0.743   1.267  0.00  0.00    -0.019 C 
ATOM     18  H4  <0> d           0.022  -0.040   2.099  0.00  0.00     0.056 H 
ATOM     19  H5  <0> d          -0.857  -1.382   1.329  0.00  0.00     0.056 H 
ATOM     20  H6  <0> d           0.923  -1.358   1.312  0.00  0.00     0.056 H 
ENDBRANCH  12  17
ENDBRANCH   1  12
TORSDOF 3
