REMARK  2 active torsions:
REMARK  status: ('A' for Active; 'I' for Inactive)
REMARK    1  A    between atoms: C1_1  and  C2_2 
REMARK    2  A    between atoms: C4_4  and  N3_12 
ROOT
ATOM      1  C2  <0> d          -3.022   3.961   0.051  0.00  0.00    -0.058 A 
ATOM      2  C3  <0> d          -3.460   2.644   0.048  0.00  0.00    -0.051 A 
ATOM      3  C4  <0> d          -2.551   1.603   0.035  0.00  0.00     0.040 A 
ATOM      4  C5  <0> d          -1.173   1.885   0.017  0.00  0.00     0.037 A 
ATOM      5  C6  <0> d          -0.013   1.076   0.008  0.00  0.00     0.036 A 
ATOM      6  N1  <0> d           1.034   1.849   0.002  0.00  0.00    -0.186 NA
ATOM      7  N2  <0> d           0.632   3.190   0.013  0.00  0.00    -0.278 N 
ATOM      8  H1  <0> d           1.238   3.985   0.012  0.00  0.00     0.189 HD
ATOM      9  C7  <0> d          -0.739   3.223   0.026  0.00  0.00     0.064 A 
ATOM     10  C8  <0> d          -1.677   4.253   0.041  0.00  0.00    -0.049 A 
ATOM     11  H5  <0> d          -4.519   2.431   0.056  0.00  0.00     0.087 H 
ATOM     12  H6  <0> d           0.002  -0.004   0.002  0.00  0.00     0.118 H 
ATOM     13  H7  <0> d          -1.348   5.282   0.043  0.00  0.00     0.087 H 
ENDROOT
BRANCH   1  14
ATOM     14  C1  <0> d          -4.029   5.082   0.065  0.00  0.00    -0.051 C 
ATOM     15  H2  <0> d          -4.280   5.357  -0.959  0.00  0.00     0.033 H 
ATOM     16  H3  <0> d          -4.929   4.755   0.585  0.00  0.00     0.033 H 
ATOM     17  H4  <0> d          -3.605   5.945   0.579  0.00  0.00     0.033 H 
ENDBRANCH   1  14
BRANCH   3  18
ATOM     18  N3  <0> d          -2.997   0.282   0.032  0.00  0.00    -0.398 N 
ATOM     19  H8  <0> d          -3.948   0.092   0.039  0.00  0.00     0.156 HD
ATOM     20  H9  <0> d          -2.356  -0.446   0.022  0.00  0.00     0.156 HD
ENDBRANCH   3  18
TORSDOF 2
