REMARK  0 active torsions:
REMARK  status: ('A' for Active; 'I' for Inactive)
ROOT
ATOM      1  C1  <0> d           1.184   5.958   0.277  0.00  0.00    -0.113 C 
ATOM      2  C2  <0> d           0.068   5.281   0.043  0.00  0.00    -0.034 C 
ATOM      3  C3  <0> d          -1.253   5.983  -0.220  0.00  0.00    -0.019 C 
ATOM      4  C4  <0> d          -2.342   5.191   0.517  0.00  0.00     0.030 C 
ATOM      5  O1  <0> d          -2.355   3.847   0.037  0.00  0.00    -0.348 OA
ATOM      6  C5  <0> d          -1.196   3.146   0.029  0.00  0.00     0.098 A 
ATOM      7  C6  <0> d           0.043   3.797   0.024  0.00  0.00     0.095 A 
ATOM      8  N1  <0> d           1.174   3.106   0.008  0.00  0.00    -0.258 NA
ATOM      9  C7  <0> d           1.173   1.788   0.001  0.00  0.00     0.003 A 
ATOM     10  C8  <0> d          -0.013   1.076   0.008  0.00  0.00    -0.063 A 
ATOM     11  C9  <0> d          -1.221   1.757   0.017  0.00  0.00    -0.047 A 
ATOM     12  H1  <0> d           1.169   7.058   0.284  0.00  0.00     0.067 H 
ATOM     13  H2  <0> d           2.125   5.420   0.464  0.00  0.00     0.067 H 
ATOM     14  H3  <0> d          -1.201   7.015   0.159  0.00  0.00     0.043 H 
ATOM     15  H4  <0> d          -1.451   6.000  -1.302  0.00  0.00     0.043 H 
ATOM     16  H5  <0> d          -2.131   5.194   1.597  0.00  0.00     0.075 H 
ATOM     17  H6  <0> d          -3.322   5.657   0.334  0.00  0.00     0.075 H 
ATOM     18  H7  <0> d           2.113   1.256  -0.012  0.00  0.00     0.114 H 
ATOM     19  H8  <0> d           0.002  -0.004   0.002  0.00  0.00     0.085 H 
ATOM     20  H9  <0> d          -2.158   1.220   0.019  0.00  0.00     0.087 H 
ENDROOT
TORSDOF 0
