REMARK  5 active torsions:
REMARK  status: ('A' for Active; 'I' for Inactive)
REMARK    1  A    between atoms: C1_1  and  C2_2 
REMARK    2  A    between atoms: C2_2  and  C3_3 
REMARK    3  A    between atoms: C3_3  and  C4_4 
REMARK    4  A    between atoms: C7_7  and  O1_11 
REMARK    5  A    between atoms: C8_8  and  N1_10 
ROOT
ATOM      1  C4  <0> d          -1.413  -2.041   0.005  0.00  0.00    -0.056 A 
ATOM      2  C5  <0> d          -1.409  -2.724  -1.198  0.00  0.00    -0.074 A 
ATOM      3  C6  <0> d          -1.390  -4.106  -1.211  0.00  0.00    -0.048 A 
ATOM      4  C7  <0> d          -1.374  -4.811  -0.019  0.00  0.00     0.091 A 
ATOM      5  C8  <0> d          -1.378  -4.123   1.193  0.00  0.00     0.059 A 
ATOM      6  C9  <0> d          -1.392  -2.736   1.199  0.00  0.00    -0.049 A 
ATOM      7  H8  <0> d          -1.422  -2.176  -2.128  0.00  0.00     0.084 H 
ATOM      8  H9  <0> d          -1.387  -4.636  -2.152  0.00  0.00     0.087 H 
ATOM      9  H10 <0> d          -1.391  -2.200   2.136  0.00  0.00     0.087 H 
ENDROOT
BRANCH   1  10
ATOM     10  C3  <0> d          -1.433  -0.534   0.013  0.00  0.00    -0.041 C 
ATOM     11  H6  <0> d          -1.944  -0.182   0.910  0.00  0.00     0.040 H 
ATOM     12  H7  <0> d          -1.960  -0.173  -0.870  0.00  0.00     0.040 H 
BRANCH  10  13
ATOM     13  C2  <0> d           0.002  -0.004   0.002  0.00  0.00    -0.065 C 
ATOM     14  H4  <0> d           0.512  -0.356  -0.895  0.00  0.00     0.032 H 
ATOM     15  H5  <0> d           0.529  -0.365   0.885  0.00  0.00     0.032 H 
BRANCH  13  16
ATOM     16  C1  <0> d          -0.019   1.526   0.010  0.00  0.00    -0.076 C 
ATOM     17  H1  <0> d           1.004   1.903   0.003  0.00  0.00     0.027 H 
ATOM     18  H2  <0> d          -0.546   1.887  -0.873  0.00  0.00     0.027 H 
ATOM     19  H3  <0> d          -0.529   1.877   0.907  0.00  0.00     0.027 H 
ENDBRANCH  13  16
ENDBRANCH  10  13
ENDBRANCH   1  10
BRANCH   5  20
ATOM     20  N1  <0> d          -1.363  -4.830   2.401  0.00  0.00    -0.397 N 
ATOM     21  H11 <0> d          -1.350  -5.800   2.395  0.00  0.00     0.156 HD
ATOM     22  H12 <0> d          -1.365  -4.351   3.243  0.00  0.00     0.156 HD
ENDBRANCH   5  20
BRANCH   4  23
ATOM     23  O1  <0> d          -1.356  -6.171  -0.031  0.00  0.00    -0.358 OA
ATOM     24  H13 <0> d          -0.467  -6.552  -0.039  0.00  0.00     0.217 HD
ENDBRANCH   4  23
TORSDOF 5
