REMARK  2 active torsions:
REMARK  status: ('A' for Active; 'I' for Inactive)
REMARK    1  A    between atoms: C3_3  and  C5_6 
REMARK    2  A    between atoms: C8_9  and  N1_12 
ROOT
ATOM      1  C5  <0> d           1.187   1.791   0.000  0.00  0.00    -0.002 A 
ATOM      2  C6  <0> d          -0.013   1.076   0.008  0.00  0.00    -0.068 A 
ATOM      3  C7  <0> d          -1.215   1.749   0.017  0.00  0.00    -0.057 A 
ATOM      4  C8  <0> d          -1.234   3.139   0.031  0.00  0.00     0.025 A 
ATOM      5  C9  <0> d          -0.042   3.855   0.023  0.00  0.00    -0.057 A 
ATOM      6  C10 <0> d           1.163   3.187   0.008  0.00  0.00    -0.068 A 
ATOM      7  H4  <0> d           0.002  -0.004   0.002  0.00  0.00     0.085 H 
ATOM      8  H5  <0> d          -2.143   1.197   0.018  0.00  0.00     0.086 H 
ATOM      9  H6  <0> d          -0.061   4.935   0.029  0.00  0.00     0.086 H 
ATOM     10  H7  <0> d           2.089   3.743   0.002  0.00  0.00     0.085 H 
ENDROOT
BRANCH   1  11
ATOM     11  C3  <0> d           2.478   1.072  -0.015  0.00  0.00     0.085 A 
ATOM     12  C2  <0> d           3.710   1.646  -0.029  0.00  0.00    -0.048 A 
ATOM     13  C1  <0> d           4.648   0.593  -0.038  0.00  0.00    -0.059 A 
ATOM     14  H2  <0> d           3.929   2.704  -0.031  0.00  0.00     0.087 H 
ATOM     15  C4  <0> d           3.949  -0.558  -0.038  0.00  0.00     0.019 A 
ATOM     16  H1  <0> d           5.723   0.691  -0.047  0.00  0.00     0.086 H 
ATOM     17  O1  <0> d           2.637  -0.265  -0.024  0.00  0.00    -0.322 OA
ATOM     18  H3  <0> d           4.372  -1.552  -0.047  0.00  0.00     0.123 H 
ENDBRANCH   1  11
BRANCH   4  19
ATOM     19  N1  <0> d          -2.454   3.819   0.047  0.00  0.00    -0.399 N 
ATOM     20  H8  <0> d          -2.469   4.789   0.052  0.00  0.00     0.156 HD
ATOM     21  H9  <0> d          -3.287   3.321   0.052  0.00  0.00     0.156 HD
ENDBRANCH   4  19
TORSDOF 2
