REMARK  2 active torsions:
REMARK  status: ('A' for Active; 'I' for Inactive)
REMARK    1  A    between atoms: C5_5  and  N1_12 
REMARK    2  A    between atoms: C9_9  and  O1_11 
ROOT
ATOM      1  C1  <0> d           3.586   1.868  -0.022  0.00  0.00    -0.080 A 
ATOM      2  C2  <0> d           2.434   1.143  -0.015  0.00  0.00    -0.072 A 
ATOM      3  C3  <0> d           1.191   1.800   0.000  0.00  0.00    -0.021 A 
ATOM      4  C4  <0> d          -0.013   1.076   0.008  0.00  0.00    -0.047 A 
ATOM      5  C5  <0> d          -1.212   1.754   0.017  0.00  0.00     0.026 A 
ATOM      6  C6  <0> d          -1.241   3.153   0.032  0.00  0.00    -0.057 A 
ATOM      7  C7  <0> d          -0.089   3.876   0.024  0.00  0.00    -0.067 A 
ATOM      8  C8  <0> d           1.151   3.216   0.008  0.00  0.00     0.007 A 
ATOM      9  C9  <0> d           2.361   3.940   0.001  0.00  0.00     0.076 A 
ATOM     10  C10 <0> d           3.557   3.260  -0.014  0.00  0.00    -0.050 A 
ATOM     11  H1  <0> d           4.536   1.356  -0.034  0.00  0.00     0.083 H 
ATOM     12  H2  <0> d           2.474   0.064  -0.021  0.00  0.00     0.084 H 
ATOM     13  H3  <0> d           0.002  -0.004   0.002  0.00  0.00     0.088 H 
ATOM     14  H4  <0> d          -2.191   3.666   0.044  0.00  0.00     0.086 H 
ATOM     15  H5  <0> d          -0.128   4.955   0.030  0.00  0.00     0.085 H 
ATOM     16  H6  <0> d           4.485   3.812  -0.021  0.00  0.00     0.087 H 
ENDROOT
BRANCH   5  17
ATOM     17  N1  <0> d          -2.410   1.037   0.019  0.00  0.00    -0.399 N 
ATOM     18  H8  <0> d          -2.396   0.067   0.014  0.00  0.00     0.156 HD
ATOM     19  H9  <0> d          -3.257   1.510   0.026  0.00  0.00     0.156 HD
ENDBRANCH   5  17
BRANCH   9  20
ATOM     20  O1  <0> d           2.345   5.298   0.009  0.00  0.00    -0.360 OA
ATOM     21  H7  <0> d           2.350   5.687   0.894  0.00  0.00     0.217 HD
ENDBRANCH   9  20
TORSDOF 2
