REMARK  2 active torsions:
REMARK  status: ('A' for Active; 'I' for Inactive)
REMARK    1  A    between atoms: C1_1  and  C2_2 
REMARK    2  A    between atoms: C9_11  and  N2_12 
ROOT
ATOM      1  C2  <0> d           2.409  -0.007  -0.022  0.00  0.00    -0.023 A 
ATOM      2  C3  <0> d           2.400   1.389  -0.014  0.00  0.00    -0.000 A 
ATOM      3  C4  <0> d           3.449   2.412  -0.019  0.00  0.00    -0.056 A 
ATOM      4  C5  <0> d           2.834   3.606  -0.006  0.00  0.00    -0.022 A 
ATOM      5  N1  <0> d           1.478   3.431   0.007  0.00  0.00    -0.365 N 
ATOM      6  H1  <0> d           0.811   4.306   0.019  0.00  0.00     0.165 HD
ATOM      7  C6  <0> d           1.178   2.085   0.002  0.00  0.00     0.043 A 
ATOM      8  C7  <0> d          -0.017   1.372   0.010  0.00  0.00    -0.054 A 
ATOM      9  C8  <0> d           0.002  -0.004   0.002  0.00  0.00    -0.055 A 
ATOM     10  C9  <0> d           1.212  -0.697  -0.014  0.00  0.00     0.032 A 
ATOM     11  H5  <0> d           4.515   2.239  -0.031  0.00  0.00     0.087 H 
ATOM     12  H6  <0> d           3.337   4.562  -0.005  0.00  0.00     0.111 H 
ATOM     13  H7  <0> d          -0.959   1.899   0.017  0.00  0.00     0.087 H 
ATOM     14  H8  <0> d          -0.929  -0.552   0.008  0.00  0.00     0.087 H 
ENDROOT
BRANCH   1  15
ATOM     15  C1  <0> d           3.716  -0.757  -0.039  0.00  0.00    -0.048 C 
ATOM     16  H2  <0> d           4.550  -0.040  -0.043  0.00  0.00     0.033 H 
ATOM     17  H3  <0> d           3.767  -1.385  -0.941  0.00  0.00     0.033 H 
ATOM     18  H4  <0> d           3.785  -1.394   0.855  0.00  0.00     0.033 H 
ENDBRANCH   1  15
BRANCH  10  19
ATOM     19  N2  <0> d           1.213  -2.097  -0.022  0.00  0.00    -0.399 N 
ATOM     20  H9  <0> d           0.261  -2.648  -0.015  0.00  0.00     0.156 HD
ATOM     21  H10 <0> d           2.166  -2.646  -0.034  0.00  0.00     0.156 HD
ENDBRANCH  10  19
TORSDOF 2
