REMARK  1 active torsions:
REMARK  status: ('A' for Active; 'I' for Inactive)
REMARK    1  A    between atoms: C3_3  and  N3_10 
ROOT
ATOM      1  C1  <0> d          -0.017   1.374   0.010  0.00  0.00    -0.079 A 
ATOM      2  C2  <0> d           1.169   2.095   0.002  0.00  0.00    -0.055 A 
ATOM      3  C3  <0> d           2.386   1.440  -0.013  0.00  0.00     0.057 A 
ATOM      4  C4  <0> d           2.420   0.037  -0.021  0.00  0.00     0.111 A 
ATOM      5  C5  <0> d           1.215  -0.682  -0.013  0.00  0.00     0.064 A 
ATOM      6  C6  <0> d           0.002  -0.004   0.002  0.00  0.00    -0.055 A 
ATOM      7  N1  <0> d           1.568  -2.017  -0.024  0.00  0.00    -0.349 N 
ATOM      8  C7  <0> d           2.928  -2.076  -0.037  0.00  0.00     0.065 A 
ATOM      9  N2  <0> d           3.426  -0.874  -0.035  0.00  0.00    -0.239 NA
ATOM     10  H1  <0> d          -0.962   1.897   0.026  0.00  0.00     0.083 H 
ATOM     11  H2  <0> d           1.140   3.174   0.008  0.00  0.00     0.087 H 
ATOM     12  H3  <0> d          -0.926  -0.557   0.008  0.00  0.00     0.087 H 
ATOM     13  H4  <0> d           3.508  -2.987  -0.047  0.00  0.00     0.143 H 
ATOM     14  H7  <0> d           0.959  -2.772  -0.021  0.00  0.00     0.167 HD
ENDROOT
BRANCH   3  15
ATOM     15  N3  <0> d           3.576   2.171  -0.021  0.00  0.00    -0.397 N 
ATOM     16  H5  <0> d           3.550   3.140  -0.016  0.00  0.00     0.156 HD
ATOM     17  H6  <0> d           4.429   1.709  -0.031  0.00  0.00     0.156 HD
ENDBRANCH   3  15
TORSDOF 1
