REMARK  3 active torsions:
REMARK  status: ('A' for Active; 'I' for Inactive)
REMARK    1  A    between atoms: C1_1  and  C2_2 
REMARK    2  A    between atoms: N1_6  and  C6_9 
REMARK    3  A    between atoms: C6_9  and  C7_10 
ROOT
ATOM      1  C2  <0> d           1.149   1.787   0.001  0.00  0.00     0.037 A 
ATOM      2  C3  <0> d          -0.013   1.076   0.008  0.00  0.00     0.006 A 
ATOM      3  C4  <0> d          -1.235   1.779   0.018  0.00  0.00     0.250 A 
ATOM      4  O1  <0> d          -2.298   1.181   0.019  0.00  0.00    -0.268 OA
ATOM      5  N1  <0> d          -1.203   3.129   0.029  0.00  0.00    -0.305 N 
ATOM      6  C5  <0> d          -0.020   3.774   0.022  0.00  0.00     0.069 A 
ATOM      7  N2  <0> d           1.112   3.122   0.008  0.00  0.00    -0.248 NA
ATOM      8  H4  <0> d           0.002  -0.004   0.002  0.00  0.00     0.095 H 
ATOM      9  H5  <0> d          -0.007   4.854   0.027  0.00  0.00     0.143 H 
ENDROOT
BRANCH   5  10
ATOM     10  C6  <0> d          -2.454   3.892   0.044  0.00  0.00     0.018 C 
ATOM     11  H6  <0> d          -3.223   3.319   0.563  0.00  0.00     0.071 H 
ATOM     12  H7  <0> d          -2.296   4.839   0.561  0.00  0.00     0.071 H 
BRANCH  10  13
ATOM     13  C7  <0> d          -2.896   4.160  -1.371  0.00  0.00    -0.095 C 
ATOM     14  C8  <0> d          -4.093   3.802  -1.762  0.00  0.00    -0.123 C 
ATOM     15  H9  <0> d          -4.764   3.314  -1.071  0.00  0.00     0.066 H 
ATOM     16  H10 <0> d          -4.410   3.994  -2.777  0.00  0.00     0.066 H 
ATOM     17  H8  <0> d          -2.225   4.648  -2.063  0.00  0.00     0.078 H 
ENDBRANCH  10  13
ENDBRANCH   5  10
BRANCH   1  18
ATOM     18  C1  <0> d           2.474   1.069  -0.016  0.00  0.00    -0.035 C 
ATOM     19  H1  <0> d           2.783   0.901  -1.047  0.00  0.00     0.035 H 
ATOM     20  H2  <0> d           3.222   1.675   0.494  0.00  0.00     0.035 H 
ATOM     21  H3  <0> d           2.373   0.110   0.494  0.00  0.00     0.035 H 
ENDBRANCH   1  18
TORSDOF 3
