REMARK  2 active torsions:
REMARK  status: ('A' for Active; 'I' for Inactive)
REMARK    1  A    between atoms: C1_1  and  C2_2 
REMARK    2  A    between atoms: C9_11  and  N3_12 
ROOT
ATOM      1  C2  <0> d           0.002  -0.004   0.002  0.00  0.00    -0.060 A 
ATOM      2  C3  <0> d           0.005  -0.682  -1.215  0.00  0.00    -0.076 A 
ATOM      3  C4  <0> d           0.024  -2.045  -1.256  0.00  0.00    -0.068 A 
ATOM      4  C5  <0> d           0.039  -2.770  -0.059  0.00  0.00     0.022 A 
ATOM      5  C6  <0> d           0.036  -2.084   1.181  0.00  0.00     0.092 A 
ATOM      6  C7  <0> d           0.022  -0.680   1.184  0.00  0.00    -0.047 A 
ATOM      7  N1  <0> d           0.051  -2.790   2.317  0.00  0.00    -0.150 NA
ATOM      8  N2  <0> d           0.069  -4.074   2.314  0.00  0.00    -0.160 NA
ATOM      9  C8  <0> d           0.074  -4.799   1.208  0.00  0.00     0.050 A 
ATOM     10  C9  <0> d           0.059  -4.185  -0.036  0.00  0.00     0.058 A 
ATOM     11  H4  <0> d          -0.007  -0.121  -2.138  0.00  0.00     0.084 H 
ATOM     12  H5  <0> d           0.026  -2.560  -2.205  0.00  0.00     0.085 H 
ATOM     13  H6  <0> d           0.024  -0.139   2.119  0.00  0.00     0.088 H 
ATOM     14  H7  <0> d           0.089  -5.877   1.273  0.00  0.00     0.121 H 
ENDROOT
BRANCH   1  15
ATOM     15  C1  <0> d          -0.018   1.503   0.010  0.00  0.00    -0.051 C 
ATOM     16  H1  <0> d           1.004   1.880   0.003  0.00  0.00     0.033 H 
ATOM     17  H2  <0> d          -0.545   1.864  -0.873  0.00  0.00     0.033 H 
ATOM     18  H3  <0> d          -0.529   1.854   0.907  0.00  0.00     0.033 H 
ENDBRANCH   1  15
BRANCH  10  19
ATOM     19  N3  <0> d           0.063  -4.927  -1.208  0.00  0.00    -0.397 N 
ATOM     20  H8  <0> d           0.052  -4.476  -2.067  0.00  0.00     0.156 HD
ATOM     21  H9  <0> d           0.077  -5.896  -1.169  0.00  0.00     0.156 HD
ENDBRANCH  10  19
TORSDOF 2
