REMARK  3 active torsions:
REMARK  status: ('A' for Active; 'I' for Inactive)
REMARK    1  A    between atoms: C1_1  and  N1_2 
REMARK    2  A    between atoms: C2_3  and  C5_7 
REMARK    3  A    between atoms: C5_7  and  O1_8 
ROOT
ATOM      1  N1  <0> d           2.159   3.955   0.008  0.00  0.00    -0.277 N 
ATOM      2  C2  <0> d           1.147   3.062   0.008  0.00  0.00     0.054 A 
ATOM      3  C3  <0> d          -0.015   3.756   0.023  0.00  0.00    -0.039 A 
ATOM      4  C4  <0> d           0.297   5.119   0.028  0.00  0.00     0.024 A 
ATOM      5  N2  <0> d           1.600   5.240   0.016  0.00  0.00    -0.185 NA
ATOM      6  H4  <0> d          -1.008   3.331   0.030  0.00  0.00     0.088 H 
ATOM      7  H5  <0> d          -0.414   5.931   0.040  0.00  0.00     0.117 H 
ENDROOT
BRANCH   2   8
ATOM      8  C5  <0> d           1.286   1.562  -0.002  0.00  0.00     0.056 C 
ATOM      9  H6  <0> d           1.840   1.243   0.881  0.00  0.00     0.083 H 
ATOM     10  H7  <0> d           1.823   1.252  -0.899  0.00  0.00     0.083 H 
BRANCH   8  11
ATOM     11  O1  <0> d          -0.011   0.963   0.007  0.00  0.00    -0.395 OA
ATOM     12  H8  <0> d           0.002  -0.004   0.002  0.00  0.00     0.209 HD
ENDBRANCH   8  11
ENDBRANCH   2   8
BRANCH   1  13
ATOM     13  C1  <0> d           3.589   3.638  -0.001  0.00  0.00     0.003 C 
ATOM     14  H1  <0> d           3.938   3.565  -1.031  0.00  0.00     0.059 H 
ATOM     15  H2  <0> d           4.139   4.424   0.515  0.00  0.00     0.059 H 
ATOM     16  H3  <0> d           3.753   2.687   0.506  0.00  0.00     0.059 H 
ENDBRANCH   1  13
TORSDOF 3
