REMARK  2 active torsions:
REMARK  status: ('A' for Active; 'I' for Inactive)
REMARK    1  A    between atoms: C1_1  and  C2_2 
REMARK    2  A    between atoms: C7_7  and  C8_8 
ROOT
ATOM      1  C8  <0> d          -0.018   1.468   0.010  0.00  0.00     0.039 C 
ATOM      2  C9  <0> d           0.002  -0.004   0.002  0.00  0.00     0.063 C 
ATOM      3  N1  <0> d           0.018  -1.140  -0.004  0.00  0.00    -0.197 NA
ATOM      4  H8  <0> d          -0.545   1.829  -0.873  0.00  0.00     0.062 H 
ATOM      5  H9  <0> d          -0.528   1.819   0.907  0.00  0.00     0.062 H 
ENDROOT
BRANCH   1   6
ATOM      6  C7  <0> d           1.396   1.989  -0.001  0.00  0.00    -0.039 A 
ATOM      7  C2  <0> d           2.069   2.137  -1.199  0.00  0.00    -0.055 A 
ATOM      8  C3  <0> d           3.366   2.616  -1.208  0.00  0.00    -0.077 A 
ATOM      9  C4  <0> d           3.989   2.947  -0.020  0.00  0.00    -0.082 A 
ATOM     10  H4  <0> d           3.892   2.732  -2.145  0.00  0.00     0.084 H 
ATOM     11  C5  <0> d           3.316   2.799   1.178  0.00  0.00    -0.082 A 
ATOM     12  H5  <0> d           5.002   3.322  -0.028  0.00  0.00     0.083 H 
ATOM     13  C6  <0> d           2.018   2.325   1.188  0.00  0.00    -0.075 A 
ATOM     14  H6  <0> d           3.803   3.058   2.107  0.00  0.00     0.083 H 
ATOM     15  H7  <0> d           1.490   2.214   2.123  0.00  0.00     0.084 H 
BRANCH   7  16
ATOM     16  C1  <0> d           1.389   1.777  -2.494  0.00  0.00    -0.051 C 
ATOM     17  H1  <0> d           0.870   2.651  -2.888  0.00  0.00     0.033 H 
ATOM     18  H2  <0> d           2.135   1.442  -3.215  0.00  0.00     0.033 H 
ATOM     19  H3  <0> d           0.670   0.977  -2.317  0.00  0.00     0.033 H 
ENDBRANCH   7  16
ENDBRANCH   1   6
TORSDOF 2
