REMARK  3 active torsions:
REMARK  status: ('A' for Active; 'I' for Inactive)
REMARK    1  A    between atoms: C3_3  and  O2_10 
REMARK    2  A    between atoms: C6_6  and  C7_7 
REMARK    3  A    between atoms: C7_7  and  O1_8 
ROOT
ATOM      1  C1  <0> d          -0.017   1.378   0.010  0.00  0.00    -0.072 A 
ATOM      2  C2  <0> d           1.170   2.087   0.002  0.00  0.00    -0.047 A 
ATOM      3  C3  <0> d           2.380   1.412  -0.013  0.00  0.00     0.104 A 
ATOM      4  C4  <0> d           2.397   0.023  -0.021  0.00  0.00     0.149 A 
ATOM      5  C5  <0> d           1.208  -0.682  -0.013  0.00  0.00    -0.035 A 
ATOM      6  C6  <0> d           0.002  -0.004   0.002  0.00  0.00    -0.032 A 
ATOM      7  F1  <0> d           3.575  -0.639  -0.036  0.00  0.00    -0.203 F 
ATOM      8  H1  <0> d          -0.960   1.904   0.026  0.00  0.00     0.084 H 
ATOM      9  H2  <0> d           1.153   3.167   0.008  0.00  0.00     0.087 H 
ATOM     10  H3  <0> d           1.220  -1.762  -0.019  0.00  0.00     0.089 H 
ENDROOT
BRANCH   6  11
ATOM     11  C7  <0> d          -1.294  -0.774   0.011  0.00  0.00     0.041 C 
ATOM     12  H4  <0> d          -1.146  -1.727   0.518  0.00  0.00     0.081 H 
ATOM     13  H5  <0> d          -2.055  -0.197   0.535  0.00  0.00     0.081 H 
BRANCH  11  14
ATOM     14  O1  <0> d          -1.716  -1.010  -1.334  0.00  0.00    -0.396 OA
ATOM     15  H6  <0> d          -2.546  -1.502  -1.404  0.00  0.00     0.209 HD
ENDBRANCH  11  14
ENDBRANCH   6  11
BRANCH   3  16
ATOM     16  O2  <0> d           3.548   2.108  -0.021  0.00  0.00    -0.358 OA
ATOM     17  H7  <0> d           3.895   2.305   0.860  0.00  0.00     0.217 HD
ENDBRANCH   3  16
TORSDOF 3
