REMARK  4 active torsions:
REMARK  status: ('A' for Active; 'I' for Inactive)
REMARK    1  A    between atoms: C1_1  and  C2_2 
REMARK    2  A    between atoms: C5_5  and  N1_7 
REMARK    3  A    between atoms: N1_7  and  C6_8 
REMARK    4  A    between atoms: N1_7  and  C7_9 
ROOT
ATOM      1  C2  <0> d           1.157   2.054   0.002  0.00  0.00    -0.019 A 
ATOM      2  C3  <0> d          -0.017   1.380   0.010  0.00  0.00    -0.068 A 
ATOM      3  C4  <0> d           0.002  -0.004   0.002  0.00  0.00    -0.050 A 
ATOM      4  C5  <0> d           1.205  -0.643  -0.013  0.00  0.00     0.071 A 
ATOM      5  S1  <0> d           2.350   0.726  -0.017  0.00  0.00    -0.078 SA
ATOM      6  H4  <0> d          -0.955   1.914   0.017  0.00  0.00     0.085 H 
ATOM      7  H5  <0> d          -0.920  -0.567   0.008  0.00  0.00     0.087 H 
ENDROOT
BRANCH   4   8
ATOM      8  N1  <0> d           1.472  -2.014  -0.022  0.00  0.00    -0.384 N 
BRANCH   8   9
ATOM      9  C6  <0> d           0.368  -2.976  -0.017  0.00  0.00    -0.018 C 
ATOM     10  H6  <0> d           0.084  -3.209  -1.043  0.00  0.00     0.056 H 
ATOM     11  H7  <0> d           0.683  -3.888   0.490  0.00  0.00     0.056 H 
ATOM     12  H8  <0> d          -0.486  -2.546   0.508  0.00  0.00     0.056 H 
ENDBRANCH   8   9
BRANCH   8  13
ATOM     13  C7  <0> d           2.858  -2.490  -0.038  0.00  0.00    -0.018 C 
ATOM     14  H9  <0> d           3.212  -2.613   0.985  0.00  0.00     0.056 H 
ATOM     15  H10 <0> d           2.908  -3.447  -0.557  0.00  0.00     0.056 H 
ATOM     16  H11 <0> d           3.486  -1.763  -0.555  0.00  0.00     0.056 H 
ENDBRANCH   8  13
ENDBRANCH   4   8
BRANCH   1  17
ATOM     17  C1  <0> d           1.396   3.542   0.007  0.00  0.00    -0.045 C 
ATOM     18  H1  <0> d           1.463   3.896   1.036  0.00  0.00     0.034 H 
ATOM     19  H2  <0> d           2.327   3.762  -0.514  0.00  0.00     0.034 H 
ATOM     20  H3  <0> d           0.570   4.044  -0.497  0.00  0.00     0.034 H 
ENDBRANCH   1  17
TORSDOF 4
