REMARK  0 active torsions:
REMARK  status: ('A' for Active; 'I' for Inactive)
ROOT
ATOM      1  C1  <0> d           1.196  -0.701  -0.013  0.00  0.00    -0.064 A 
ATOM      2  C2  <0> d           2.386   0.008  -0.018  0.00  0.00    -0.054 A 
ATOM      3  C3  <0> d           2.329   1.399  -0.009  0.00  0.00     0.052 A 
ATOM      4  C4  <0> d           1.095   2.031   0.003  0.00  0.00     0.060 A 
ATOM      5  N1  <0> d          -0.016   1.313   0.009  0.00  0.00    -0.263 NA
ATOM      6  C5  <0> d           0.002  -0.004   0.002  0.00  0.00     0.003 A 
ATOM      7  C6  <0> d           0.987   3.534   0.004  0.00  0.00    -0.021 C 
ATOM      8  C7  <0> d           2.288   4.164   0.500  0.00  0.00    -0.045 C 
ATOM      9  C8  <0> d           3.461   3.576  -0.295  0.00  0.00    -0.007 C 
ATOM     10  N2  <0> d           3.518   2.135  -0.009  0.00  0.00    -0.388 N 
ATOM     11  H1  <0> d           1.201  -1.781  -0.021  0.00  0.00     0.085 H 
ATOM     12  H2  <0> d           3.336  -0.506  -0.029  0.00  0.00     0.087 H 
ATOM     13  H3  <0> d          -0.931  -0.548   0.007  0.00  0.00     0.114 H 
ATOM     14  H4  <0> d           0.168   3.837   0.656  0.00  0.00     0.042 H 
ATOM     15  H5  <0> d           0.785   3.878  -1.011  0.00  0.00     0.042 H 
ATOM     16  H6  <0> d           2.419   3.944   1.560  0.00  0.00     0.035 H 
ATOM     17  H7  <0> d           2.251   5.243   0.352  0.00  0.00     0.035 H 
ATOM     18  H8  <0> d           4.392   4.051   0.014  0.00  0.00     0.064 H 
ATOM     19  H9  <0> d           3.300   3.735  -1.361  0.00  0.00     0.064 H 
ATOM     20  H10 <0> d           4.366   1.702   0.176  0.00  0.00     0.159 HD
ENDROOT
TORSDOF 0
