REMARK  2 active torsions:
REMARK  status: ('A' for Active; 'I' for Inactive)
REMARK    1  A    between atoms: C1_1  and  C2_2 
REMARK    2  A    between atoms: N1_10  and  C10_11 
ROOT
ATOM      1  C2  <0> d          -1.724   5.327   0.045  0.00  0.00     0.008 A 
ATOM      2  C3  <0> d          -0.384   5.261   0.032  0.00  0.00    -0.049 A 
ATOM      3  C4  <0> d          -0.025   3.840   0.021  0.00  0.00    -0.007 A 
ATOM      4  C5  <0> d           1.186   3.146   0.007  0.00  0.00    -0.071 A 
ATOM      5  C6  <0> d           1.184   1.779   0.000  0.00  0.00    -0.082 A 
ATOM      6  C7  <0> d          -0.013   1.076   0.008  0.00  0.00    -0.081 A 
ATOM      7  C8  <0> d          -1.219   1.741   0.017  0.00  0.00    -0.056 A 
ATOM      8  C9  <0> d          -1.240   3.132   0.030  0.00  0.00     0.044 A 
ATOM      9  N1  <0> d          -2.253   4.065   0.044  0.00  0.00    -0.354 N 
ATOM     10  H4  <0> d           0.301   6.096   0.029  0.00  0.00     0.087 H 
ATOM     11  H5  <0> d           2.121   3.686   0.001  0.00  0.00     0.084 H 
ATOM     12  H6  <0> d           2.121   1.242  -0.011  0.00  0.00     0.083 H 
ATOM     13  H7  <0> d           0.002  -0.004   0.002  0.00  0.00     0.083 H 
ATOM     14  H8  <0> d          -2.144   1.185   0.019  0.00  0.00     0.087 H 
ENDROOT
BRANCH   1  15
ATOM     15  C1  <0> d          -2.528   6.601   0.058  0.00  0.00    -0.037 C 
ATOM     16  H1  <0> d          -2.731   6.913  -0.966  0.00  0.00     0.035 H 
ATOM     17  H2  <0> d          -3.470   6.432   0.580  0.00  0.00     0.035 H 
ATOM     18  H3  <0> d          -1.964   7.381   0.570  0.00  0.00     0.035 H 
ENDBRANCH   1  15
BRANCH   9  19
ATOM     19  C10 <0> d          -3.684   3.752   0.056  0.00  0.00    -0.014 C 
ATOM     20  H9  <0> d          -4.049   3.679  -0.969  0.00  0.00     0.057 H 
ATOM     21  H10 <0> d          -3.845   2.802   0.566  0.00  0.00     0.057 H 
ATOM     22  H11 <0> d          -4.225   4.541   0.579  0.00  0.00     0.057 H 
ENDBRANCH   9  19
TORSDOF 2
