REMARK  1 active torsions:
REMARK  status: ('A' for Active; 'I' for Inactive)
REMARK    1  A    between atoms: C4_4  and  C6_6 
ROOT
ATOM      1  C1  <0> d          -2.243   1.875  -0.703  0.00  0.00    -0.065 C 
ATOM      2  C2  <0> d          -0.809   1.622  -1.200  0.00  0.00    -0.065 C 
ATOM      3  C3  <0> d          -0.013   1.086   0.008  0.00  0.00    -0.061 C 
ATOM      4  C4  <0> d          -0.789   1.611   1.242  0.00  0.00    -0.044 C 
ATOM      5  C5  <0> d          -2.268   1.485   0.789  0.00  0.00    -0.061 C 
ATOM      6  H2  <0> d          -2.497   2.929  -0.818  0.00  0.00     0.033 H 
ATOM      7  H3  <0> d          -2.946   1.259  -1.263  0.00  0.00     0.033 H 
ATOM      8  H4  <0> d          -0.367   2.552  -1.555  0.00  0.00     0.033 H 
ATOM      9  H5  <0> d          -0.816   0.882  -2.000  0.00  0.00     0.033 H 
ATOM     10  H6  <0> d           0.002  -0.004   0.002  0.00  0.00     0.033 H 
ATOM     11  H7  <0> d           1.003   1.480   0.000  0.00  0.00     0.033 H 
ATOM     12  H8  <0> d          -0.534   2.651   1.444  0.00  0.00     0.041 H 
ATOM     13  H9  <0> d          -2.899   2.172   1.353  0.00  0.00     0.033 H 
ATOM     14  H10 <0> d          -2.620   0.460   0.909  0.00  0.00     0.033 H 
ENDROOT
BRANCH   4  15
ATOM     15  C6  <0> d          -0.516   0.735   2.466  0.00  0.00     0.007 C 
ATOM     16  H1  <0> d          -0.805  -0.203   2.276  0.00  0.00     0.052 H 
ATOM     17  C10 <0> d           0.958   0.771   2.810  0.00  0.00     0.131 C 
ATOM     18  C9  <0> d           1.082   1.345   4.211  0.00  0.00    -0.009 C 
ATOM     19  O1  <0> d           1.867   0.410   2.102  0.00  0.00    -0.298 OA
ATOM     20  C8  <0> d          -0.292   1.061   4.867  0.00  0.00    -0.058 C 
ATOM     21  H15 <0> d           1.803   0.901   4.743  0.00  0.00     0.044 H 
ATOM     22  H16 <0> d           1.271   2.417   4.168  0.00  0.00     0.044 H 
ATOM     23  C7  <0> d          -1.275   1.290   3.690  0.00  0.00    -0.055 C 
ATOM     24  H13 <0> d          -0.347   0.032   5.223  0.00  0.00     0.033 H 
ATOM     25  H14 <0> d          -0.486   1.761   5.679  0.00  0.00     0.033 H 
ATOM     26  H11 <0> d          -1.480   2.353   3.564  0.00  0.00     0.034 H 
ATOM     27  H12 <0> d          -2.200   0.736   3.850  0.00  0.00     0.034 H 
ENDBRANCH   4  15
TORSDOF 1
