REMARK  3 active torsions:
REMARK  status: ('A' for Active; 'I' for Inactive)
REMARK    1  A    between atoms: C1_1  and  C2_2 
REMARK    2  A    between atoms: C2_2  and  C3_3 
REMARK    3  A    between atoms: C2_2  and  C4_4 
ROOT
ATOM      1  C2  <0> d          -0.729   1.579   1.267  0.00  0.00    -0.021 C 
ATOM      2  H5  <0> d          -1.758   1.191   1.288  0.00  0.00     0.048 H 
ENDROOT
BRANCH   1   3
ATOM      3  C1  <0> d          -0.013   1.086   0.008  0.00  0.00    -0.068 C 
ATOM      4  H2  <0> d           0.002  -0.014   0.002  0.00  0.00     0.028 H 
ATOM      5  H3  <0> d           1.019   1.467   0.000  0.00  0.00     0.028 H 
ATOM      6  H4  <0> d          -0.545   1.450  -0.883  0.00  0.00     0.028 H 
ENDBRANCH   1   3
BRANCH   1   7
ATOM      7  C3  <0> d          -0.750   3.109   1.275  0.00  0.00    -0.068 C 
ATOM      8  H6  <0> d          -1.264   3.464   2.180  0.00  0.00     0.028 H 
ATOM      9  H7  <0> d          -1.282   3.473   0.384  0.00  0.00     0.028 H 
ATOM     10  H8  <0> d           0.282   3.490   1.267  0.00  0.00     0.028 H 
ENDBRANCH   1   7
BRANCH   1  11
ATOM     11  C4  <0> d           0.000   1.080   2.488  0.00  0.00     0.012 A 
ATOM     12  N1  <0> d          -0.576   0.709   3.666  0.00  0.00    -0.369 N 
ATOM     13  C7  <0> d           0.405   0.315   4.528  0.00  0.00    -0.023 A 
ATOM     14  H1  <0> d          -1.668   0.761   3.785  0.00  0.00     0.165 HD
ATOM     15  C6  <0> d           1.592   0.437   3.900  0.00  0.00    -0.066 A 
ATOM     16  H11 <0> d           0.256  -0.034   5.539  0.00  0.00     0.111 H 
ATOM     17  C5  <0> d           1.334   0.918   2.601  0.00  0.00    -0.060 A 
ATOM     18  H10 <0> d           2.561   0.204   4.315  0.00  0.00     0.085 H 
ATOM     19  H9  <0> d           2.070   1.122   1.837  0.00  0.00     0.086 H 
ENDBRANCH   1  11
TORSDOF 3
