REMARK  2 active torsions:
REMARK  status: ('A' for Active; 'I' for Inactive)
REMARK    1  A    between atoms: C4_4  and  N1_9 
REMARK    2  A    between atoms: C6_6  and  C7_7 
ROOT
ATOM      1  C1  <0> d          -1.324   3.328   0.032  0.00  0.00    -0.063 A 
ATOM      2  C2  <0> d          -2.529   3.999   0.036  0.00  0.00    -0.042 A 
ATOM      3  C3  <0> d          -3.720   3.293   0.039  0.00  0.00     0.142 A 
ATOM      4  C4  <0> d          -3.708   1.901   0.030  0.00  0.00     0.065 A 
ATOM      5  C5  <0> d          -2.504   1.218   0.021  0.00  0.00    -0.038 A 
ATOM      6  C6  <0> d          -1.303   1.931   0.019  0.00  0.00     0.043 A 
ATOM      7  F1  <0> d          -4.896   3.958   0.048  0.00  0.00    -0.204 F 
ATOM      8  H1  <0> d          -0.397   3.882   0.035  0.00  0.00     0.085 H 
ATOM      9  H2  <0> d          -2.543   5.079   0.042  0.00  0.00     0.088 H 
ATOM     10  H3  <0> d          -2.493   0.139   0.015  0.00  0.00     0.088 H 
ENDROOT
BRANCH   4  11
ATOM     11  N1  <0> d          -4.914   1.191   0.032  0.00  0.00    -0.397 N 
ATOM     12  H4  <0> d          -4.906   0.221   0.026  0.00  0.00     0.156 HD
ATOM     13  H5  <0> d          -5.758   1.669   0.039  0.00  0.00     0.156 HD
ENDBRANCH   4  11
BRANCH   6  14
ATOM     14  C7  <0> d          -0.014   1.211   0.009  0.00  0.00     0.209 C 
ATOM     15  O1  <0> d           0.002  -0.004   0.002  0.00  0.00    -0.644 OA
ATOM     16  O2  <0> d           1.143   1.900   0.001  0.00  0.00    -0.644 OA
ENDBRANCH   6  14
TORSDOF 2
