REMARK  0 active torsions:
REMARK  status: ('A' for Active; 'I' for Inactive)
ROOT
ATOM      1  C1  <0> d           0.002  -0.004   0.002  0.00  0.00     0.021 A 
ATOM      2  C2  <0> d          -0.017   1.382   0.010  0.00  0.00     0.021 A 
ATOM      3  N1  <0> d           1.116   2.064   0.003  0.00  0.00    -0.244 NA
ATOM      4  C3  <0> d           2.273   1.425  -0.012  0.00  0.00     0.165 A 
ATOM      5  C4  <0> d           2.295   0.028  -0.020  0.00  0.00     0.176 A 
ATOM      6  N2  <0> d           1.151  -0.651  -0.013  0.00  0.00    -0.245 NA
ATOM      7  C5  <0> d           3.545  -0.671  -0.036  0.00  0.00     0.123 C 
ATOM      8  N3  <0> d           4.537  -1.225  -0.049  0.00  0.00    -0.190 NA
ATOM      9 Cl1  <0> d           3.760   2.320  -0.021  0.00  0.00    -0.059 Cl
ATOM     10  H1  <0> d          -0.927  -0.555   0.008  0.00  0.00     0.117 H 
ATOM     11  H2  <0> d          -0.960   1.907   0.017  0.00  0.00     0.117 H 
ENDROOT
TORSDOF 0
