REMARK  6 active torsions:
REMARK  status: ('A' for Active; 'I' for Inactive)
REMARK    1  A    between atoms: C1_1  and  C2_2 
REMARK    2  A    between atoms: C2_2  and  C3_3 
REMARK    3  A    between atoms: C2_2  and  C4_4 
REMARK    4  A    between atoms: C2_2  and  O3_8 
REMARK    5  A    between atoms: C4_4  and  O2_6 
REMARK    6  A    between atoms: O2_6  and  C5_7 
ROOT
ATOM      1  C2  <0> d           1.286   1.562  -0.002  0.00  0.00     0.138 C 
ENDROOT
BRANCH   1   2
ATOM      2  C1  <0> d           1.145   3.085   0.008  0.00  0.00    -0.039 C 
ATOM      3  H1  <0> d           0.608   3.395   0.904  0.00  0.00     0.032 H 
ATOM      4  H2  <0> d           2.135   3.542   0.001  0.00  0.00     0.032 H 
ATOM      5  H3  <0> d           0.591   3.404  -0.875  0.00  0.00     0.032 H 
ENDBRANCH   1   2
BRANCH   1   6
ATOM      6  C3  <0> d           2.064   1.114   1.238  0.00  0.00    -0.039 C 
ATOM      7  H4  <0> d           2.164   0.029   1.231  0.00  0.00     0.032 H 
ATOM      8  H5  <0> d           3.053   1.571   1.231  0.00  0.00     0.032 H 
ATOM      9  H6  <0> d           1.527   1.423   2.135  0.00  0.00     0.032 H 
ENDBRANCH   1   6
BRANCH   1  10
ATOM     10  C4  <0> d           2.028   1.134  -1.242  0.00  0.00     0.292 C 
ATOM     11  O1  <0> d           3.223   0.956  -1.200  0.00  0.00    -0.262 OA
BRANCH  10  12
ATOM     12  O2  <0> d           1.363   0.951  -2.393  0.00  0.00    -0.324 OA
BRANCH  12  13
ATOM     13  C5  <0> d           2.142   0.538  -3.547  0.00  0.00     0.013 C 
ATOM     14  H7  <0> d           1.483   0.426  -4.408  0.00  0.00     0.067 H 
ATOM     15  H8  <0> d           2.898   1.293  -3.763  0.00  0.00     0.067 H 
ATOM     16  H9  <0> d           2.628  -0.414  -3.335  0.00  0.00     0.067 H 
ENDBRANCH  12  13
ENDBRANCH  10  12
ENDBRANCH   1  10
BRANCH   1  17
ATOM     17  O3  <0> d          -0.011   0.963   0.007  0.00  0.00    -0.380 OA
ATOM     18  H10 <0> d           0.002  -0.004   0.002  0.00  0.00     0.211 HD
ENDBRANCH   1  17
TORSDOF 6
