REMARK  3 active torsions:
REMARK  status: ('A' for Active; 'I' for Inactive)
REMARK    1  A    between atoms: C1_1  and  C2_2 
REMARK    2  A    between atoms: C6_6  and  O1_8 
REMARK    3  A    between atoms: O1_8  and  C7_9 
ROOT
ATOM      1  C2  <0> d           0.002  -0.004   0.002  0.00  0.00     0.054 A 
ATOM      2  C3  <0> d           0.006  -0.689  -1.214  0.00  0.00     0.069 A 
ATOM      3  C4  <0> d           0.025  -2.091  -1.205  0.00  0.00    -0.057 A 
ATOM      4  C5  <0> d           0.039  -2.738   0.014  0.00  0.00    -0.030 A 
ATOM      5  C6  <0> d           0.035  -1.986   1.184  0.00  0.00     0.164 A 
ATOM      6  N1  <0> d           0.022  -0.662   1.142  0.00  0.00    -0.228 NA
ATOM      7  C8  <0> d          -0.011   0.030  -2.453  0.00  0.00     0.101 C 
ATOM      8  N2  <0> d          -0.023   0.600  -3.436  0.00  0.00    -0.191 NA
ATOM      9  H4  <0> d           0.028  -2.651  -2.129  0.00  0.00     0.086 H 
ATOM     10  H5  <0> d           0.054  -3.817   0.059  0.00  0.00     0.090 H 
ENDROOT
BRANCH   1  11
ATOM     11  C1  <0> d          -0.018   1.503   0.010  0.00  0.00    -0.034 C 
ATOM     12  H1  <0> d           1.004   1.880   0.003  0.00  0.00     0.035 H 
ATOM     13  H2  <0> d          -0.545   1.864  -0.873  0.00  0.00     0.035 H 
ATOM     14  H3  <0> d          -0.529   1.854   0.907  0.00  0.00     0.035 H 
ENDBRANCH   1  11
BRANCH   5  15
ATOM     15  O1  <0> d           0.049  -2.616   2.384  0.00  0.00    -0.339 OA
BRANCH  15  16
ATOM     16  C7  <0> d           0.043  -1.791   3.550  0.00  0.00     0.012 C 
ATOM     17  H6  <0> d           0.924  -1.149   3.546  0.00  0.00     0.067 H 
ATOM     18  H7  <0> d          -0.855  -1.173   3.554  0.00  0.00     0.067 H 
ATOM     19  H8  <0> d           0.056  -2.420   4.440  0.00  0.00     0.067 H 
ENDBRANCH  15  16
ENDBRANCH   5  15
TORSDOF 3
