REMARK  2 active torsions:
REMARK  status: ('A' for Active; 'I' for Inactive)
REMARK    1  A    between atoms: C2_2  and  C3_3 
REMARK    2  A    between atoms: C8_8  and  O1_9 
ROOT
ATOM      1  C3  <0> d           0.023  -0.713   1.209  0.00  0.00    -0.004 A 
ATOM      2  C4  <0> d           0.042  -2.108   1.190  0.00  0.00    -0.070 A 
ATOM      3  C5  <0> d           0.039  -2.780  -0.015  0.00  0.00    -0.082 A 
ATOM      4  C6  <0> d           0.017  -2.075  -1.206  0.00  0.00    -0.080 A 
ATOM      5  C7  <0> d          -0.006  -0.693  -1.200  0.00  0.00    -0.050 A 
ATOM      6  C8  <0> d           0.002  -0.004   0.002  0.00  0.00     0.075 A 
ATOM      7  H4  <0> d           0.057  -2.661   2.117  0.00  0.00     0.084 H 
ATOM      8  H5  <0> d           0.053  -3.859  -0.029  0.00  0.00     0.083 H 
ATOM      9  H6  <0> d           0.015  -2.608  -2.146  0.00  0.00     0.083 H 
ATOM     10  H7  <0> d          -0.026  -0.150  -2.133  0.00  0.00     0.087 H 
ENDROOT
BRANCH   1  11
ATOM     11  C2  <0> d           0.025   0.012   2.496  0.00  0.00    -0.079 C 
ATOM     12  C1  <0> d           0.045  -0.663   3.637  0.00  0.00    -0.120 C 
ATOM     13  H1  <0> d           0.060  -1.743   3.626  0.00  0.00     0.066 H 
ATOM     14  H2  <0> d           0.047  -0.133   4.578  0.00  0.00     0.066 H 
ATOM     15  H3  <0> d           0.011   1.092   2.508  0.00  0.00     0.083 H 
ENDBRANCH   1  11
BRANCH   6  16
ATOM     16  O1  <0> d          -0.016   1.354   0.009  0.00  0.00    -0.360 OA
ATOM     17  H8  <0> d           0.862   1.759   0.003  0.00  0.00     0.217 HD
ENDBRANCH   6  16
TORSDOF 2
