REMARK  7 active torsions:
REMARK  status: ('A' for Active; 'I' for Inactive)
REMARK    1  A    between atoms: C1_1  and  C2_2 
REMARK    2  A    between atoms: C2_2  and  C3_3 
REMARK    3  A    between atoms: C3_3  and  C4_4 
REMARK    4  A    between atoms: C4_4  and  O1_5 
REMARK    5  A    between atoms: O1_5  and  C5_6 
REMARK    6  A    between atoms: C5_6  and  C6_7 
REMARK    7  A    between atoms: C6_7  and  O2_8 
ROOT
ATOM      1  C4  <0> d           0.739  -2.027  -1.265  0.00  0.00     0.020 C 
ATOM      2  H8  <0> d           1.266  -2.388  -0.382  0.00  0.00     0.074 H 
ATOM      3  H9  <0> d          -0.284  -2.405  -1.258  0.00  0.00     0.074 H 
ENDROOT
BRANCH   1   4
ATOM      4  C3  <0> d           0.718  -0.497  -1.257  0.00  0.00    -0.045 C 
ATOM      5  H6  <0> d           0.191  -0.136  -2.140  0.00  0.00     0.036 H 
ATOM      6  H7  <0> d           1.741  -0.120  -1.264  0.00  0.00     0.036 H 
BRANCH   4   7
ATOM      7  C2  <0> d           0.002  -0.004   0.002  0.00  0.00    -0.067 C 
ATOM      8  H4  <0> d           0.529  -0.365   0.885  0.00  0.00     0.032 H 
ATOM      9  H5  <0> d          -1.020  -0.381   0.010  0.00  0.00     0.032 H 
BRANCH   7  10
ATOM     10  C1  <0> d          -0.019   1.526   0.010  0.00  0.00    -0.076 C 
ATOM     11  H1  <0> d           1.004   1.903   0.003  0.00  0.00     0.027 H 
ATOM     12  H2  <0> d          -0.546   1.887  -0.873  0.00  0.00     0.027 H 
ATOM     13  H3  <0> d          -0.529   1.877   0.907  0.00  0.00     0.027 H 
ENDBRANCH   7  10
ENDBRANCH   4   7
ENDBRANCH   1   4
BRANCH   1  14
ATOM     14  O1  <0> d           1.408  -2.488  -2.441  0.00  0.00    -0.389 OA
BRANCH  14  15
ATOM     15  C5  <0> d           1.483  -3.911  -2.547  0.00  0.00     0.039 C 
ATOM     16  H10 <0> d           2.025  -4.311  -1.690  0.00  0.00     0.077 H 
ATOM     17  H11 <0> d           0.475  -4.328  -2.566  0.00  0.00     0.077 H 
BRANCH  15  18
ATOM     18  C6  <0> d           2.215  -4.289  -3.836  0.00  0.00     0.036 C 
ATOM     19  H12 <0> d           2.194  -5.371  -3.962  0.00  0.00     0.077 H 
ATOM     20  H13 <0> d           1.723  -3.815  -4.686  0.00  0.00     0.077 H 
BRANCH  18  21
ATOM     21  O2  <0> d           3.571  -3.844  -3.762  0.00  0.00    -0.399 OA
ATOM     22  H14 <0> d           4.096  -4.049  -4.547  0.00  0.00     0.209 HD
ENDBRANCH  18  21
ENDBRANCH  15  18
ENDBRANCH  14  15
ENDBRANCH   1  14
TORSDOF 7
