REMARK  2 active torsions:
REMARK  status: ('A' for Active; 'I' for Inactive)
REMARK    1  A    between atoms: C3_3  and  N1_8 
REMARK    2  A    between atoms: C5_5  and  O1_7 
ROOT
ATOM      1  C1  <0> d          -0.017   1.377   0.010  0.00  0.00    -0.078 A 
ATOM      2  C2  <0> d           1.169   2.087   0.002  0.00  0.00    -0.058 A 
ATOM      3  C3  <0> d           2.383   1.413  -0.013  0.00  0.00     0.028 A 
ATOM      4  C4  <0> d           2.404   0.024  -0.021  0.00  0.00    -0.026 A 
ATOM      5  C5  <0> d           1.212  -0.684  -0.013  0.00  0.00     0.067 A 
ATOM      6  C6  <0> d           0.002  -0.004   0.002  0.00  0.00    -0.051 A 
ATOM      7  H1  <0> d          -0.960   1.904   0.026  0.00  0.00     0.083 H 
ATOM      8  H2  <0> d           1.151   3.167   0.008  0.00  0.00     0.086 H 
ATOM      9  H3  <0> d           3.346  -0.503  -0.034  0.00  0.00     0.091 H 
ATOM     10  H4  <0> d          -0.926  -0.556   0.008  0.00  0.00     0.087 H 
ENDROOT
BRANCH   3  11
ATOM     11  N1  <0> d           3.582   2.130  -0.022  0.00  0.00    -0.399 N 
ATOM     12  H6  <0> d           3.566   3.099  -0.017  0.00  0.00     0.156 HD
ATOM     13  H7  <0> d           4.429   1.658  -0.033  0.00  0.00     0.156 HD
ENDBRANCH   3  11
BRANCH   5  14
ATOM     14  O1  <0> d           1.229  -2.042  -0.021  0.00  0.00    -0.361 OA
ATOM     15  H5  <0> d           1.243  -2.441   0.860  0.00  0.00     0.217 HD
ENDBRANCH   5  14
TORSDOF 2
