REMARK  2 active torsions:
REMARK  status: ('A' for Active; 'I' for Inactive)
REMARK    1  A    between atoms: C1_1  and  N1_2 
REMARK    2  A    between atoms: C4_5  and  N3_11 
ROOT
ATOM      1  N1  <0> d           2.091   0.730  -0.014  0.00  0.00    -0.274 N 
ATOM      2  C2  <0> d           1.329   1.869  -0.001  0.00  0.00     0.066 A 
ATOM      3  C3  <0> d           1.629   3.228   0.004  0.00  0.00    -0.029 A 
ATOM      4  C4  <0> d           0.603   4.155   0.019  0.00  0.00     0.028 A 
ATOM      5  C5  <0> d          -0.729   3.738   0.029  0.00  0.00    -0.057 A 
ATOM      6  C6  <0> d          -1.040   2.411   0.030  0.00  0.00    -0.067 A 
ATOM      7  C7  <0> d          -0.018   1.455   0.010  0.00  0.00     0.011 A 
ATOM      8  C8  <0> d           0.002  -0.004   0.002  0.00  0.00     0.034 A 
ATOM      9  N2  <0> d           1.247  -0.385  -0.012  0.00  0.00    -0.184 NA
ATOM     10  H4  <0> d           2.657   3.557  -0.004  0.00  0.00     0.090 H 
ATOM     11  H5  <0> d          -1.520   4.474   0.041  0.00  0.00     0.086 H 
ATOM     12  H6  <0> d          -2.074   2.098   0.042  0.00  0.00     0.085 H 
ATOM     13  H7  <0> d          -0.862  -0.652   0.007  0.00  0.00     0.118 H 
ENDROOT
BRANCH   1  14
ATOM     14  C1  <0> d           3.556   0.688  -0.029  0.00  0.00     0.003 C 
ATOM     15  H1  <0> d           3.909   0.683  -1.060  0.00  0.00     0.059 H 
ATOM     16  H2  <0> d           3.950   1.564   0.486  0.00  0.00     0.059 H 
ATOM     17  H3  <0> d           3.898  -0.215   0.477  0.00  0.00     0.059 H 
ENDBRANCH   1  14
BRANCH   4  18
ATOM     18  N3  <0> d           0.903   5.519   0.023  0.00  0.00    -0.399 N 
ATOM     19  H8  <0> d           1.827   5.813   0.016  0.00  0.00     0.156 HD
ATOM     20  H9  <0> d           0.186   6.173   0.033  0.00  0.00     0.156 HD
ENDBRANCH   4  18
TORSDOF 2
