REMARK  7 active torsions:
REMARK  status: ('A' for Active; 'I' for Inactive)
REMARK    1  A    between atoms: C1_1  and  C2_2 
REMARK    2  A    between atoms: C2_2  and  C3_4 
REMARK    3  A    between atoms: C2_2  and  O2_9 
REMARK       I    between atoms: C3_4  and  N1_6 
REMARK    4  A    between atoms: N1_6  and  C4_7 
REMARK    5  A    between atoms: N1_6  and  C5_8 
REMARK    6  A    between atoms: O2_9  and  C6_10 
REMARK    7  A    between atoms: C6_10  and  C7_12 
ROOT
ATOM      1  C2  <0> d          -1.296   1.982   0.175  0.00  0.00     0.121 C 
ATOM      2  H1  <0> d          -1.298   2.703   0.993  0.00  0.00     0.098 H 
ENDROOT
BRANCH   1   3
ATOM      3  C1  <0> d          -1.567   2.708  -1.144  0.00  0.00    -0.043 C 
ATOM      4  H2  <0> d          -2.535   3.206  -1.093  0.00  0.00     0.031 H 
ATOM      5  H3  <0> d          -0.786   3.448  -1.319  0.00  0.00     0.031 H 
ATOM      6  H4  <0> d          -1.573   1.986  -1.961  0.00  0.00     0.031 H 
ENDBRANCH   1   3
BRANCH   1   7
ATOM      7  C3  <0> d           0.047   1.302   0.108  0.00  0.00     0.248 C 
ATOM      8  O1  <0> d           0.112   0.107  -0.091  0.00  0.00    -0.270 OA
ATOM      9  N1  <0> d           1.175   2.022   0.265  0.00  0.00    -0.359 N 
BRANCH   9  10
ATOM     10  C4  <0> d           2.477   1.350   0.276  0.00  0.00    -0.017 C 
ATOM     11  H5  <0> d           2.333   0.278   0.145  0.00  0.00     0.056 H 
ATOM     12  H6  <0> d           3.092   1.736  -0.537  0.00  0.00     0.056 H 
ATOM     13  H7  <0> d           2.974   1.537   1.227  0.00  0.00     0.056 H 
ENDBRANCH   9  10
BRANCH   9  14
ATOM     14  C5  <0> d           1.100   3.476   0.424  0.00  0.00    -0.017 C 
ATOM     15  H8  <0> d           1.024   3.722   1.483  0.00  0.00     0.056 H 
ATOM     16  H9  <0> d           1.998   3.934   0.009  0.00  0.00     0.056 H 
ATOM     17  H10 <0> d           0.223   3.854  -0.101  0.00  0.00     0.056 H 
ENDBRANCH   9  14
ENDBRANCH   1   7
BRANCH   1  18
ATOM     18  O2  <0> d          -2.331   0.989   0.403  0.00  0.00    -0.307 OA
BRANCH  18  19
ATOM     19  C6  <0> d          -3.419   1.387   1.081  0.00  0.00     0.255 C 
ATOM     20  O3  <0> d          -3.504   2.528   1.471  0.00  0.00    -0.266 OA
BRANCH  19  21
ATOM     21  C7  <0> d          -4.535   0.412   1.355  0.00  0.00     0.004 C 
ATOM     22  H11 <0> d          -4.281  -0.559   0.930  0.00  0.00     0.041 H 
ATOM     23  H12 <0> d          -4.674   0.312   2.432  0.00  0.00     0.041 H 
ATOM     24  H13 <0> d          -5.456   0.777   0.902  0.00  0.00     0.041 H 
ENDBRANCH  19  21
ENDBRANCH  18  19
ENDBRANCH   1  18
TORSDOF 7
