REMARK  2 active torsions:
REMARK  status: ('A' for Active; 'I' for Inactive)
REMARK    1  A    between atoms: C1_1  and  C2_2 
REMARK    2  A    between atoms: C5_6  and  C6_8 
ROOT
ATOM      1  C2  <0> d           2.369   1.284  -0.013  0.00  0.00     0.058 A 
ATOM      2  C3  <0> d           1.195   2.016   0.001  0.00  0.00     0.112 A 
ATOM      3  C4  <0> d          -0.016   1.324   0.009  0.00  0.00     0.204 A 
ATOM      4  N1  <0> d           0.002  -0.004   0.001  0.00  0.00    -0.322 N 
ATOM      5  C5  <0> d           1.144  -0.662  -0.013  0.00  0.00     0.102 A 
ATOM      6  N2  <0> d           2.305  -0.039  -0.020  0.00  0.00    -0.239 NA
ATOM      7  O1  <0> d          -1.193   1.996   0.017  0.00  0.00    -0.170 OA
ATOM      8 Cl1  <0> d           1.228   3.751   0.009  0.00  0.00    -0.077 Cl
ATOM      9  H7  <0> d          -0.950  -0.555   0.006  0.00  0.00     0.169 HD
ENDROOT
BRANCH   1  10
ATOM     10  C1  <0> d           3.704   1.984  -0.021  0.00  0.00    -0.034 C 
ATOM     11  H1  <0> d           4.510   1.235  -0.032  0.00  0.00     0.035 H 
ATOM     12  H2  <0> d           3.796   2.609   0.879  0.00  0.00     0.035 H 
ATOM     13  H3  <0> d           3.780   2.618  -0.917  0.00  0.00     0.035 H 
ENDBRANCH   1  10
BRANCH   5  14
ATOM     14  C6  <0> d           1.121  -2.169  -0.022  0.00  0.00    -0.021 C 
ATOM     15  H4  <0> d           0.078  -2.520  -0.014  0.00  0.00     0.037 H 
ATOM     16  H5  <0> d           1.642  -2.548   0.870  0.00  0.00     0.037 H 
ATOM     17  H6  <0> d           1.626  -2.538  -0.927  0.00  0.00     0.037 H 
ENDBRANCH   5  14
TORSDOF 2
