REMARK  2 active torsions:
REMARK  status: ('A' for Active; 'I' for Inactive)
REMARK    1  A    between atoms: C1_1  and  O1_2 
REMARK    2  A    between atoms: O1_2  and  C2_3 
ROOT
ATOM      1  C2  <0> d          -1.975   1.163   1.348  0.00  0.00     0.069 A 
ATOM      2  C3  <0> d          -2.588   0.363   0.392  0.00  0.00    -0.048 A 
ATOM      3  C4  <0> d          -3.901  -0.035   0.555  0.00  0.00    -0.042 A 
ATOM      4  C5  <0> d          -4.618   0.369   1.666  0.00  0.00     0.137 A 
ATOM      5  C6  <0> d          -4.010   1.179   2.631  0.00  0.00     0.085 A 
ATOM      6  C7  <0> d          -2.681   1.574   2.465  0.00  0.00    -0.028 A 
ATOM      7  C8  <0> d          -4.747   1.600   3.784  0.00  0.00     0.102 C 
ATOM      8  N1  <0> d          -5.332   1.934   4.699  0.00  0.00    -0.191 NA
ATOM      9  F1  <0> d          -5.903  -0.018   1.820  0.00  0.00    -0.204 F 
ATOM     10  H4  <0> d          -2.035   0.048  -0.480  0.00  0.00     0.087 H 
ATOM     11  H5  <0> d          -4.371  -0.660  -0.191  0.00  0.00     0.088 H 
ATOM     12  H6  <0> d          -2.206   2.200   3.206  0.00  0.00     0.090 H 
ENDROOT
BRANCH   1  13
ATOM     13  O1  <0> d          -0.682   1.547   1.184  0.00  0.00    -0.356 OA
BRANCH  13  14
ATOM     14  C1  <0> d          -0.013   1.086   0.008  0.00  0.00     0.010 C 
ATOM     15  H1  <0> d           0.002  -0.004   0.002  0.00  0.00     0.066 H 
ATOM     16  H2  <0> d           1.010   1.463   0.000  0.00  0.00     0.066 H 
ATOM     17  H3  <0> d          -0.540   1.447  -0.875  0.00  0.00     0.066 H 
ENDBRANCH  13  14
ENDBRANCH   1  13
TORSDOF 2
