REMARK  1 active torsions:
REMARK  status: ('A' for Active; 'I' for Inactive)
REMARK    1  A    between atoms: C1_1  and  N1_2 
ROOT
ATOM      1  N1  <0> d           2.094   4.144   0.004  0.00  0.00    -0.272 N 
ATOM      2  C2  <0> d           1.122   3.178   0.008  0.00  0.00     0.080 A 
ATOM      3  C3  <0> d           1.157   1.771   0.001  0.00  0.00    -0.048 A 
ATOM      4  C4  <0> d          -0.013   1.076   0.008  0.00  0.00    -0.015 A 
ATOM      5  C5  <0> d          -1.241   1.762   0.018  0.00  0.00     0.245 A 
ATOM      6  O1  <0> d          -2.285   1.131   0.019  0.00  0.00    -0.268 OA
ATOM      7  N2  <0> d          -1.277   3.108   0.030  0.00  0.00    -0.320 N 
ATOM      8  H1  <0> d          -2.244   3.632   0.045  0.00  0.00     0.169 HD
ATOM      9  C6  <0> d          -0.107   3.838   0.023  0.00  0.00     0.083 A 
ATOM     10  C7  <0> d           0.162   5.214   0.027  0.00  0.00     0.050 A 
ATOM     11  N3  <0> d           1.456   5.392   0.016  0.00  0.00    -0.182 NA
ATOM     12  H5  <0> d           2.102   1.249  -0.011  0.00  0.00     0.087 H 
ATOM     13  H6  <0> d           0.002  -0.004   0.002  0.00  0.00     0.092 H 
ATOM     14  H7  <0> d          -0.580   5.999   0.038  0.00  0.00     0.121 H 
ENDROOT
BRANCH   1  15
ATOM     15  C1  <0> d           3.540   3.914  -0.011  0.00  0.00     0.003 C 
ATOM     16  H2  <0> d           3.739   2.832  -0.018  0.00  0.00     0.059 H 
ATOM     17  H3  <0> d           3.992   4.364   0.886  0.00  0.00     0.059 H 
ATOM     18  H4  <0> d           3.976   4.373  -0.910  0.00  0.00     0.059 H 
ENDBRANCH   1  15
TORSDOF 1
