REMARK  5 active torsions:
REMARK  status: ('A' for Active; 'I' for Inactive)
REMARK    1  A    between atoms: C1_1  and  C2_2 
REMARK    2  A    between atoms: C1_1  and  C3_4 
REMARK    3  A    between atoms: C3_4  and  C4_5 
REMARK    4  A    between atoms: C3_4  and  O3_7 
REMARK    5  A    between atoms: C3_4  and  O4_8 
ROOT
ATOM      1  C3  <0> d          -1.331   2.074   0.020  0.00  0.00     0.261 C 
ENDROOT
BRANCH   1   2
ATOM      2  C1  <0> d          -2.186   1.607  -1.161  0.00  0.00     0.077 C 
ATOM      3  H1  <0> d          -1.661   1.814  -2.093  0.00  0.00     0.058 H 
ATOM      4  H2  <0> d          -2.368   0.536  -1.076  0.00  0.00     0.058 H 
BRANCH   2   5
ATOM      5  C2  <0> d          -3.501   2.343  -1.150  0.00  0.00     0.178 C 
ATOM      6  O1  <0> d          -3.731   3.157  -0.288  0.00  0.00    -0.648 OA
ATOM      7  O5  <0> d          -4.417   2.094  -2.099  0.00  0.00    -0.648 OA
ENDBRANCH   2   5
ENDBRANCH   1   2
BRANCH   1   8
ATOM      8  C4  <0> d          -0.016   1.338   0.009  0.00  0.00     0.239 C 
ATOM      9  O2  <0> d           1.022   1.956   0.003  0.00  0.00    -0.644 OA
ATOM     10  O6  <0> d           0.002  -0.004   0.002  0.00  0.00    -0.644 OA
ENDBRANCH   1   8
BRANCH   1  11
ATOM     11  O3  <0> d          -2.019   1.803   1.242  0.00  0.00    -0.357 OA
ATOM     12  H3  <0> d          -2.215   0.867   1.385  0.00  0.00     0.213 HD
ENDBRANCH   1  11
BRANCH   1  13
ATOM     13  O4  <0> d          -1.092   3.478  -0.091  0.00  0.00    -0.357 OA
ATOM     14  H4  <0> d          -0.628   3.736  -0.899  0.00  0.00     0.213 HD
ENDBRANCH   1  13
TORSDOF 5
