REMARK  2 active torsions:
REMARK  status: ('A' for Active; 'I' for Inactive)
REMARK    1  A    between atoms: C1_1  and  S1_2 
REMARK    2  A    between atoms: S1_2  and  C2_3 
ROOT
ATOM      1  C2  <0> d           1.681   2.259  -0.002  0.00  0.00     0.094 A 
ATOM      2  C3  <0> d           2.039   3.604  -0.004  0.00  0.00    -0.049 A 
ATOM      3  C4  <0> d           3.380   3.943  -0.009  0.00  0.00    -0.077 A 
ATOM      4  C5  <0> d           4.322   2.923  -0.024  0.00  0.00    -0.044 A 
ATOM      5  C6  <0> d           3.897   1.609  -0.027  0.00  0.00     0.127 A 
ATOM      6  N1  <0> d           2.609   1.314  -0.016  0.00  0.00    -0.230 NA
ATOM      7 Cl1  <0> d           5.069   0.328  -0.045  0.00  0.00    -0.062 Cl
ATOM      8  H4  <0> d           1.281   4.372   0.003  0.00  0.00     0.087 H 
ATOM      9  H5  <0> d           3.688   4.979  -0.007  0.00  0.00     0.083 H 
ATOM     10  H6  <0> d           5.377   3.155  -0.033  0.00  0.00     0.088 H 
ENDROOT
BRANCH   1  11
ATOM     11  S1  <0> d          -0.022   1.810   0.012  0.00  0.00    -0.115 SA
BRANCH  11  12
ATOM     12  C1  <0> d           0.002  -0.004   0.002  0.00  0.00    -0.029 C 
ATOM     13  H1  <0> d          -1.020  -0.381   0.010  0.00  0.00     0.042 H 
ATOM     14  H2  <0> d           0.512  -0.356  -0.895  0.00  0.00     0.042 H 
ATOM     15  H3  <0> d           0.529  -0.365   0.885  0.00  0.00     0.042 H 
ENDBRANCH  11  12
ENDBRANCH   1  11
TORSDOF 2
