REMARK  6 active torsions:
REMARK  status: ('A' for Active; 'I' for Inactive)
REMARK    1  A    between atoms: C1_1  and  C2_2 
REMARK    2  A    between atoms: C2_2  and  C3_3 
REMARK    3  A    between atoms: C2_2  and  C4_4 
REMARK    4  A    between atoms: C4_4  and  C7_9 
REMARK    5  A    between atoms: C7_9  and  C8_10 
REMARK    6  A    between atoms: C7_9  and  C9_11 
ROOT
ATOM      1  C4  <0> d          -1.522   2.678  -0.693  0.00  0.00     0.170 C 
ATOM      2  O1  <0> d          -0.794   1.551  -1.198  0.00  0.00    -0.352 OA
ATOM      3  C5  <0> d          -0.011   1.023  -0.108  0.00  0.00     0.043 C 
ATOM      4  C6  <0> d          -0.744   1.559   1.147  0.00  0.00     0.043 C 
ATOM      5  O2  <0> d          -1.186   2.863   0.693  0.00  0.00    -0.352 OA
ATOM      6  H8  <0> d          -0.018  -0.067  -0.122  0.00  0.00     0.077 H 
ATOM      7  H9  <0> d           1.010   1.401  -0.149  0.00  0.00     0.077 H 
ATOM      8  H10 <0> d          -1.595   0.927   1.402  0.00  0.00     0.077 H 
ATOM      9  H11 <0> d          -0.059   1.648   1.990  0.00  0.00     0.077 H 
ENDROOT
BRANCH   1  10
ATOM     10  C2  <0> d          -1.144   3.931  -1.485  0.00  0.00    -0.006 C 
ATOM     11  H4  <0> d          -1.689   4.788  -1.091  0.00  0.00     0.047 H 
BRANCH  10  12
ATOM     12  C1  <0> d           0.360   4.181  -1.357  0.00  0.00    -0.068 C 
ATOM     13  H1  <0> d           0.617   4.323  -0.307  0.00  0.00     0.028 H 
ATOM     14  H2  <0> d           0.905   3.323  -1.751  0.00  0.00     0.028 H 
ATOM     15  H3  <0> d           0.630   5.073  -1.921  0.00  0.00     0.028 H 
ENDBRANCH  10  12
BRANCH  10  16
ATOM     16  C3  <0> d          -1.504   3.731  -2.958  0.00  0.00    -0.068 C 
ATOM     17  H5  <0> d          -2.576   3.553  -3.049  0.00  0.00     0.028 H 
ATOM     18  H6  <0> d          -1.235   4.624  -3.523  0.00  0.00     0.028 H 
ATOM     19  H7  <0> d          -0.959   2.873  -3.353  0.00  0.00     0.028 H 
ENDBRANCH  10  16
ENDBRANCH   1  10
BRANCH   1  20
ATOM     20  C7  <0> d          -3.025   2.422  -0.828  0.00  0.00    -0.006 C 
ATOM     21  H12 <0> d          -3.289   2.362  -1.883  0.00  0.00     0.047 H 
BRANCH  20  22
ATOM     22  C8  <0> d          -3.382   1.105  -0.137  0.00  0.00    -0.068 C 
ATOM     23  H13 <0> d          -3.240   1.208   0.939  0.00  0.00     0.028 H 
ATOM     24  H14 <0> d          -4.423   0.856  -0.344  0.00  0.00     0.028 H 
ATOM     25  H15 <0> d          -2.737   0.310  -0.513  0.00  0.00     0.028 H 
ENDBRANCH  20  22
BRANCH  20  26
ATOM     26  C9  <0> d          -3.798   3.568  -0.172  0.00  0.00    -0.068 C 
ATOM     27  H16 <0> d          -3.543   4.507  -0.664  0.00  0.00     0.028 H 
ATOM     28  H17 <0> d          -4.868   3.386  -0.268  0.00  0.00     0.028 H 
ATOM     29  H18 <0> d          -3.533   3.628   0.884  0.00  0.00     0.028 H 
ENDBRANCH  20  26
ENDBRANCH   1  20
TORSDOF 6
