REMARK  3 active torsions:
REMARK  status: ('A' for Active; 'I' for Inactive)
REMARK    1  A    between atoms: C1_1  and  C2_2 
REMARK    2  A    between atoms: C2_2  and  C4_6 
REMARK    3  A    between atoms: C4_6  and  C5_8 
ROOT
ATOM      1  C2  <0> d          -0.013   1.086   0.008  0.00  0.00     0.084 C 
ATOM      2  H1  <0> d           0.001   0.086   0.003  0.00  0.00     0.074 H 
ATOM      3  C3  <0> d          -0.725   1.573  -1.185  0.00  0.00     0.071 C 
ATOM      4  N1  <0> d          -1.274   1.950  -2.105  0.00  0.00    -0.196 NA
ENDROOT
BRANCH   1   5
ATOM      5  C1  <0> d          -0.729   1.579   1.267  0.00  0.00    -0.054 C 
ATOM      6  H2  <0> d          -1.751   1.202   1.275  0.00  0.00     0.029 H 
ATOM      7  H3  <0> d          -0.202   1.218   2.150  0.00  0.00     0.029 H 
ATOM      8  H4  <0> d          -0.744   2.669   1.273  0.00  0.00     0.029 H 
ENDBRANCH   1   5
BRANCH   1   9
ATOM      9  C4  <0> d           1.401   1.607  -0.003  0.00  0.00     0.140 C 
ATOM     10  O1  <0> d           1.649   2.669  -0.522  0.00  0.00    -0.297 OA
BRANCH   9  11
ATOM     11  C5  <0> d           2.505   0.804   0.635  0.00  0.00    -0.020 C 
ATOM     12  H5  <0> d           2.905   0.189  -0.044  0.00  0.00     0.037 H 
ATOM     13  H6  <0> d           3.275   1.479   1.011  0.00  0.00     0.037 H 
ATOM     14  H7  <0> d           2.099   0.220   1.461  0.00  0.00     0.037 H 
ENDBRANCH   9  11
ENDBRANCH   1   9
TORSDOF 3
