REMARK  3 active torsions:
REMARK  status: ('A' for Active; 'I' for Inactive)
REMARK    1  A    between atoms: C1_1  and  C2_2 
REMARK    2  A    between atoms: C3_3  and  C7_9 
REMARK    3  A    between atoms: C6_7  and  N2_8 
ROOT
ATOM      1  C2  <0> d           1.202   2.068   0.002  0.00  0.00    -0.011 A 
ATOM      2  C3  <0> d           2.373   1.339  -0.013  0.00  0.00     0.038 A 
ATOM      3  N1  <0> d           2.349   0.020  -0.020  0.00  0.00    -0.265 NA
ATOM      4  C4  <0> d           1.216  -0.657  -0.013  0.00  0.00     0.005 A 
ATOM      5  C5  <0> d           0.002  -0.004   0.002  0.00  0.00    -0.040 A 
ATOM      6  C6  <0> d          -0.017   1.391   0.010  0.00  0.00     0.035 A 
ATOM      7  H4  <0> d           1.240  -1.737  -0.019  0.00  0.00     0.114 H 
ATOM      8  H5  <0> d          -0.921  -0.564   0.007  0.00  0.00     0.089 H 
ENDROOT
BRANCH   1   9
ATOM      9  C1  <0> d           1.240   3.574   0.009  0.00  0.00    -0.047 C 
ATOM     10  H1  <0> d           1.258   3.932   1.038  0.00  0.00     0.033 H 
ATOM     11  H2  <0> d           2.134   3.918  -0.512  0.00  0.00     0.033 H 
ATOM     12  H3  <0> d           0.354   3.962  -0.495  0.00  0.00     0.033 H 
ENDBRANCH   1   9
BRANCH   6  13
ATOM     13  N2  <0> d          -1.221   2.088   0.019  0.00  0.00    -0.399 N 
ATOM     14  H6  <0> d          -2.062   1.605   0.021  0.00  0.00     0.156 HD
ATOM     15  H7  <0> d          -1.220   3.058   0.025  0.00  0.00     0.156 HD
ENDBRANCH   6  13
BRANCH   2  16
ATOM     16  C7  <0> d           3.697   2.059  -0.022  0.00  0.00    -0.035 C 
ATOM     17  H8  <0> d           4.006   2.238  -1.052  0.00  0.00     0.035 H 
ATOM     18  H9  <0> d           3.596   3.012   0.498  0.00  0.00     0.035 H 
ATOM     19  H10 <0> d           4.446   1.448   0.481  0.00  0.00     0.035 H 
ENDBRANCH   2  16
TORSDOF 3
