REMARK  2 active torsions:
REMARK  status: ('A' for Active; 'I' for Inactive)
REMARK    1  A    between atoms: C4_4  and  S1_7 
REMARK    2  A    between atoms: S1_7  and  C7_8 
ROOT
ATOM      1  C7  <0> d          -1.840   6.019   0.050  0.00  0.00     0.060 C 
ATOM      2  C8  <0> d          -2.000   7.483   0.058  0.00  0.00     0.069 C 
ATOM      3  N1  <0> d          -2.124   8.612   0.065  0.00  0.00    -0.197 NA
ATOM      4  H6  <0> d          -2.320   5.606  -0.838  0.00  0.00     0.071 H 
ATOM      5  H7  <0> d          -2.303   5.598   0.942  0.00  0.00     0.071 H 
ENDROOT
BRANCH   1   6
ATOM      6  S1  <0> d          -0.074   5.604   0.031  0.00  0.00    -0.116 SA
BRANCH   6   7
ATOM      7  C4  <0> d          -0.050   3.843   0.022  0.00  0.00     0.001 A 
ATOM      8  C3  <0> d          -1.243   3.130   0.030  0.00  0.00    -0.067 A 
ATOM      9  C2  <0> d          -1.220   1.749   0.017  0.00  0.00    -0.082 A 
ATOM     10  H3  <0> d          -2.187   3.655   0.041  0.00  0.00     0.085 H 
ATOM     11  C1  <0> d          -0.013   1.076   0.008  0.00  0.00    -0.083 A 
ATOM     12  H2  <0> d          -2.147   1.195   0.019  0.00  0.00     0.083 H 
ATOM     13  C6  <0> d           1.177   1.782   0.000  0.00  0.00    -0.082 A 
ATOM     14  H1  <0> d           0.002  -0.004   0.002  0.00  0.00     0.083 H 
ATOM     15  C5  <0> d           1.162   3.163   0.007  0.00  0.00    -0.067 A 
ATOM     16  H5  <0> d           2.118   1.253  -0.011  0.00  0.00     0.083 H 
ATOM     17  H4  <0> d           2.091   3.713   0.001  0.00  0.00     0.085 H 
ENDBRANCH   6   7
ENDBRANCH   1   6
TORSDOF 2
