REMARK  2 active torsions:
REMARK  status: ('A' for Active; 'I' for Inactive)
REMARK    1  A    between atoms: C1_1  and  C2_2 
REMARK    2  A    between atoms: C6_6  and  O2_11 
ROOT
ATOM      1  C2  <0> d           0.002  -0.004   0.002  0.00  0.00     0.071 A 
ATOM      2  C3  <0> d           0.009  -0.865  -1.184  0.00  0.00     0.026 A 
ATOM      3  C4  <0> d          -0.002  -0.613  -2.558  0.00  0.00    -0.066 A 
ATOM      4  C5  <0> d           0.007  -1.655  -3.440  0.00  0.00    -0.050 A 
ATOM      5  C6  <0> d           0.028  -2.969  -2.980  0.00  0.00     0.068 A 
ATOM      6  C7  <0> d           0.039  -3.237  -1.623  0.00  0.00    -0.015 A 
ATOM      7  C8  <0> d           0.029  -2.188  -0.713  0.00  0.00     0.116 A 
ATOM      8  O1  <0> d           0.035  -2.130   0.634  0.00  0.00    -0.212 OA
ATOM      9  N1  <0> d           0.023  -0.778   1.044  0.00  0.00    -0.132 NA
ATOM     10  H4  <0> d          -0.019   0.404  -2.922  0.00  0.00     0.085 H 
ATOM     11  H5  <0> d          -0.002  -1.458  -4.502  0.00  0.00     0.087 H 
ATOM     12  H6  <0> d           0.054  -4.259  -1.272  0.00  0.00     0.092 H 
ENDROOT
BRANCH   1  13
ATOM     13  C1  <0> d          -0.018   1.503   0.010  0.00  0.00    -0.033 C 
ATOM     14  H1  <0> d           1.004   1.880   0.003  0.00  0.00     0.035 H 
ATOM     15  H2  <0> d          -0.545   1.864  -0.873  0.00  0.00     0.035 H 
ATOM     16  H3  <0> d          -0.529   1.854   0.907  0.00  0.00     0.035 H 
ENDBRANCH   1  13
BRANCH   5  17
ATOM     17  O2  <0> d           0.037  -3.995  -3.870  0.00  0.00    -0.361 OA
ATOM     18  H7  <0> d           0.923  -4.280  -4.132  0.00  0.00     0.217 HD
ENDBRANCH   5  17
TORSDOF 2
