REMARK  0 active torsions:
REMARK  status: ('A' for Active; 'I' for Inactive)
ROOT
ATOM      1  C1  <0> d           1.179   1.782   0.000  0.00  0.00    -0.082 A 
ATOM      2  C2  <0> d          -0.013   1.076   0.008  0.00  0.00    -0.082 A 
ATOM      3  C3  <0> d          -1.215   1.745   0.017  0.00  0.00    -0.071 A 
ATOM      4  C4  <0> d          -1.250   3.148   0.031  0.00  0.00    -0.009 A 
ATOM      5  C5  <0> d          -0.044   3.861   0.022  0.00  0.00    -0.025 A 
ATOM      6  C6  <0> d           1.169   3.159   0.007  0.00  0.00    -0.072 A 
ATOM      7  C7  <0> d           0.013   5.330   0.028  0.00  0.00    -0.074 C 
ATOM      8  C8  <0> d          -0.795   6.089   0.728  0.00  0.00    -0.083 C 
ATOM      9  C9  <0> d          -1.888   5.513   1.584  0.00  0.00     0.030 C 
ATOM     10  N1  <0> d          -2.859   4.835   0.730  0.00  0.00    -0.297 NA
ATOM     11  C10 <0> d          -2.563   3.799   0.047  0.00  0.00     0.007 C 
ATOM     12  H1  <0> d           2.120   1.251  -0.011  0.00  0.00     0.083 H 
ATOM     13  H2  <0> d           0.002  -0.004   0.002  0.00  0.00     0.083 H 
ATOM     14  H3  <0> d          -2.139   1.186   0.018  0.00  0.00     0.084 H 
ATOM     15  H4  <0> d           2.102   3.702   0.001  0.00  0.00     0.084 H 
ATOM     16  H5  <0> d           0.765   5.812  -0.579  0.00  0.00     0.084 H 
ATOM     17  H6  <0> d          -0.672   7.161   0.688  0.00  0.00     0.079 H 
ATOM     18  H7  <0> d          -1.461   4.799   2.289  0.00  0.00     0.073 H 
ATOM     19  H8  <0> d          -2.382   6.316   2.132  0.00  0.00     0.073 H 
ATOM     20  H9  <0> d          -3.341   3.368  -0.567  0.00  0.00     0.115 H 
ENDROOT
TORSDOF 0
