REMARK  3 active torsions:
REMARK  status: ('A' for Active; 'I' for Inactive)
REMARK    1  A    between atoms: C1_1  and  O1_2 
REMARK    2  A    between atoms: O1_2  and  C2_3 
REMARK    3  A    between atoms: C3_4  and  C4_5 
ROOT
ATOM      1  C2  <0> d          -0.787   2.889   1.346  0.00  0.00     0.016 C 
ATOM      2  C3  <0> d          -1.392   3.379   2.408  0.00  0.00     0.019 C 
ATOM      3  H4  <0> d          -0.375   3.557   0.604  0.00  0.00     0.122 H 
ATOM      4  H5  <0> d          -1.476   4.448   2.537  0.00  0.00     0.093 H 
ENDROOT
BRANCH   1   5
ATOM      5  O1  <0> d          -0.682   1.547   1.184  0.00  0.00    -0.368 OA
BRANCH   5   6
ATOM      6  C1  <0> d          -0.013   1.086   0.008  0.00  0.00     0.009 C 
ATOM      7  H1  <0> d           0.002  -0.004   0.002  0.00  0.00     0.066 H 
ATOM      8  H2  <0> d           1.010   1.463   0.000  0.00  0.00     0.066 H 
ATOM      9  H3  <0> d          -0.540   1.447  -0.875  0.00  0.00     0.066 H 
ENDBRANCH   5   6
ENDBRANCH   1   5
BRANCH   2  10
ATOM     10  C4  <0> d          -1.968   2.447   3.444  0.00  0.00     0.409 C 
ATOM     11  F1  <0> d          -1.736   1.122   3.059  0.00  0.00    -0.167 F 
ATOM     12  F2  <0> d          -1.356   2.688   4.679  0.00  0.00    -0.167 F 
ATOM     13  F3  <0> d          -3.345   2.667   3.555  0.00  0.00    -0.167 F 
ENDBRANCH   2  10
TORSDOF 3
