REMARK  4 active torsions:
REMARK  status: ('A' for Active; 'I' for Inactive)
REMARK    1  A    between atoms: C1_1  and  C2_2 
REMARK    2  A    between atoms: C3_4  and  C7_10 
REMARK    3  A    between atoms: N2_5  and  C4_7 
REMARK    4  A    between atoms: C4_7  and  C5_8 
ROOT
ATOM      1  C5  <0> d           1.447  -3.697   1.695  0.00  0.00    -0.096 C 
ATOM      2  C6  <0> d           2.559  -4.005   1.910  0.00  0.00    -0.152 C 
ATOM      3  H6  <0> d           3.554  -4.282   2.102  0.00  0.00     0.166 H 
ENDROOT
BRANCH   1   4
ATOM      4  C4  <0> d           0.053  -3.309   1.425  0.00  0.00     0.072 C 
ATOM      5  H4  <0> d          -0.460  -3.118   2.368  0.00  0.00     0.086 H 
ATOM      6  H5  <0> d          -0.452  -4.116   0.894  0.00  0.00     0.086 H 
BRANCH   4   7
ATOM      7  N2  <0> d           0.033  -2.097   0.603  0.00  0.00    -0.244 N 
ATOM      8  C3  <0> d           0.027  -2.034  -0.740  0.00  0.00     0.121 A 
ATOM      9  N1  <0> d           0.008  -0.772  -1.087  0.00  0.00    -0.218 NA
ATOM     10  C2  <0> d           0.002  -0.004   0.002  0.00  0.00     0.144 A 
ATOM     11  N3  <0> d           0.022  -0.769   1.062  0.00  0.00    -0.155 NA
BRANCH   8  12
ATOM     12  C7  <0> d           0.038  -3.210  -1.681  0.00  0.00    -0.020 C 
ATOM     13  H7  <0> d           1.069  -3.481  -1.912  0.00  0.00     0.037 H 
ATOM     14  H8  <0> d          -0.463  -4.057  -1.211  0.00  0.00     0.037 H 
ATOM     15  H9  <0> d          -0.483  -2.945  -2.601  0.00  0.00     0.037 H 
ENDBRANCH   8  12
BRANCH  10  16
ATOM     16  C1  <0> d          -0.018   1.503   0.010  0.00  0.00    -0.018 C 
ATOM     17  H1  <0> d           1.004   1.880   0.003  0.00  0.00     0.038 H 
ATOM     18  H2  <0> d          -0.545   1.864  -0.873  0.00  0.00     0.038 H 
ATOM     19  H3  <0> d          -0.529   1.854   0.907  0.00  0.00     0.038 H 
ENDBRANCH  10  16
ENDBRANCH   4   7
ENDBRANCH   1   4
TORSDOF 4
