REMARK  3 active torsions:
REMARK  status: ('A' for Active; 'I' for Inactive)
REMARK    1  A    between atoms: C1_1  and  C2_2 
REMARK    2  A    between atoms: C2_2  and  N1_3 
REMARK       I    between atoms: N1_3  and  C3_4 
REMARK    3  A    between atoms: C3_4  and  C4_6 
ROOT
ATOM      1  C4  <0> d           1.398  -0.360  -0.546  0.00  0.00     0.115 C 
ATOM      2  H1  <0> d           1.965  -0.904   0.209  0.00  0.00     0.098 H 
ATOM      3  C5  <0> d           0.002  -0.004   0.002  0.00  0.00    -0.031 C 
ATOM      4  C6  <0> d          -0.019   1.544   0.011  0.00  0.00    -0.042 C 
ATOM      5  C7  <0> d           1.492   1.889  -0.002  0.00  0.00     0.021 C 
ATOM      6  O2  <0> d           2.062   0.876  -0.858  0.00  0.00    -0.376 OA
ATOM      7  H8  <0> d          -0.122  -0.393   1.013  0.00  0.00     0.037 H 
ATOM      8  H9  <0> d          -0.776  -0.393  -0.655  0.00  0.00     0.037 H 
ATOM      9  H10 <0> d          -0.514   1.931  -0.880  0.00  0.00     0.036 H 
ATOM     10  H11 <0> d          -0.497   1.921   0.915  0.00  0.00     0.036 H 
ATOM     11  H12 <0> d           1.655   2.882  -0.421  0.00  0.00     0.074 H 
ATOM     12  H13 <0> d           1.909   1.822   1.003  0.00  0.00     0.074 H 
ENDROOT
BRANCH   1  13
ATOM     13  C3  <0> d           1.261  -1.201  -1.789  0.00  0.00     0.246 C 
ATOM     14  N1  <0> d           0.718  -2.432  -1.714  0.00  0.00    -0.359 N 
ATOM     15  H7  <0> d           0.415  -2.776  -0.859  0.00  0.00     0.162 HD
ATOM     16  O1  <0> d           1.641  -0.769  -2.857  0.00  0.00    -0.271 OA
BRANCH  14  17
ATOM     17  C2  <0> d           0.585  -3.249  -2.922  0.00  0.00    -0.008 C 
ATOM     18  H5  <0> d          -0.042  -2.728  -3.646  0.00  0.00     0.063 H 
ATOM     19  H6  <0> d           1.571  -3.422  -3.354  0.00  0.00     0.063 H 
BRANCH  17  20
ATOM     20  C1  <0> d          -0.057  -4.590  -2.563  0.00  0.00    -0.061 C 
ATOM     21  H2  <0> d           0.570  -5.111  -1.839  0.00  0.00     0.029 H 
ATOM     22  H3  <0> d          -1.043  -4.417  -2.131  0.00  0.00     0.029 H 
ATOM     23  H4  <0> d          -0.156  -5.198  -3.462  0.00  0.00     0.029 H 
ENDBRANCH  17  20
ENDBRANCH  14  17
ENDBRANCH   1  13
TORSDOF 3
