REMARK  2 active torsions:
REMARK  status: ('A' for Active; 'I' for Inactive)
REMARK    1  A    between atoms: C1_1  and  N1_2 
REMARK    2  A    between atoms: N1_2  and  C2_3 
REMARK       I    between atoms: N1_2  and  C3_4 
REMARK       I    between atoms: C3_4  and  N2_6 
ROOT
ATOM      1  N1  <0> d           0.002  -0.004   0.002  0.00  0.00    -0.343 N 
ATOM      2  C3  <0> d           0.000  -0.672  -1.169  0.00  0.00     0.315 C 
ATOM      3  O1  <0> d          -0.018  -0.058  -2.218  0.00  0.00    -0.247 OA
ATOM      4  N2  <0> d           0.018  -2.019  -1.176  0.00  0.00    -0.352 N 
ATOM      5  H7  <0> d           0.033  -2.509  -0.339  0.00  0.00     0.160 HD
ATOM      6  H8  <0> d           0.017  -2.500  -2.019  0.00  0.00     0.160 HD
ENDROOT
BRANCH   1   7
ATOM      7  C1  <0> d          -0.018   1.461   0.010  0.00  0.00    -0.015 C 
ATOM      8  H1  <0> d           1.005   1.838   0.002  0.00  0.00     0.056 H 
ATOM      9  H2  <0> d          -0.545   1.822  -0.873  0.00  0.00     0.056 H 
ATOM     10  H3  <0> d          -0.528   1.812   0.907  0.00  0.00     0.056 H 
ENDBRANCH   1   7
BRANCH   1  11
ATOM     11  C2  <0> d           0.024  -0.743   1.267  0.00  0.00    -0.015 C 
ATOM     12  H4  <0> d          -0.998  -0.941   1.590  0.00  0.00     0.056 H 
ATOM     13  H5  <0> d           0.550  -1.688   1.126  0.00  0.00     0.056 H 
ATOM     14  H6  <0> d           0.537  -0.151   2.025  0.00  0.00     0.056 H 
ENDBRANCH   1  11
TORSDOF 2
