REMARK  5 active torsions:
REMARK  status: ('A' for Active; 'I' for Inactive)
REMARK    1  A    between atoms: C1_1  and  C2_2 
REMARK    2  A    between atoms: C2_2  and  C3_3 
REMARK    3  A    between atoms: C3_3  and  C4_4 
REMARK    4  A    between atoms: C4_4  and  C5_6 
REMARK    5  A    between atoms: C4_4  and  O2_12 
ROOT
ATOM      1  C4  <0> d          -1.413  -2.063   0.004  0.00  0.00     0.060 C 
ATOM      2  H1  <0> d          -0.810  -2.423   0.839  0.00  0.00     0.086 H 
ENDROOT
BRANCH   1   3
ATOM      3  C3  <0> d          -1.433  -0.534   0.013  0.00  0.00    -0.039 C 
ATOM      4  H8  <0> d          -1.944  -0.182   0.910  0.00  0.00     0.036 H 
ATOM      5  H9  <0> d          -1.960  -0.173  -0.870  0.00  0.00     0.036 H 
BRANCH   3   6
ATOM      6  C2  <0> d           0.002  -0.004   0.002  0.00  0.00    -0.066 C 
ATOM      7  H6  <0> d           0.512  -0.356  -0.895  0.00  0.00     0.032 H 
ATOM      8  H7  <0> d           0.529  -0.365   0.885  0.00  0.00     0.032 H 
BRANCH   6   9
ATOM      9  C1  <0> d          -0.019   1.526   0.010  0.00  0.00    -0.076 C 
ATOM     10  H3  <0> d           1.004   1.903   0.003  0.00  0.00     0.027 H 
ATOM     11  H4  <0> d          -0.546   1.887  -0.873  0.00  0.00     0.027 H 
ATOM     12  H5  <0> d          -0.529   1.877   0.907  0.00  0.00     0.027 H 
ENDBRANCH   6   9
ENDBRANCH   3   6
ENDBRANCH   1   3
BRANCH   1  13
ATOM     13  C5  <0> d          -2.841  -2.594   0.141  0.00  0.00     0.063 C 
ATOM     14  H2  <0> d          -3.459  -2.231  -0.681  0.00  0.00     0.087 H 
ATOM     15  O1  <0> d          -3.403  -2.194   1.401  0.00  0.00    -0.383 OA
ATOM     16  C8  <0> d          -4.231  -3.243   1.921  0.00  0.00     0.020 C 
ATOM     17  C7  <0> d          -4.164  -4.425   0.931  0.00  0.00    -0.043 C 
ATOM     18  H14 <0> d          -5.259  -2.892   2.009  0.00  0.00     0.074 H 
ATOM     19  H15 <0> d          -3.862  -3.557   2.897  0.00  0.00     0.074 H 
ATOM     20  C6  <0> d          -2.840  -4.143   0.170  0.00  0.00    -0.037 C 
ATOM     21  H12 <0> d          -5.014  -4.409   0.249  0.00  0.00     0.036 H 
ATOM     22  H13 <0> d          -4.110  -5.375   1.463  0.00  0.00     0.036 H 
ATOM     23  H10 <0> d          -2.871  -4.554  -0.839  0.00  0.00     0.036 H 
ATOM     24  H11 <0> d          -1.980  -4.525   0.721  0.00  0.00     0.036 H 
ENDBRANCH   1  13
BRANCH   1  25
ATOM     25  O2  <0> d          -0.849  -2.526  -1.224  0.00  0.00    -0.393 OA
ATOM     26  H16 <0> d          -1.334  -2.242  -2.011  0.00  0.00     0.210 HD
ENDBRANCH   1  25
TORSDOF 5
