REMARK  1 active torsions:
REMARK  status: ('A' for Active; 'I' for Inactive)
REMARK    1  A    between atoms: C3_3  and  N1_5 
REMARK       I    between atoms: N1_5  and  C5_6 
REMARK       I    between atoms: C5_6  and  N2_8 
ROOT
ATOM      1  C1  <0> d          -2.435   5.109   0.570  0.00  0.00    -0.061 C 
ATOM      2  C2  <0> d          -2.500   4.068  -0.559  0.00  0.00    -0.046 C 
ATOM      3  C3  <0> d          -1.212   3.466   0.027  0.00  0.00     0.014 C 
ATOM      4  C4  <0> d          -1.638   4.069   1.376  0.00  0.00    -0.046 C 
ATOM      5  H1  <0> d          -1.857   5.997   0.313  0.00  0.00     0.033 H 
ATOM      6  H2  <0> d          -3.406   5.346   1.003  0.00  0.00     0.033 H 
ATOM      7  H3  <0> d          -2.370   4.495  -1.554  0.00  0.00     0.035 H 
ATOM      8  H4  <0> d          -3.362   3.405  -0.492  0.00  0.00     0.035 H 
ATOM      9  H5  <0> d          -0.301   3.904  -0.381  0.00  0.00     0.072 H 
ATOM     10  H6  <0> d          -2.264   3.406   1.972  0.00  0.00     0.035 H 
ATOM     11  H7  <0> d          -0.811   4.496   1.943  0.00  0.00     0.035 H 
ENDROOT
BRANCH   3  12
ATOM     12  N1  <0> d          -1.192   2.002   0.019  0.00  0.00    -0.339 N 
ATOM     13  C5  <0> d          -0.016   1.344   0.009  0.00  0.00     0.314 C 
ATOM     14  O1  <0> d           1.028   1.966   0.003  0.00  0.00    -0.248 OA
ATOM     15  N2  <0> d           0.002  -0.004   0.002  0.00  0.00    -0.352 N 
ATOM     16  H9  <0> d           0.849  -0.478  -0.009  0.00  0.00     0.160 HD
ATOM     17  H10 <0> d          -0.831  -0.500   0.007  0.00  0.00     0.160 HD
ATOM     18  H8  <0> d          -2.026   1.505   0.020  0.00  0.00     0.164 HD
ENDBRANCH   3  12
TORSDOF 1
