REMARK  0 active torsions:
REMARK  status: ('A' for Active; 'I' for Inactive)
ROOT
ATOM      1  C1  <0> d          -0.013   1.076   0.008  0.00  0.00    -0.063 A 
ATOM      2  C2  <0> d          -1.219   1.761   0.017  0.00  0.00    -0.040 A 
ATOM      3  C3  <0> d          -1.191   3.147   0.030  0.00  0.00     0.174 A 
ATOM      4  C4  <0> d           0.036   3.797   0.021  0.00  0.00     0.248 A 
ATOM      5  N1  <0> d           1.162   3.110   0.007  0.00  0.00    -0.230 NA
ATOM      6  C5  <0> d           1.169   1.790   0.001  0.00  0.00     0.005 A 
ATOM      7  F1  <0> d           0.077   5.148   0.027  0.00  0.00    -0.181 F 
ATOM      8  F2  <0> d          -2.341   3.856   0.044  0.00  0.00    -0.201 F 
ATOM      9  H1  <0> d           0.002  -0.004   0.002  0.00  0.00     0.085 H 
ATOM     10  H2  <0> d          -2.158   1.227   0.019  0.00  0.00     0.088 H 
ATOM     11  H3  <0> d           2.111   1.262  -0.011  0.00  0.00     0.114 H 
ENDROOT
TORSDOF 0
