REMARK  4 active torsions:
REMARK  status: ('A' for Active; 'I' for Inactive)
REMARK    1  A    between atoms: C1_1  and  C2_2 
REMARK    2  A    between atoms: C2_2  and  C3_3 
REMARK    3  A    between atoms: C2_2  and  C4_4 
REMARK    4  A    between atoms: C6_9  and  N3_10 
ROOT
ATOM      1  C4  <0> d          -1.327  -0.284   0.324  0.00  0.00     0.039 A 
ATOM      2  H1  <0> d          -1.631   0.319   1.179  0.00  0.00     0.061 H 
ATOM      3  C5  <0> d          -2.255  -0.051  -0.851  0.00  0.00     0.013 A 
ATOM      4  N1  <0> d          -2.800  -1.193  -1.110  0.00  0.00    -0.189 NA
ATOM      5  N2  <0> d          -2.362  -2.198  -0.254  0.00  0.00    -0.267 N 
ATOM      6  C6  <0> d          -1.497  -1.760   0.623  0.00  0.00     0.101 A 
ATOM      7  H9  <0> d          -2.427   0.882  -1.367  0.00  0.00     0.111 H 
ATOM      8  H12 <0> d          -2.665  -3.119  -0.301  0.00  0.00     0.190 HD
ENDROOT
BRANCH   1   9
ATOM      9  C2  <0> d           0.121   0.025  -0.064  0.00  0.00    -0.046 C 
ATOM     10  H5  <0> d           0.420  -0.618  -0.892  0.00  0.00     0.040 H 
BRANCH   9  11
ATOM     11  C1  <0> d           0.234   1.490  -0.488  0.00  0.00    -0.072 C 
ATOM     12  H2  <0> d           1.266   1.710  -0.764  0.00  0.00     0.028 H 
ATOM     13  H3  <0> d          -0.417   1.673  -1.343  0.00  0.00     0.028 H 
ATOM     14  H4  <0> d          -0.065   2.133   0.341  0.00  0.00     0.028 H 
ENDBRANCH   9  11
BRANCH   9  15
ATOM     15  C3  <0> d           1.035  -0.231   1.136  0.00  0.00    -0.072 C 
ATOM     16  H6  <0> d           1.058  -1.299   1.355  0.00  0.00     0.028 H 
ATOM     17  H7  <0> d           2.043   0.113   0.905  0.00  0.00     0.028 H 
ATOM     18  H8  <0> d           0.657   0.310   2.003  0.00  0.00     0.028 H 
ENDBRANCH   9  15
ENDBRANCH   1   9
BRANCH   6  19
ATOM     19  N3  <0> d          -0.874  -2.481   1.605  0.00  0.00    -0.387 N 
ATOM     20  H10 <0> d          -0.327  -2.029   2.266  0.00  0.00     0.157 HD
ATOM     21  H11 <0> d          -0.978  -3.445   1.639  0.00  0.00     0.157 HD
ENDBRANCH   6  19
TORSDOF 4
