REMARK  2 active torsions:
REMARK  status: ('A' for Active; 'I' for Inactive)
REMARK    1  A    between atoms: N2_6  and  C5_8 
REMARK    2  A    between atoms: C5_8  and  C6_9 
ROOT
ATOM      1  C1  <0> d           4.569   4.139  -1.179  0.00  0.00    -0.051 A 
ATOM      2  C2  <0> d           5.215   4.330   0.046  0.00  0.00     0.009 A 
ATOM      3  N1  <0> d           4.562   4.117   1.171  0.00  0.00    -0.206 NA
ATOM      4  C3  <0> d           3.285   3.727   1.157  0.00  0.00     0.348 A 
ATOM      5  O1  <0> d           2.702   3.542   2.212  0.00  0.00    -0.244 OA
ATOM      6  N2  <0> d           2.634   3.529  -0.004  0.00  0.00    -0.298 N 
ATOM      7  C4  <0> d           3.270   3.736  -1.187  0.00  0.00    -0.014 A 
ATOM      8  H1  <0> d           5.095   4.311  -2.107  0.00  0.00     0.087 H 
ATOM      9  H2  <0> d           6.246   4.650   0.071  0.00  0.00     0.115 H 
ATOM     10  H3  <0> d           2.751   3.583  -2.121  0.00  0.00     0.111 H 
ENDROOT
BRANCH   6  11
ATOM     11  C5  <0> d           1.235   3.094   0.007  0.00  0.00     0.083 C 
ATOM     12  H4  <0> d           0.727   3.482  -0.876  0.00  0.00     0.081 H 
ATOM     13  H5  <0> d           0.744   3.473   0.904  0.00  0.00     0.081 H 
BRANCH  11  14
ATOM     14  C6  <0> d           1.177   1.588  -0.001  0.00  0.00     0.192 C 
ATOM     15  O2  <0> d           2.199   0.944  -0.014  0.00  0.00    -0.647 OA
ATOM     16  O3  <0> d          -0.011   0.963   0.007  0.00  0.00    -0.647 OA
ENDBRANCH  11  14
ENDBRANCH   6  11
TORSDOF 2
