REMARK  2 active torsions:
REMARK  status: ('A' for Active; 'I' for Inactive)
REMARK    1  A    between atoms: C1_1  and  C2_2 
REMARK    2  A    between atoms: C5_7  and  C6_8 
ROOT
ATOM      1  C2  <0> d           1.072   1.871   0.002  0.00  0.00    -0.028 A 
ATOM      2  C3  <0> d          -0.013   1.076   0.008  0.00  0.00    -0.017 A 
ATOM      3  N1  <0> d          -1.135   1.852   0.017  0.00  0.00    -0.374 N 
ATOM      4  H1  <0> d          -2.043   1.512   0.019  0.00  0.00     0.164 HD
ATOM      5  C4  <0> d          -0.802   3.157   0.025  0.00  0.00    -0.006 A 
ATOM      6  C5  <0> d           0.573   3.251   0.013  0.00  0.00     0.063 A 
ATOM      7  H5  <0> d           0.002  -0.004   0.002  0.00  0.00     0.112 H 
ATOM      8  H6  <0> d          -1.493   3.986   0.035  0.00  0.00     0.112 H 
ENDROOT
BRANCH   1   9
ATOM      9  C1  <0> d           2.513   1.431  -0.014  0.00  0.00    -0.049 C 
ATOM     10  H2  <0> d           2.851   1.330  -1.045  0.00  0.00     0.033 H 
ATOM     11  H3  <0> d           3.125   2.174   0.498  0.00  0.00     0.033 H 
ATOM     12  H4  <0> d           2.606   0.471   0.494  0.00  0.00     0.033 H 
ENDBRANCH   1   9
BRANCH   6  13
ATOM     13  C6  <0> d           1.377   4.483   0.013  0.00  0.00     0.211 C 
ATOM     14  O1  <0> d           2.591   4.417   0.002  0.00  0.00    -0.644 OA
ATOM     15  O2  <0> d           0.767   5.685   0.024  0.00  0.00    -0.644 OA
ENDBRANCH   6  13
TORSDOF 2
