REMARK  1 active torsions:
REMARK  status: ('A' for Active; 'I' for Inactive)
REMARK    1  A    between atoms: C2_2  and  O3_8 
ROOT
ATOM      1  C1  <0> d           1.398   1.873  -0.001  0.00  0.00     0.042 C 
ATOM      2  C2  <0> d           2.264   0.656   0.399  0.00  0.00     0.065 C 
ATOM      3  H1  <0> d           2.445   0.641   1.474  0.00  0.00     0.086 H 
ATOM      4  C3  <0> d           1.360  -0.522  -0.026  0.00  0.00     0.053 C 
ATOM      5  O1  <0> d           0.002  -0.004   0.002  0.00  0.00    -0.319 OA
ATOM      6  C4  <0> d          -0.016   1.334   0.009  0.00  0.00     0.261 C 
ATOM      7  O2  <0> d          -1.016   2.013   0.018  0.00  0.00    -0.265 OA
ATOM      8  H2  <0> d           1.667   2.222  -0.998  0.00  0.00     0.051 H 
ATOM      9  H3  <0> d           1.506   2.676   0.728  0.00  0.00     0.051 H 
ATOM     10  H4  <0> d           1.463  -1.349   0.677  0.00  0.00     0.079 H 
ATOM     11  H5  <0> d           1.618  -0.850  -1.034  0.00  0.00     0.079 H 
ENDROOT
BRANCH   2  12
ATOM     12  O3  <0> d           3.496   0.644  -0.325  0.00  0.00    -0.393 OA
ATOM     13  H6  <0> d           4.029  -0.149  -0.180  0.00  0.00     0.210 HD
ENDBRANCH   2  12
TORSDOF 1
