REMARK  2 active torsions:
REMARK  status: ('A' for Active; 'I' for Inactive)
REMARK    1  A    between atoms: C1_1  and  C2_2 
REMARK    2  A    between atoms: N1_8  and  C7_9 
ROOT
ATOM      1  C2  <0> d          -0.742   1.585  -1.213  0.00  0.00     0.013 A 
ATOM      2  C3  <0> d          -0.053   1.817  -2.351  0.00  0.00    -0.026 A 
ATOM      3  C4  <0> d          -0.730   2.284  -3.496  0.00  0.00     0.114 A 
ATOM      4  O1  <0> d          -0.053   2.521  -4.645  0.00  0.00    -0.192 OA
ATOM      5  C5  <0> d          -2.094   2.495  -3.428  0.00  0.00     0.018 A 
ATOM      6  C6  <0> d          -2.764   2.240  -2.226  0.00  0.00     0.250 A 
ATOM      7  N1  <0> d          -2.084   1.790  -1.155  0.00  0.00    -0.323 N 
ATOM      8  O2  <0> d          -3.969   2.421  -2.150  0.00  0.00    -0.268 OA
ATOM      9  H4  <0> d           1.013   1.647  -2.384  0.00  0.00     0.090 H 
ATOM     10  H5  <0> d          -2.636   2.852  -4.291  0.00  0.00     0.096 H 
ENDROOT
BRANCH   1  11
ATOM     11  C1  <0> d          -0.013   1.086   0.008  0.00  0.00    -0.037 C 
ATOM     12  H1  <0> d           0.002  -0.004   0.002  0.00  0.00     0.035 H 
ATOM     13  H2  <0> d           1.010   1.463   0.000  0.00  0.00     0.035 H 
ATOM     14  H3  <0> d          -0.523   1.437   0.905  0.00  0.00     0.035 H 
ENDBRANCH   1  11
BRANCH   7  15
ATOM     15  C7  <0> d          -2.801   1.522   0.094  0.00  0.00    -0.011 C 
ATOM     16  H6  <0> d          -2.818   2.425   0.704  0.00  0.00     0.057 H 
ATOM     17  H7  <0> d          -3.822   1.217  -0.132  0.00  0.00     0.057 H 
ATOM     18  H8  <0> d          -2.296   0.725   0.639  0.00  0.00     0.057 H 
ENDBRANCH   7  15
TORSDOF 2
