REMARK  2 active torsions:
REMARK  status: ('A' for Active; 'I' for Inactive)
REMARK    1  A    between atoms: C1_1  and  C2_2 
REMARK    2  A    between atoms: C2_2  and  C3_4 
ROOT
ATOM      1  C3  <0> d          -1.265  -0.759   0.010  0.00  0.00     0.034 A 
ATOM      2  C4  <0> d          -2.499  -0.095   0.019  0.00  0.00    -0.051 A 
ATOM      3  C5  <0> d          -3.660  -0.842   0.026  0.00  0.00     0.003 A 
ATOM      4  N1  <0> d          -3.619  -2.160   0.024  0.00  0.00    -0.271 NA
ATOM      5  C6  <0> d          -2.482  -2.826   0.015  0.00  0.00     0.024 A 
ATOM      6  C7  <0> d          -1.269  -2.160   0.003  0.00  0.00     0.065 A 
ATOM      7 Cl1  <0> d           0.223  -3.047  -0.016  0.00  0.00    -0.082 Cl
ATOM      8  H4  <0> d          -2.541   0.984   0.022  0.00  0.00     0.087 H 
ATOM      9  H5  <0> d          -4.616  -0.339   0.034  0.00  0.00     0.114 H 
ATOM     10  H6  <0> d          -2.497  -3.906   0.014  0.00  0.00     0.117 H 
ENDROOT
BRANCH   1  11
ATOM     11  C2  <0> d           0.002  -0.004   0.002  0.00  0.00     0.157 C 
ATOM     12  O1  <0> d           1.060  -0.596  -0.011  0.00  0.00    -0.293 OA
BRANCH  11  13
ATOM     13  C1  <0> d          -0.018   1.503   0.010  0.00  0.00    -0.017 C 
ATOM     14  H1  <0> d           1.004   1.880   0.003  0.00  0.00     0.038 H 
ATOM     15  H2  <0> d          -0.545   1.864  -0.873  0.00  0.00     0.038 H 
ATOM     16  H3  <0> d          -0.529   1.854   0.907  0.00  0.00     0.038 H 
ENDBRANCH  11  13
ENDBRANCH   1  11
TORSDOF 2
