REMARK  6 active torsions:
REMARK  status: ('A' for Active; 'I' for Inactive)
REMARK    1  A    between atoms: C1_1  and  C2_2 
REMARK    2  A    between atoms: C1_1  and  C3_4 
REMARK    3  A    between atoms: C2_2  and  O1_3 
REMARK    4  A    between atoms: C4_5  and  C5_6 
REMARK    5  A    between atoms: C5_6  and  C6_7 
REMARK    6  A    between atoms: C6_7  and  O2_8 
ROOT
ATOM      1  C3  <0> d          -0.016   1.306   0.009  0.00  0.00    -0.104 C 
ATOM      2  C4  <0> d           0.002  -0.004   0.002  0.00  0.00    -0.104 C 
ATOM      3  H6  <0> d           0.929   1.869   0.008  0.00  0.00     0.076 H 
ATOM      4  H7  <0> d          -0.943  -0.567   0.008  0.00  0.00     0.076 H 
ENDROOT
BRANCH   1   5
ATOM      5  C1  <0> d          -1.331   2.042   0.019  0.00  0.00    -0.030 C 
ATOM      6  H1  <0> d          -2.155   1.318   0.110  0.00  0.00     0.042 H 
ATOM      7  H2  <0> d          -1.441   2.608  -0.917  0.00  0.00     0.042 H 
BRANCH   5   8
ATOM      8  C2  <0> d          -1.366   3.006   1.206  0.00  0.00     0.020 C 
ATOM      9  H3  <0> d          -1.256   2.439   2.143  0.00  0.00     0.074 H 
ATOM     10  H4  <0> d          -0.542   3.729   1.116  0.00  0.00     0.074 H 
BRANCH   8  11
ATOM     11  O1  <0> d          -2.614   3.704   1.216  0.00  0.00    -0.401 OA
ATOM     12  H5  <0> d          -2.823   4.445   2.002  0.00  0.00     0.209 HD
ENDBRANCH   8  11
ENDBRANCH   5   8
ENDBRANCH   1   5
BRANCH   2  13
ATOM     13  C5  <0> d           1.317  -0.740  -0.015  0.00  0.00    -0.030 C 
ATOM     14  H8  <0> d           1.414  -1.296  -0.958  0.00  0.00     0.042 H 
ATOM     15  H9  <0> d           2.142  -0.018   0.072  0.00  0.00     0.042 H 
BRANCH  13  16
ATOM     16  C6  <0> d           1.370  -1.717   1.161  0.00  0.00     0.020 C 
ATOM     17  H10 <0> d           1.273  -1.161   2.105  0.00  0.00     0.074 H 
ATOM     18  H11 <0> d           0.544  -2.439   1.075  0.00  0.00     0.074 H 
BRANCH  16  19
ATOM     19  O2  <0> d           2.617  -2.415   1.146  0.00  0.00    -0.401 OA
ATOM     20  H12 <0> d           2.837  -3.164   1.920  0.00  0.00     0.209 HD
ENDBRANCH  16  19
ENDBRANCH  13  16
ENDBRANCH   2  13
TORSDOF 6
