REMARK  3 active torsions:
REMARK  status: ('A' for Active; 'I' for Inactive)
REMARK    1  A    between atoms: C2_2  and  C4_7 
REMARK    2  A    between atoms: C4_7  and  C5_8 
REMARK    3  A    between atoms: C5_8  and  C6_9 
ROOT
ATOM      1  C4  <0> d          -1.766   3.245   0.029  0.00  0.00    -0.009 C 
ATOM      2  H2  <0> d          -2.675   3.328   0.623  0.00  0.00     0.043 H 
ATOM      3  H3  <0> d          -0.989   3.876   0.463  0.00  0.00     0.043 H 
ENDROOT
BRANCH   1   4
ATOM      4  C2  <0> d          -1.301   1.812   0.018  0.00  0.00     0.082 A 
ATOM      5  C1  <0> d          -0.017   1.406   0.010  0.00  0.00     0.015 A 
ATOM      6  C3  <0> d           0.002  -0.004   0.002  0.00  0.00     0.267 A 
ATOM      7  H1  <0> d           0.850   2.051   0.005  0.00  0.00     0.096 H 
ATOM      8  N1  <0> d          -1.282  -0.421   0.006  0.00  0.00    -0.226 N 
ATOM      9  O2  <0> d           0.994  -0.715  -0.012  0.00  0.00    -0.266 OA
ATOM     10  O1  <0> d          -2.098   0.737   0.017  0.00  0.00    -0.239 OA
ATOM     11  H6  <0> d          -1.588  -1.341   0.003  0.00  0.00     0.198 HD
ENDBRANCH   1   4
BRANCH   1  12
ATOM     12  C5  <0> d          -2.049   3.700  -1.404  0.00  0.00     0.021 C 
ATOM     13  H4  <0> d          -1.139   3.617  -1.998  0.00  0.00     0.049 H 
ATOM     14  H5  <0> d          -2.825   3.070  -1.838  0.00  0.00     0.049 H 
BRANCH  12  15
ATOM     15  C6  <0> d          -2.514   5.134  -1.394  0.00  0.00     0.172 C 
ATOM     16  O3  <0> d          -2.609   5.736  -0.338  0.00  0.00    -0.648 OA
ATOM     17  O4  <0> d          -2.795   5.691  -2.441  0.00  0.00    -0.648 OA
ENDBRANCH  12  15
ENDBRANCH   1  12
TORSDOF 3
