REMARK  1 active torsions:
REMARK  status: ('A' for Active; 'I' for Inactive)
REMARK    1  A    between atoms: C1_1  and  C2_2 
ROOT
ATOM      1  C2  <0> d           1.164   2.081   0.002  0.00  0.00    -0.061 A 
ATOM      2  C3  <0> d           2.381   1.411  -0.013  0.00  0.00    -0.076 A 
ATOM      3  C4  <0> d           2.429   0.044  -0.021  0.00  0.00    -0.066 A 
ATOM      4  C5  <0> d           1.241  -0.686  -0.013  0.00  0.00     0.042 A 
ATOM      5  C6  <0> d           0.002  -0.004   0.002  0.00  0.00    -0.019 A 
ATOM      6  C7  <0> d          -0.017   1.391   0.010  0.00  0.00    -0.066 A 
ATOM      7  C8  <0> d          -1.228  -0.797   0.010  0.00  0.00    -0.057 A 
ATOM      8  C9  <0> d          -1.148  -2.138   0.002  0.00  0.00    -0.019 A 
ATOM      9  N1  <0> d           0.046  -2.800  -0.013  0.00  0.00    -0.333 N 
ATOM     10  H1  <0> d           0.065  -3.900  -0.018  0.00  0.00     0.168 HD
ATOM     11  C10 <0> d           1.228  -2.152  -0.021  0.00  0.00     0.256 A 
ATOM     12  O1  <0> d           2.273  -2.778  -0.034  0.00  0.00    -0.267 OA
ATOM     13  H5  <0> d           3.300   1.977  -0.018  0.00  0.00     0.084 H 
ATOM     14  H6  <0> d           3.381  -0.466  -0.033  0.00  0.00     0.085 H 
ATOM     15  H7  <0> d          -0.957   1.923   0.017  0.00  0.00     0.085 H 
ATOM     16  H8  <0> d          -2.191  -0.309   0.022  0.00  0.00     0.086 H 
ATOM     17  H9  <0> d          -2.062  -2.713   0.007  0.00  0.00     0.111 H 
ENDROOT
BRANCH   1  18
ATOM     18  C1  <0> d           1.145   3.588   0.010  0.00  0.00    -0.051 C 
ATOM     19  H2  <0> d           2.178   3.967   0.002  0.00  0.00     0.033 H 
ATOM     20  H3  <0> d           0.631   3.943   0.915  0.00  0.00     0.033 H 
ATOM     21  H4  <0> d           0.614   3.952  -0.881  0.00  0.00     0.033 H 
ENDBRANCH   1  18
TORSDOF 1
