REMARK  5 active torsions:
REMARK  status: ('A' for Active; 'I' for Inactive)
REMARK    1  A    between atoms: C1_1  and  C2_2 
REMARK    2  A    between atoms: C4_4  and  C10_11 
REMARK    3  A    between atoms: C5_5  and  C9_10 
REMARK    4  A    between atoms: C6_6  and  O1_8 
REMARK    5  A    between atoms: O1_8  and  C8_9 
ROOT
ATOM      1  C2  <0> d           2.380   1.413  -0.013  0.00  0.00    -0.059 A 
ATOM      2  C3  <0> d           2.396   0.030  -0.021  0.00  0.00    -0.071 A 
ATOM      3  C4  <0> d           1.208  -0.677  -0.013  0.00  0.00    -0.053 A 
ATOM      4  C5  <0> d           0.002  -0.004   0.002  0.00  0.00    -0.023 A 
ATOM      5  C6  <0> d          -0.017   1.383   0.010  0.00  0.00     0.075 A 
ATOM      6  C7  <0> d           1.177   2.091   0.002  0.00  0.00    -0.044 A 
ATOM      7  H4  <0> d           3.338  -0.498  -0.033  0.00  0.00     0.085 H 
ATOM      8  H5  <0> d           1.165   3.171   0.008  0.00  0.00     0.088 H 
ENDROOT
BRANCH   5   9
ATOM      9  O1  <0> d          -1.202   2.047   0.019  0.00  0.00    -0.355 OA
BRANCH   9  10
ATOM     10  C8  <0> d          -1.145   3.475   0.026  0.00  0.00     0.010 C 
ATOM     11  H6  <0> d          -0.613   3.813   0.916  0.00  0.00     0.066 H 
ATOM     12  H7  <0> d          -0.622   3.823  -0.864  0.00  0.00     0.066 H 
ATOM     13  H8  <0> d          -2.158   3.879   0.033  0.00  0.00     0.066 H 
ENDBRANCH   9  10
ENDBRANCH   5   9
BRANCH   4  14
ATOM     14  C9  <0> d          -1.292  -0.776   0.011  0.00  0.00    -0.048 C 
ATOM     15  H9  <0> d          -1.615  -0.957  -1.015  0.00  0.00     0.033 H 
ATOM     16  H10 <0> d          -1.143  -1.729   0.518  0.00  0.00     0.033 H 
ATOM     17  H11 <0> d          -2.055  -0.200   0.535  0.00  0.00     0.033 H 
ENDBRANCH   4  14
BRANCH   3  18
ATOM     18  C10 <0> d           1.230  -2.184  -0.021  0.00  0.00    -0.051 C 
ATOM     19  H12 <0> d           1.225  -2.542  -1.050  0.00  0.00     0.033 H 
ATOM     20  H13 <0> d           2.130  -2.538   0.482  0.00  0.00     0.033 H 
ATOM     21  H14 <0> d           0.350  -2.563   0.500  0.00  0.00     0.033 H 
ENDBRANCH   3  18
BRANCH   1  22
ATOM     22  C1  <0> d           3.677   2.181  -0.022  0.00  0.00    -0.051 C 
ATOM     23  H1  <0> d           3.980   2.371  -1.051  0.00  0.00     0.033 H 
ATOM     24  H2  <0> d           3.541   3.129   0.498  0.00  0.00     0.033 H 
ATOM     25  H3  <0> d           4.448   1.598   0.482  0.00  0.00     0.033 H 
ENDBRANCH   1  22
TORSDOF 5
