REMARK  0 active torsions:
REMARK  status: ('A' for Active; 'I' for Inactive)
ROOT
ATOM      1  C1  <0> d          -0.013   1.086   0.008  0.00  0.00    -0.029 C 
ATOM      2  C2  <0> d          -0.949   1.693  -1.103  0.00  0.00     0.042 C 
ATOM      3  H1  <0> d          -0.675   1.506  -2.142  0.00  0.00     0.060 H 
ATOM      4  C3  <0> d          -0.977   3.160  -0.648  0.00  0.00    -0.092 C 
ATOM      5  C4  <0> d          -0.961   3.163   0.673  0.00  0.00    -0.084 C 
ATOM      6  C5  <0> d          -0.926   1.681   1.143  0.00  0.00     0.029 C 
ATOM      7  H2  <0> d          -0.609   1.505   2.170  0.00  0.00     0.079 H 
ATOM      8  N1  <0> d          -2.250   1.123   0.737  0.00  0.00    -0.353 N 
ATOM      9  C6  <0> d          -2.295   1.124  -0.627  0.00  0.00     0.226 C 
ATOM     10  O1  <0> d          -3.214   0.750  -1.325  0.00  0.00    -0.273 OA
ATOM     11  H3  <0> d           0.002  -0.004   0.002  0.00  0.00     0.038 H 
ATOM     12  H4  <0> d           0.989   1.515   0.001  0.00  0.00     0.038 H 
ATOM     13  H5  <0> d          -1.004   4.029  -1.289  0.00  0.00     0.077 H 
ATOM     14  H6  <0> d          -0.977   4.035   1.309  0.00  0.00     0.079 H 
ATOM     15  H7  <0> d          -2.950   0.815   1.335  0.00  0.00     0.163 HD
ENDROOT
TORSDOF 0
