REMARK  9 active torsions:
REMARK  status: ('A' for Active; 'I' for Inactive)
REMARK    1  A    between atoms: C1_1  and  C2_2 
REMARK    2  A    between atoms: C2_2  and  C3_3 
REMARK    3  A    between atoms: C3_3  and  C4_4 
REMARK    4  A    between atoms: C4_4  and  C5_6 
REMARK    5  A    between atoms: C4_4  and  O2_13 
REMARK    6  A    between atoms: C5_6  and  C6_8 
REMARK    7  A    between atoms: C5_6  and  C7_9 
REMARK    8  A    between atoms: C7_9  and  C8_11 
REMARK    9  A    between atoms: C7_9  and  O1_12 
ROOT
ATOM      1  C4  <0> d           0.011   1.072   2.506  0.00  0.00     0.041 C 
ATOM      2  H1  <0> d           1.057   1.375   2.454  0.00  0.00     0.083 H 
ENDROOT
BRANCH   1   3
ATOM      3  C3  <0> d          -0.729   1.579   1.267  0.00  0.00    -0.041 C 
ATOM      4  H9  <0> d          -0.744   2.669   1.273  0.00  0.00     0.036 H 
ATOM      5  H10 <0> d          -1.751   1.202   1.275  0.00  0.00     0.036 H 
BRANCH   3   6
ATOM      6  C2  <0> d          -0.013   1.086   0.008  0.00  0.00    -0.066 C 
ATOM      7  H7  <0> d           0.002  -0.004   0.002  0.00  0.00     0.032 H 
ATOM      8  H8  <0> d           1.010   1.463   0.000  0.00  0.00     0.032 H 
BRANCH   6   9
ATOM      9  C1  <0> d          -0.753   1.593  -1.232  0.00  0.00    -0.076 C 
ATOM     10  H4  <0> d          -1.775   1.215  -1.224  0.00  0.00     0.027 H 
ATOM     11  H5  <0> d          -0.767   2.683  -1.226  0.00  0.00     0.027 H 
ATOM     12  H6  <0> d          -0.242   1.241  -2.128  0.00  0.00     0.027 H 
ENDBRANCH   6   9
ENDBRANCH   3   6
ENDBRANCH   1   3
BRANCH   1  13
ATOM     13  C5  <0> d          -0.630   1.667   3.762  0.00  0.00    -0.008 C 
ATOM     14  H2  <0> d          -1.676   1.364   3.814  0.00  0.00     0.047 H 
BRANCH  13  15
ATOM     15  C6  <0> d          -0.543   3.193   3.705  0.00  0.00    -0.068 C 
ATOM     16  H11 <0> d          -1.000   3.617   4.599  0.00  0.00     0.028 H 
ATOM     17  H12 <0> d           0.502   3.496   3.653  0.00  0.00     0.028 H 
ATOM     18  H13 <0> d          -1.071   3.554   2.822  0.00  0.00     0.028 H 
ENDBRANCH  13  15
BRANCH  13  19
ATOM     19  C7  <0> d           0.110   1.160   5.001  0.00  0.00     0.037 C 
ATOM     20  H3  <0> d           1.156   1.463   4.949  0.00  0.00     0.083 H 
BRANCH  19  21
ATOM     21  C8  <0> d          -0.531   1.755   6.257  0.00  0.00    -0.052 C 
ATOM     22  H14 <0> d          -1.577   1.452   6.309  0.00  0.00     0.030 H 
ATOM     23  H15 <0> d          -0.004   1.393   7.140  0.00  0.00     0.030 H 
ATOM     24  H16 <0> d          -0.470   2.842   6.216  0.00  0.00     0.030 H 
ENDBRANCH  19  21
BRANCH  19  25
ATOM     25  O1  <0> d           0.029  -0.266   5.055  0.00  0.00    -0.396 OA
ATOM     26  H17 <0> d          -0.875  -0.607   5.102  0.00  0.00     0.210 HD
ENDBRANCH  19  25
ENDBRANCH  13  19
ENDBRANCH   1  13
BRANCH   1  27
ATOM     27  O2  <0> d          -0.070  -0.353   2.560  0.00  0.00    -0.395 OA
ATOM     28  H18 <0> d          -0.973  -0.695   2.607  0.00  0.00     0.210 HD
ENDBRANCH   1  27
TORSDOF 9
