REMARK  8 active torsions:
REMARK  status: ('A' for Active; 'I' for Inactive)
REMARK    1  A    between atoms: C1_1  and  C2_2 
REMARK    2  A    between atoms: C2_2  and  C3_3 
REMARK    3  A    between atoms: C3_3  and  C4_4 
REMARK    4  A    between atoms: C4_4  and  C5_6 
REMARK    5  A    between atoms: C4_4  and  C6_7 
REMARK    6  A    between atoms: C6_7  and  C7_9 
REMARK    7  A    between atoms: C6_7  and  O1_11 
REMARK    8  A    between atoms: C7_9  and  C8_10 
ROOT
ATOM      1  C4  <0> d          -2.918   1.643   2.470  0.00  0.00    -0.033 C 
ATOM      2  H1  <0> d          -2.932   2.730   2.386  0.00  0.00     0.043 H 
ENDROOT
BRANCH   1   3
ATOM      3  C3  <0> d          -4.353   1.113   2.481  0.00  0.00    -0.060 C 
ATOM      4  H8  <0> d          -4.825   1.323   1.520  0.00  0.00     0.033 H 
ATOM      5  H9  <0> d          -4.342   0.037   2.653  0.00  0.00     0.033 H 
BRANCH   3   6
ATOM      6  C2  <0> d          -5.142   1.801   3.597  0.00  0.00    -0.068 C 
ATOM      7  H6  <0> d          -4.670   1.592   4.557  0.00  0.00     0.032 H 
ATOM      8  H7  <0> d          -5.153   2.877   3.424  0.00  0.00     0.032 H 
BRANCH   6   9
ATOM      9  C1  <0> d          -6.577   1.271   3.608  0.00  0.00    -0.077 C 
ATOM     10  H3  <0> d          -7.049   1.480   2.648  0.00  0.00     0.027 H 
ATOM     11  H4  <0> d          -6.566   0.195   3.780  0.00  0.00     0.027 H 
ATOM     12  H5  <0> d          -7.139   1.761   4.403  0.00  0.00     0.027 H 
ENDBRANCH   6   9
ENDBRANCH   3   6
ENDBRANCH   1   3
BRANCH   1  13
ATOM     13  C5  <0> d          -2.216   1.241   3.768  0.00  0.00    -0.071 C 
ATOM     14  H10 <0> d          -2.201   0.154   3.852  0.00  0.00     0.028 H 
ATOM     15  H11 <0> d          -1.193   1.618   3.761  0.00  0.00     0.028 H 
ATOM     16  H12 <0> d          -2.753   1.663   4.618  0.00  0.00     0.028 H 
ENDBRANCH   1  13
BRANCH   1  17
ATOM     17  C6  <0> d          -2.164   1.050   1.278  0.00  0.00     0.038 C 
ATOM     18  H2  <0> d          -2.664   1.336   0.353  0.00  0.00     0.083 H 
BRANCH  17  19
ATOM     19  C7  <0> d          -0.729   1.579   1.267  0.00  0.00    -0.044 C 
ATOM     20  H13 <0> d          -0.202   1.218   2.150  0.00  0.00     0.036 H 
ATOM     21  H14 <0> d          -0.744   2.669   1.273  0.00  0.00     0.036 H 
BRANCH  19  22
ATOM     22  C8  <0> d          -0.013   1.086   0.008  0.00  0.00    -0.074 C 
ATOM     23  H15 <0> d           0.002  -0.004   0.002  0.00  0.00     0.027 H 
ATOM     24  H16 <0> d           1.010   1.463   0.000  0.00  0.00     0.027 H 
ATOM     25  H17 <0> d          -0.540   1.447  -0.875  0.00  0.00     0.027 H 
ENDBRANCH  19  22
ENDBRANCH  17  19
BRANCH  17  26
ATOM     26  O1  <0> d          -2.146  -0.375   1.387  0.00  0.00    -0.395 OA
ATOM     27  H18 <0> d          -1.715  -0.702   2.189  0.00  0.00     0.210 HD
ENDBRANCH  17  26
ENDBRANCH   1  17
TORSDOF 8
