REMARK  5 active torsions:
REMARK  status: ('A' for Active; 'I' for Inactive)
REMARK    1  A    between atoms: C4_5  and  N2_11 
REMARK    2  A    between atoms: C5_6  and  O1_7 
REMARK    3  A    between atoms: O1_7  and  C6_8 
REMARK    4  A    between atoms: C6_8  and  C7_9 
REMARK    5  A    between atoms: C7_9  and  O2_10 
ROOT
ATOM      1  C1  <0> d           1.205  -0.701  -0.019  0.00  0.00    -0.032 A 
ATOM      2  C2  <0> d           1.183  -2.082  -0.020  0.00  0.00     0.004 A 
ATOM      3  N1  <0> d           0.041  -2.742  -0.013  0.00  0.00    -0.271 NA
ATOM      4  C3  <0> d          -1.124  -2.122   0.001  0.00  0.00     0.030 A 
ATOM      5  C4  <0> d          -1.188  -0.738   0.009  0.00  0.00     0.077 A 
ATOM      6  C5  <0> d           0.002  -0.004   0.002  0.00  0.00     0.097 A 
ATOM      7  H1  <0> d           2.144  -0.169  -0.030  0.00  0.00     0.090 H 
ATOM      8  H2  <0> d           2.114  -2.629  -0.032  0.00  0.00     0.114 H 
ATOM      9  H3  <0> d          -2.037  -2.699   0.007  0.00  0.00     0.118 H 
ENDROOT
BRANCH   6  10
ATOM     10  O1  <0> d          -0.016   1.354   0.009  0.00  0.00    -0.347 OA
BRANCH  10  11
ATOM     11  C6  <0> d           1.248   2.020   0.001  0.00  0.00     0.045 C 
ATOM     12  H4  <0> d           1.823   1.728   0.892  0.00  0.00     0.078 H 
ATOM     13  H5  <0> d           1.805   1.737  -0.904  0.00  0.00     0.078 H 
BRANCH  11  14
ATOM     14  C7  <0> d           1.027   3.534   0.011  0.00  0.00     0.037 C 
ATOM     15  H6  <0> d           1.995   4.047  -0.086  0.00  0.00     0.077 H 
ATOM     16  H7  <0> d           0.377   3.816  -0.831  0.00  0.00     0.077 H 
BRANCH  14  17
ATOM     17  O2  <0> d           0.406   3.917   1.240  0.00  0.00    -0.399 OA
ATOM     18  H8  <0> d           0.168   4.974   1.430  0.00  0.00     0.209 HD
ENDBRANCH  14  17
ENDBRANCH  11  14
ENDBRANCH  10  11
ENDBRANCH   6  10
BRANCH   5  19
ATOM     19  N2  <0> d          -2.426  -0.084   0.024  0.00  0.00    -0.396 N 
ATOM     20  H9  <0> d          -2.468   1.015   0.031  0.00  0.00     0.156 HD
ATOM     21  H10 <0> d          -3.358  -0.669   0.030  0.00  0.00     0.156 HD
ENDBRANCH   5  19
TORSDOF 5
