REMARK  0 active torsions:
REMARK  status: ('A' for Active; 'I' for Inactive)
ROOT
ATOM      1  C1  <0> d           2.244   3.978   0.002  0.00  0.00    -0.068 A 
ATOM      2  C2  <0> d           2.112   5.334   0.010  0.00  0.00    -0.045 A 
ATOM      3  C3  <0> d           0.851   5.931   0.025  0.00  0.00     0.118 A 
ATOM      4  C4  <0> d          -0.285   5.178   0.032  0.00  0.00    -0.015 A 
ATOM      5  C5  <0> d          -0.189   3.777   0.024  0.00  0.00     0.092 A 
ATOM      6  C6  <0> d           1.095   3.173   0.009  0.00  0.00    -0.004 A 
ATOM      7  C7  <0> d           1.166   1.767   0.000  0.00  0.00    -0.052 A 
ATOM      8  C8  <0> d          -0.013   1.076   0.008  0.00  0.00     0.025 A 
ATOM      9  N1  <0> d          -1.174   1.716   0.017  0.00  0.00    -0.162 NA
ATOM     10  N2  <0> d          -1.273   2.997   0.030  0.00  0.00    -0.150 NA
ATOM     11  F1  <0> d           0.755   7.279   0.033  0.00  0.00    -0.206 F 
ATOM     12  H1  <0> d           3.224   3.526  -0.010  0.00  0.00     0.085 H 
ATOM     13  H2  <0> d           2.996   5.954   0.005  0.00  0.00     0.088 H 
ATOM     14  H3  <0> d          -1.254   5.655   0.044  0.00  0.00     0.091 H 
ATOM     15  H4  <0> d           2.116   1.254  -0.011  0.00  0.00     0.087 H 
ATOM     16  H5  <0> d           0.002  -0.004   0.002  0.00  0.00     0.117 H 
ENDROOT
TORSDOF 0
