REMARK  1 active torsions:
REMARK  status: ('A' for Active; 'I' for Inactive)
REMARK    1  A    between atoms: C6_8  and  O2_10 
ROOT
ATOM      1  C1  <0> d           1.483  -2.109  -0.024  0.00  0.00    -0.031 A 
ATOM      2  C2  <0> d           2.821  -2.178  -0.037  0.00  0.00     0.022 A 
ATOM      3  O1  <0> d           3.349  -0.941  -0.035  0.00  0.00    -0.320 OA
ATOM      4  C3  <0> d           2.378  -0.007  -0.021  0.00  0.00     0.106 A 
ATOM      5  C4  <0> d           1.144  -0.681  -0.013  0.00  0.00     0.092 A 
ATOM      6  N1  <0> d           0.002  -0.004   0.002  0.00  0.00    -0.256 NA
ATOM      7  C5  <0> d          -0.016   1.312   0.009  0.00  0.00     0.035 A 
ATOM      8  C6  <0> d           1.165   2.046   0.002  0.00  0.00     0.086 A 
ATOM      9  C7  <0> d           2.385   1.382  -0.013  0.00  0.00    -0.015 A 
ATOM     10  H1  <0> d           0.791  -2.939  -0.022  0.00  0.00     0.090 H 
ATOM     11  H2  <0> d           3.393  -3.094  -0.048  0.00  0.00     0.123 H 
ATOM     12  H3  <0> d          -0.963   1.830   0.017  0.00  0.00     0.119 H 
ATOM     13  H4  <0> d           3.314   1.932  -0.019  0.00  0.00     0.092 H 
ENDROOT
BRANCH   8  14
ATOM     14  O2  <0> d           1.126   3.405   0.010  0.00  0.00    -0.359 OA
ATOM     15  H5  <0> d           1.123   3.793   0.895  0.00  0.00     0.217 HD
ENDBRANCH   8  14
TORSDOF 1
