REMARK  2 active torsions:
REMARK  status: ('A' for Active; 'I' for Inactive)
REMARK    1  A    between atoms: C5_5  and  O1_12 
REMARK    2  A    between atoms: C9_9  and  N1_11 
ROOT
ATOM      1  C1  <0> d          -3.633   1.768   0.028  0.00  0.00    -0.080 A 
ATOM      2  C2  <0> d          -2.460   1.075   0.019  0.00  0.00    -0.072 A 
ATOM      3  C3  <0> d          -1.236   1.766   0.018  0.00  0.00    -0.021 A 
ATOM      4  C4  <0> d          -0.013   1.076   0.008  0.00  0.00    -0.040 A 
ATOM      5  C5  <0> d           1.159   1.779   0.001  0.00  0.00     0.066 A 
ATOM      6  C6  <0> d           1.156   3.177   0.008  0.00  0.00    -0.050 A 
ATOM      7  C7  <0> d          -0.013   3.873   0.023  0.00  0.00    -0.067 A 
ATOM      8  C8  <0> d          -1.235   3.183   0.032  0.00  0.00     0.001 A 
ATOM      9  C9  <0> d          -2.465   3.874   0.048  0.00  0.00     0.036 A 
ATOM     10  C10 <0> d          -3.644   3.159   0.036  0.00  0.00    -0.057 A 
ATOM     11  H1  <0> d          -4.568   1.228   0.029  0.00  0.00     0.083 H 
ATOM     12  H2  <0> d          -2.471  -0.005   0.013  0.00  0.00     0.084 H 
ATOM     13  H3  <0> d           0.002  -0.004   0.002  0.00  0.00     0.089 H 
ATOM     14  H4  <0> d           2.094   3.711   0.001  0.00  0.00     0.087 H 
ATOM     15  H5  <0> d          -0.000   4.953   0.029  0.00  0.00     0.085 H 
ATOM     16  H6  <0> d          -4.588   3.685   0.042  0.00  0.00     0.086 H 
ENDROOT
BRANCH   9  17
ATOM     17  N1  <0> d          -2.488   5.267   0.055  0.00  0.00    -0.398 N 
ATOM     18  H7  <0> d          -1.657   5.766   0.050  0.00  0.00     0.156 HD
ATOM     19  H8  <0> d          -3.336   5.738   0.066  0.00  0.00     0.156 HD
ENDBRANCH   9  17
BRANCH   5  20
ATOM     20  O1  <0> d           2.342   1.110  -0.014  0.00  0.00    -0.361 OA
ATOM     21  H9  <0> d           2.676   0.922  -0.902  0.00  0.00     0.217 HD
ENDBRANCH   5  20
TORSDOF 2
