REMARK  7 active torsions:
REMARK  status: ('A' for Active; 'I' for Inactive)
REMARK    1  A    between atoms: C1_1  and  C2_2 
REMARK    2  A    between atoms: C2_2  and  C3_3 
REMARK    3  A    between atoms: C2_2  and  C4_4 
REMARK    4  A    between atoms: C4_4  and  O1_5 
REMARK    5  A    between atoms: O1_5  and  C5_6 
REMARK    6  A    between atoms: C5_6  and  C6_7 
REMARK    7  A    between atoms: C6_7  and  O2_8 
ROOT
ATOM      1  C4  <0> d           0.367   4.914   1.348  0.00  0.00     0.022 C 
ATOM      2  H8  <0> d           1.336   5.409   1.280  0.00  0.00     0.074 H 
ATOM      3  H9  <0> d          -0.277   5.263   0.542  0.00  0.00     0.074 H 
ENDROOT
BRANCH   1   4
ATOM      4  C2  <0> d          -0.278   5.242   2.696  0.00  0.00    -0.041 C 
ATOM      5  H4  <0> d           0.321   4.814   3.500  0.00  0.00     0.042 H 
BRANCH   4   6
ATOM      6  C1  <0> d          -0.355   6.760   2.869  0.00  0.00    -0.071 C 
ATOM      7  H1  <0> d          -0.955   7.187   2.065  0.00  0.00     0.028 H 
ATOM      8  H2  <0> d          -0.815   6.993   3.829  0.00  0.00     0.028 H 
ATOM      9  H3  <0> d           0.650   7.181   2.836  0.00  0.00     0.028 H 
ENDBRANCH   4   6
BRANCH   4  10
ATOM     10  C3  <0> d          -1.689   4.651   2.743  0.00  0.00    -0.071 C 
ATOM     11  H5  <0> d          -1.634   3.569   2.620  0.00  0.00     0.028 H 
ATOM     12  H6  <0> d          -2.149   4.884   3.703  0.00  0.00     0.028 H 
ATOM     13  H7  <0> d          -2.289   5.078   1.939  0.00  0.00     0.028 H 
ENDBRANCH   4  10
ENDBRANCH   1   4
BRANCH   1  14
ATOM     14  O1  <0> d           0.546   3.500   1.237  0.00  0.00    -0.389 OA
BRANCH  14  15
ATOM     15  C5  <0> d           1.145   3.085   0.008  0.00  0.00     0.039 C 
ATOM     16  H10 <0> d           2.130   3.542  -0.089  0.00  0.00     0.077 H 
ATOM     17  H11 <0> d           0.516   3.397  -0.827  0.00  0.00     0.077 H 
BRANCH  15  18
ATOM     18  C6  <0> d           1.286   1.562  -0.002  0.00  0.00     0.036 C 
ATOM     19  H12 <0> d           1.840   1.243   0.881  0.00  0.00     0.077 H 
ATOM     20  H13 <0> d           1.823   1.252  -0.899  0.00  0.00     0.077 H 
BRANCH  18  21
ATOM     21  O2  <0> d          -0.011   0.963   0.007  0.00  0.00    -0.399 OA
ATOM     22  H14 <0> d           0.002  -0.004   0.002  0.00  0.00     0.209 HD
ENDBRANCH  18  21
ENDBRANCH  15  18
ENDBRANCH  14  15
ENDBRANCH   1  14
TORSDOF 7
