REMARK  2 active torsions:
REMARK  status: ('A' for Active; 'I' for Inactive)
REMARK    1  A    between atoms: C8_10  and  C10_12 
REMARK    2  A    between atoms: C10_12  and  O1_13 
ROOT
ATOM      1  C1  <0> d           1.393   1.694  -0.002  0.00  0.00    -0.058 C 
ATOM      2  C2  <0> d          -0.013   1.086   0.008  0.00  0.00    -0.053 C 
ATOM      3  H1  <0> d           0.002  -0.004   0.002  0.00  0.00     0.040 H 
ATOM      4  C3  <0> d          -0.823   1.685  -1.173  0.00  0.00    -0.058 C 
ATOM      5  C4  <0> d          -0.898   3.220  -0.729  0.00  0.00    -0.044 C 
ATOM      6  C5  <0> d           0.526   3.731  -1.176  0.00  0.00    -0.058 C 
ATOM      7  C6  <0> d           1.398   3.225   0.005  0.00  0.00    -0.053 C 
ATOM      8  H2  <0> d           2.405   3.641  -0.003  0.00  0.00     0.040 H 
ATOM      9  C7  <0> d           0.553   3.709   1.217  0.00  0.00    -0.052 C 
ATOM     10  C8  <0> d          -0.858   3.179   0.826  0.00  0.00    -0.015 C 
ATOM     11  C9  <0> d          -0.789   1.674   1.220  0.00  0.00    -0.052 C 
ATOM     12  H3  <0> d           1.932   1.339   0.876  0.00  0.00     0.034 H 
ATOM     13  H4  <0> d           1.915   1.349  -0.894  0.00  0.00     0.034 H 
ATOM     14  H5  <0> d          -0.286   1.570  -2.115  0.00  0.00     0.034 H 
ATOM     15  H6  <0> d          -1.816   1.241  -1.233  0.00  0.00     0.034 H 
ATOM     16  H7  <0> d          -1.739   3.784  -1.133  0.00  0.00     0.041 H 
ATOM     17  H8  <0> d           0.532   4.820  -1.230  0.00  0.00     0.034 H 
ATOM     18  H9  <0> d           0.851   3.292  -2.120  0.00  0.00     0.034 H 
ATOM     19  H10 <0> d           0.900   3.255   2.145  0.00  0.00     0.034 H 
ATOM     20  H11 <0> d           0.558   4.797   1.290  0.00  0.00     0.034 H 
ATOM     21  H12 <0> d          -1.782   1.232   1.302  0.00  0.00     0.034 H 
ATOM     22  H13 <0> d          -0.227   1.548   2.145  0.00  0.00     0.034 H 
ENDROOT
BRANCH  10  23
ATOM     23  C10 <0> d          -2.008   3.938   1.491  0.00  0.00     0.024 C 
ATOM     24  H14 <0> d          -2.958   3.500   1.185  0.00  0.00     0.075 H 
ATOM     25  H15 <0> d          -1.909   3.871   2.575  0.00  0.00     0.075 H 
BRANCH  23  26
ATOM     26  O1  <0> d          -1.966   5.310   1.094  0.00  0.00    -0.400 OA
ATOM     27  H16 <0> d          -2.668   5.853   1.478  0.00  0.00     0.209 HD
ENDBRANCH  23  26
ENDBRANCH  10  23
TORSDOF 2
