REMARK  1 active torsions:
REMARK  status: ('A' for Active; 'I' for Inactive)
REMARK    1  A    between atoms: C3_3  and  C5_6 
ROOT
ATOM      1  C5  <0> d          -1.208  -0.902   0.009  0.00  0.00     0.177 C 
ATOM      2  O2  <0> d          -1.212  -1.717  -1.175  0.00  0.00    -0.353 OA
ATOM      3  C6  <0> d          -2.609  -1.840  -1.535  0.00  0.00     0.043 C 
ATOM      4  C7  <0> d          -3.156  -0.442  -1.155  0.00  0.00     0.043 C 
ATOM      5  O3  <0> d          -2.400  -0.104   0.025  0.00  0.00    -0.353 OA
ATOM      6  H4  <0> d          -1.184  -1.542   0.891  0.00  0.00     0.140 H 
ATOM      7  H5  <0> d          -3.095  -2.621  -0.951  0.00  0.00     0.077 H 
ATOM      8  H6  <0> d          -2.722  -2.027  -2.603  0.00  0.00     0.077 H 
ATOM      9  H7  <0> d          -4.221  -0.493  -0.928  0.00  0.00     0.077 H 
ATOM     10  H8  <0> d          -2.968   0.278  -1.952  0.00  0.00     0.077 H 
ENDROOT
BRANCH   1  11
ATOM     11  C3  <0> d           0.002  -0.004   0.002  0.00  0.00     0.107 A 
ATOM     12  C2  <0> d           1.284  -0.412  -0.012  0.00  0.00    -0.048 A 
ATOM     13  C1  <0> d           2.084   0.754  -0.014  0.00  0.00    -0.059 A 
ATOM     14  H2  <0> d           1.634  -1.433  -0.022  0.00  0.00     0.087 H 
ATOM     15  C4  <0> d           1.244   1.804  -0.000  0.00  0.00     0.019 A 
ATOM     16  H1  <0> d           3.164   0.793  -0.024  0.00  0.00     0.086 H 
ATOM     17  O1  <0> d          -0.016   1.339   0.009  0.00  0.00    -0.322 OA
ATOM     18  H3  <0> d           1.533   2.844   0.003  0.00  0.00     0.123 H 
ENDBRANCH   1  11
TORSDOF 1
