REMARK  3 active torsions:
REMARK  status: ('A' for Active; 'I' for Inactive)
REMARK    1  A    between atoms: C1_1  and  C2_2 
REMARK    2  A    between atoms: C2_2  and  C3_4 
REMARK    3  A    between atoms: C2_2  and  C8_9 
ROOT
ATOM      1  C3  <0> d          -0.019   1.526   0.010  0.00  0.00    -0.042 C 
ATOM      2  C4  <0> d          -0.769   2.037   1.258  0.00  0.00    -0.061 C 
ATOM      3  C5  <0> d          -1.537   3.285   0.753  0.00  0.00    -0.065 C 
ATOM      4  C6  <0> d          -1.984   2.860  -0.668  0.00  0.00    -0.065 C 
ATOM      5  C7  <0> d          -0.790   2.049  -1.214  0.00  0.00    -0.061 C 
ATOM      6  H5  <0> d           1.026   1.870   0.000  0.00  0.00     0.041 H 
ATOM      7  H6  <0> d          -1.449   1.254   1.623  0.00  0.00     0.033 H 
ATOM      8  H7  <0> d          -0.043   2.289   2.045  0.00  0.00     0.033 H 
ATOM      9  H8  <0> d          -2.386   3.488   1.422  0.00  0.00     0.033 H 
ATOM     10  H9  <0> d          -0.861   4.153   0.744  0.00  0.00     0.033 H 
ATOM     11  H10 <0> d          -2.898   2.253  -0.599  0.00  0.00     0.033 H 
ATOM     12  H11 <0> d          -2.184   3.757  -1.273  0.00  0.00     0.033 H 
ATOM     13  H12 <0> d          -0.129   2.685  -1.820  0.00  0.00     0.033 H 
ATOM     14  H13 <0> d          -1.138   1.199  -1.819  0.00  0.00     0.033 H 
ENDROOT
BRANCH   1  15
ATOM     15  C2  <0> d           0.002  -0.004   0.002  0.00  0.00     0.030 C 
ATOM     16  H1  <0> d          -1.027  -0.392   0.009  0.00  0.00     0.056 H 
BRANCH  15  17
ATOM     17  C1  <0> d           0.757  -0.511   1.232  0.00  0.00    -0.063 C 
ATOM     18  H2  <0> d           0.772  -1.611   1.226  0.00  0.00     0.028 H 
ATOM     19  H3  <0> d           0.253  -0.156   2.144  0.00  0.00     0.028 H 
ATOM     20  H4  <0> d           1.789  -0.130   1.212  0.00  0.00     0.028 H 
ENDBRANCH  15  17
BRANCH  15  21
ATOM     21  C8  <0> d           0.692  -0.490  -1.246  0.00  0.00     0.177 C 
ATOM     22  O1  <0> d           1.123   0.305  -2.047  0.00  0.00    -0.648 OA
ATOM     23  O2  <0> d           0.828  -1.807  -1.469  0.00  0.00    -0.648 OA
ENDBRANCH  15  21
ENDBRANCH   1  15
TORSDOF 3
