REMARK  1 active torsions:
REMARK  status: ('A' for Active; 'I' for Inactive)
REMARK    1  A    between atoms: C1_1  and  C2_2 
ROOT
ATOM      1  C2  <0> d          -0.013   1.086   0.008  0.00  0.00     0.057 C 
ATOM      2  H1  <0> d           0.066  -0.011  -0.010  0.00  0.00     0.086 H 
ATOM      3  C3  <0> d          -0.716   1.584   1.279  0.00  0.00     0.017 C 
ATOM      4  N1  <0> d           0.064   1.108   2.434  0.00  0.00    -0.385 N 
ATOM      5  C4  <0> d           1.463   1.186   2.353  0.00  0.00     0.061 A 
ATOM      6  C5  <0> d           2.235   1.025   3.493  0.00  0.00    -0.055 A 
ATOM      7  C6  <0> d           3.613   1.096   3.408  0.00  0.00    -0.081 A 
ATOM      8  C7  <0> d           4.220   1.326   2.187  0.00  0.00    -0.080 A 
ATOM      9  C8  <0> d           3.455   1.488   1.047  0.00  0.00    -0.049 A 
ATOM     10  C9  <0> d           2.072   1.420   1.123  0.00  0.00     0.095 A 
ATOM     11  O1  <0> d           1.327   1.583  -0.002  0.00  0.00    -0.342 OA
ATOM     12  H5  <0> d          -0.756   2.683   1.269  0.00  0.00     0.067 H 
ATOM     13  H6  <0> d          -1.739   1.181   1.314  0.00  0.00     0.067 H 
ATOM     14  H7  <0> d          -0.453   0.710   3.320  0.00  0.00     0.159 HD
ATOM     15  H8  <0> d           1.760   0.846   4.447  0.00  0.00     0.087 H 
ATOM     16  H9  <0> d           4.216   0.972   4.295  0.00  0.00     0.083 H 
ATOM     17  H10 <0> d           5.297   1.380   2.124  0.00  0.00     0.083 H 
ATOM     18  H11 <0> d           3.935   1.667   0.096  0.00  0.00     0.087 H 
ENDROOT
BRANCH   1  19
ATOM     19  C1  <0> d          -0.758   1.595  -1.227  0.00  0.00    -0.050 C 
ATOM     20  H2  <0> d          -1.789   1.212  -1.218  0.00  0.00     0.031 H 
ATOM     21  H3  <0> d          -0.245   1.246  -2.135  0.00  0.00     0.031 H 
ATOM     22  H4  <0> d          -0.776   2.695  -1.217  0.00  0.00     0.031 H 
ENDBRANCH   1  19
TORSDOF 1
