REMARK  0 active torsions:
REMARK  status: ('A' for Active; 'I' for Inactive)
ROOT
ATOM      1  C1  <0> d          -0.013   1.076   0.008  0.00  0.00    -0.080 A 
ATOM      2  C2  <0> d          -1.220   1.750   0.017  0.00  0.00    -0.080 A 
ATOM      3  C3  <0> d          -1.241   3.132   0.030  0.00  0.00    -0.043 A 
ATOM      4  C4  <0> d          -0.053   3.842   0.022  0.00  0.00     0.154 A 
ATOM      5  C5  <0> d           1.157   3.166   0.008  0.00  0.00     0.154 A 
ATOM      6  C6  <0> d           1.175   1.782   0.000  0.00  0.00    -0.043 A 
ATOM      7  F1  <0> d           2.318   3.858   0.001  0.00  0.00    -0.203 F 
ATOM      8  F2  <0> d          -0.073   5.193   0.029  0.00  0.00    -0.203 F 
ATOM      9  H1  <0> d           0.002  -0.004   0.002  0.00  0.00     0.083 H 
ATOM     10  H2  <0> d          -2.147   1.196   0.019  0.00  0.00     0.083 H 
ATOM     11  H3  <0> d          -2.184   3.657   0.041  0.00  0.00     0.088 H 
ATOM     12  H4  <0> d           2.118   1.255  -0.011  0.00  0.00     0.088 H 
ENDROOT
TORSDOF 0
