REMARK  2 active torsions:
REMARK  status: ('A' for Active; 'I' for Inactive)
REMARK    1  A    between atoms: C4_4  and  C7_8 
REMARK    2  A    between atoms: C7_8  and  O1_9 
ROOT
ATOM      1  C1  <0> d          -4.008  -1.485   0.032  0.00  0.00    -0.077 A 
ATOM      2  C2  <0> d          -3.372  -1.239  -1.170  0.00  0.00    -0.045 A 
ATOM      3  C3  <0> d          -2.073  -0.759  -1.181  0.00  0.00     0.127 A 
ATOM      4  C4  <0> d          -1.412  -0.526   0.013  0.00  0.00     0.042 A 
ATOM      5  C5  <0> d          -2.048  -0.777   1.216  0.00  0.00     0.127 A 
ATOM      6  C6  <0> d          -3.349  -1.253   1.225  0.00  0.00    -0.045 A 
ATOM      7  F1  <0> d          -1.402  -0.555   2.381  0.00  0.00    -0.205 F 
ATOM      8  F2  <0> d          -1.451  -0.519  -2.356  0.00  0.00    -0.205 F 
ATOM      9  H1  <0> d          -5.021  -1.860   0.040  0.00  0.00     0.083 H 
ATOM     10  H2  <0> d          -3.888  -1.421  -2.101  0.00  0.00     0.088 H 
ATOM     11  H3  <0> d          -3.846  -1.446   2.163  0.00  0.00     0.088 H 
ENDROOT
BRANCH   4  12
ATOM     12  C7  <0> d           0.002  -0.004   0.002  0.00  0.00     0.046 C 
ATOM     13  H4  <0> d           0.512  -0.356  -0.895  0.00  0.00     0.081 H 
ATOM     14  H5  <0> d           0.529  -0.365   0.885  0.00  0.00     0.081 H 
BRANCH  12  15
ATOM     15  O1  <0> d          -0.017   1.425   0.010  0.00  0.00    -0.396 OA
ATOM     16  H6  <0> d           0.861   1.830   0.004  0.00  0.00     0.209 HD
ENDBRANCH  12  15
ENDBRANCH   4  12
TORSDOF 2
