REMARK  3 active torsions:
REMARK  status: ('A' for Active; 'I' for Inactive)
REMARK    1  A    between atoms: C4_4  and  N1_7 
REMARK       I    between atoms: N1_7  and  C7_8 
REMARK    2  A    between atoms: C7_8  and  C8_10 
REMARK    3  A    between atoms: C8_10  and  O2_11 
ROOT
ATOM      1  C1  <0> d          -0.047   4.162   0.010  0.00  0.00    -0.083 A 
ATOM      2  C2  <0> d           1.145   3.486  -0.179  0.00  0.00    -0.081 A 
ATOM      3  C3  <0> d           1.164   2.105  -0.182  0.00  0.00    -0.057 A 
ATOM      4  C4  <0> d          -0.015   1.395   0.004  0.00  0.00     0.034 A 
ATOM      5  C5  <0> d          -1.211   2.076   0.187  0.00  0.00    -0.057 A 
ATOM      6  C6  <0> d          -1.223   3.458   0.195  0.00  0.00    -0.081 A 
ATOM      7  H1  <0> d          -0.060   5.242   0.012  0.00  0.00     0.083 H 
ATOM      8  H2  <0> d           2.061   4.039  -0.323  0.00  0.00     0.083 H 
ATOM      9  H3  <0> d           2.095   1.578  -0.329  0.00  0.00     0.086 H 
ATOM     10  H4  <0> d          -2.130   1.527   0.327  0.00  0.00     0.086 H 
ATOM     11  H5  <0> d          -2.152   3.988   0.342  0.00  0.00     0.083 H 
ENDROOT
BRANCH   4  12
ATOM     12  N1  <0> d           0.002  -0.004   0.002  0.00  0.00    -0.325 N 
ATOM     13  C7  <0> d           1.074  -0.666   0.481  0.00  0.00     0.245 C 
ATOM     14  O1  <0> d           1.982  -0.054   1.002  0.00  0.00    -0.271 OA
ATOM     15  H6  <0> d          -0.758  -0.497  -0.345  0.00  0.00     0.169 HD
BRANCH  13  16
ATOM     16  C8  <0> d           1.143  -2.167   0.371  0.00  0.00     0.090 C 
ATOM     17  H7  <0> d           0.301  -2.610   0.902  0.00  0.00     0.088 H 
ATOM     18  H8  <0> d           1.103  -2.457  -0.679  0.00  0.00     0.088 H 
BRANCH  16  19
ATOM     19  O2  <0> d           2.366  -2.631   0.946  0.00  0.00    -0.392 OA
ATOM     20  H9  <0> d           2.479  -3.591   0.910  0.00  0.00     0.210 HD
ENDBRANCH  16  19
ENDBRANCH  13  16
ENDBRANCH   4  12
TORSDOF 3
