REMARK  4 active torsions:
REMARK  status: ('A' for Active; 'I' for Inactive)
REMARK    1  A    between atoms: C1_1  and  C2_2 
REMARK    2  A    between atoms: C2_2  and  C3_3 
REMARK    3  A    between atoms: C6_6  and  O1_10 
REMARK    4  A    between atoms: C7_7  and  N1_9 
ROOT
ATOM      1  C3  <0> d          -0.718   1.572   1.248  0.00  0.00    -0.056 A 
ATOM      2  C4  <0> d          -0.358   2.779   1.817  0.00  0.00    -0.074 A 
ATOM      3  C5  <0> d          -1.005   3.233   2.952  0.00  0.00    -0.048 A 
ATOM      4  C6  <0> d          -2.010   2.472   3.528  0.00  0.00     0.091 A 
ATOM      5  C7  <0> d          -2.369   1.253   2.958  0.00  0.00     0.059 A 
ATOM      6  C8  <0> d          -1.719   0.807   1.816  0.00  0.00    -0.049 A 
ATOM      7  H6  <0> d           0.427   3.372   1.372  0.00  0.00     0.084 H 
ATOM      8  H7  <0> d          -0.725   4.178   3.392  0.00  0.00     0.087 H 
ATOM      9  H8  <0> d          -1.995  -0.138   1.372  0.00  0.00     0.087 H 
ENDROOT
BRANCH   1  10
ATOM     10  C2  <0> d          -0.013   1.086   0.008  0.00  0.00    -0.044 C 
ATOM     11  H4  <0> d           0.002  -0.004   0.002  0.00  0.00     0.039 H 
ATOM     12  H5  <0> d           1.010   1.463   0.000  0.00  0.00     0.039 H 
BRANCH  10  13
ATOM     13  C1  <0> d          -0.753   1.593  -1.232  0.00  0.00    -0.073 C 
ATOM     14  H1  <0> d          -1.775   1.215  -1.224  0.00  0.00     0.028 H 
ATOM     15  H2  <0> d          -0.767   2.683  -1.226  0.00  0.00     0.028 H 
ATOM     16  H3  <0> d          -0.242   1.241  -2.128  0.00  0.00     0.028 H 
ENDBRANCH  10  13
ENDBRANCH   1  10
BRANCH   5  17
ATOM     17  N1  <0> d          -3.383   0.480   3.535  0.00  0.00    -0.397 N 
ATOM     18  H9  <0> d          -3.633  -0.369   3.137  0.00  0.00     0.156 HD
ATOM     19  H10 <0> d          -3.837   0.793   4.333  0.00  0.00     0.156 HD
ENDBRANCH   5  17
BRANCH   4  20
ATOM     20  O1  <0> d          -2.643   2.914   4.647  0.00  0.00    -0.358 OA
ATOM     21  H11 <0> d          -2.228   2.631   5.473  0.00  0.00     0.217 HD
ENDBRANCH   4  20
TORSDOF 4
