REMARK  3 active torsions:
REMARK  status: ('A' for Active; 'I' for Inactive)
REMARK    1  A    between atoms: C1_1  and  N1_2 
REMARK    2  A    between atoms: N1_2  and  C2_3 
REMARK       I    between atoms: N1_2  and  C3_4 
REMARK    3  A    between atoms: C3_4  and  C4_6 
ROOT
ATOM      1  N1  <0> d          -0.116   1.584   0.044  0.00  0.00    -0.355 N 
ATOM      2  C3  <0> d          -1.385   1.981  -0.176  0.00  0.00     0.276 C 
ATOM      3  O1  <0> d          -2.294   1.174  -0.115  0.00  0.00    -0.265 OA
ENDROOT
BRANCH   2   4
ATOM      4  C4  <0> d          -1.671   3.385  -0.487  0.00  0.00     0.142 A 
ATOM      5  O2  <0> d          -0.754   4.354  -0.694  0.00  0.00    -0.317 OA
ATOM      6  C7  <0> d          -1.380   5.509  -0.956  0.00  0.00     0.020 A 
ATOM      7  C6  <0> d          -2.714   5.300  -0.913  0.00  0.00    -0.059 A 
ATOM      8  H9  <0> d          -0.897   6.452  -1.163  0.00  0.00     0.123 H 
ATOM      9  C5  <0> d          -2.911   3.943  -0.614  0.00  0.00    -0.043 A 
ATOM     10  H8  <0> d          -3.485   6.039  -1.078  0.00  0.00     0.086 H 
ATOM     11  H7  <0> d          -3.859   3.438  -0.504  0.00  0.00     0.088 H 
ENDBRANCH   2   4
BRANCH   1  12
ATOM     12  C1  <0> d           0.184   0.163   0.238  0.00  0.00    -0.016 C 
ATOM     13  H1  <0> d           0.122  -0.079   1.300  0.00  0.00     0.056 H 
ATOM     14  H2  <0> d          -0.537  -0.439  -0.314  0.00  0.00     0.056 H 
ATOM     15  H3  <0> d           1.189  -0.049  -0.125  0.00  0.00     0.056 H 
ENDBRANCH   1  12
BRANCH   1  16
ATOM     16  C2  <0> d           0.965   2.572   0.081  0.00  0.00    -0.016 C 
ATOM     17  H4  <0> d           1.305   2.777  -0.934  0.00  0.00     0.056 H 
ATOM     18  H5  <0> d           0.599   3.494   0.534  0.00  0.00     0.056 H 
ATOM     19  H6  <0> d           1.794   2.182   0.670  0.00  0.00     0.056 H 
ENDBRANCH   1  16
TORSDOF 3
