REMARK  3 active torsions:
REMARK  status: ('A' for Active; 'I' for Inactive)
REMARK    1  A    between atoms: C1_1  and  C2_2 
REMARK    2  A    between atoms: C3_3  and  C6_7 
REMARK    3  A    between atoms: C6_7  and  O2_8 
ROOT
ATOM      1  C2  <0> d          -1.067  -0.820   0.008  0.00  0.00     0.057 A 
ATOM      2  C3  <0> d           0.002  -0.004   0.002  0.00  0.00    -0.004 A 
ATOM      3  C4  <0> d           1.149  -0.831  -0.019  0.00  0.00    -0.051 A 
ATOM      4  C5  <0> d           0.712  -2.103  -0.016  0.00  0.00     0.019 A 
ATOM      5  O1  <0> d          -0.631  -2.091  -0.003  0.00  0.00    -0.327 OA
ATOM      6  H4  <0> d           2.178  -0.504  -0.033  0.00  0.00     0.087 H 
ATOM      7  H5  <0> d           1.335  -2.985  -0.027  0.00  0.00     0.123 H 
ENDROOT
BRANCH   2   8
ATOM      8  C6  <0> d          -0.018   1.503   0.010  0.00  0.00     0.043 C 
ATOM      9  H6  <0> d          -0.545   1.864  -0.873  0.00  0.00     0.081 H 
ATOM     10  H7  <0> d          -0.529   1.854   0.907  0.00  0.00     0.081 H 
BRANCH   8  11
ATOM     11  O2  <0> d           1.322   1.997   0.000  0.00  0.00    -0.396 OA
ATOM     12  H8  <0> d           1.385   2.962   0.005  0.00  0.00     0.209 HD
ENDBRANCH   8  11
ENDBRANCH   2   8
BRANCH   1  13
ATOM     13  C1  <0> d          -2.509  -0.384   0.023  0.00  0.00    -0.031 C 
ATOM     14  H1  <0> d          -2.866  -0.273  -1.001  0.00  0.00     0.036 H 
ATOM     15  H2  <0> d          -3.110  -1.132   0.539  0.00  0.00     0.036 H 
ATOM     16  H3  <0> d          -2.594   0.571   0.542  0.00  0.00     0.036 H 
ENDBRANCH   1  13
TORSDOF 3
