REMARK  3 active torsions:
REMARK  status: ('A' for Active; 'I' for Inactive)
REMARK    1  A    between atoms: C1_1  and  C2_2 
REMARK    2  A    between atoms: C5_5  and  C8_10 
REMARK    3  A    between atoms: C8_10  and  O1_11 
ROOT
ATOM      1  C2  <0> d           0.888   5.818   0.025  0.00  0.00    -0.020 A 
ATOM      2  C3  <0> d          -0.239   5.016   0.031  0.00  0.00    -0.073 A 
ATOM      3  C4  <0> d          -0.109   3.640   0.017  0.00  0.00    -0.071 A 
ATOM      4  C5  <0> d           1.147   3.062   0.008  0.00  0.00     0.007 A 
ATOM      5  C6  <0> d           2.276   3.862   0.001  0.00  0.00     0.163 A 
ATOM      6  C7  <0> d           2.146   5.243   0.010  0.00  0.00     0.161 A 
ATOM      7  F1  <0> d           3.247   6.026   0.003  0.00  0.00    -0.202 F 
ATOM      8  F2  <0> d           3.504   3.298  -0.013  0.00  0.00    -0.202 F 
ATOM      9  H4  <0> d          -1.221   5.465   0.043  0.00  0.00     0.084 H 
ATOM     10  H5  <0> d          -0.990   3.015   0.017  0.00  0.00     0.084 H 
ENDROOT
BRANCH   4  11
ATOM     11  C8  <0> d           1.286   1.562  -0.002  0.00  0.00     0.043 C 
ATOM     12  H6  <0> d           1.840   1.243   0.881  0.00  0.00     0.081 H 
ATOM     13  H7  <0> d           1.823   1.252  -0.899  0.00  0.00     0.081 H 
BRANCH  11  14
ATOM     14  O1  <0> d          -0.011   0.963   0.007  0.00  0.00    -0.396 OA
ATOM     15  H8  <0> d           0.002  -0.004   0.002  0.00  0.00     0.209 HD
ENDBRANCH  11  14
ENDBRANCH   4  11
BRANCH   1  16
ATOM     16  C1  <0> d           0.745   7.318   0.035  0.00  0.00    -0.048 C 
ATOM     17  H1  <0> d           0.701   7.686  -0.990  0.00  0.00     0.033 H 
ATOM     18  H2  <0> d          -0.171   7.592   0.559  0.00  0.00     0.033 H 
ATOM     19  H3  <0> d           1.601   7.761   0.543  0.00  0.00     0.033 H 
ENDBRANCH   1  16
TORSDOF 3
