REMARK  3 active torsions:
REMARK  status: ('A' for Active; 'I' for Inactive)
REMARK    1  A    between atoms: C1_1  and  O1_2 
REMARK    2  A    between atoms: O1_2  and  C2_3 
REMARK    3  A    between atoms: C2_3  and  C3_4 
REMARK       I    between atoms: C3_4  and  N1_6 
ROOT
ATOM      1  C2  <0> d          -1.330   1.944   0.019  0.00  0.00     0.092 C 
ATOM      2  H4  <0> d          -1.392   2.565   0.913  0.00  0.00     0.088 H 
ATOM      3  H5  <0> d          -1.400   2.575  -0.867  0.00  0.00     0.088 H 
ENDROOT
BRANCH   1   4
ATOM      4  O1  <0> d          -2.403   1.001   0.019  0.00  0.00    -0.387 OA
BRANCH   4   5
ATOM      5  C1  <0> d          -3.701   1.598   0.028  0.00  0.00     0.005 C 
ATOM      6  H1  <0> d          -3.821   2.221  -0.858  0.00  0.00     0.066 H 
ATOM      7  H2  <0> d          -4.461   0.816   0.028  0.00  0.00     0.066 H 
ATOM      8  H3  <0> d          -3.812   2.212   0.922  0.00  0.00     0.066 H 
ENDBRANCH   4   5
ENDBRANCH   1   4
BRANCH   1   9
ATOM      9  C3  <0> d          -0.014   1.209   0.009  0.00  0.00     0.239 C 
ATOM     10  O2  <0> d           0.002  -0.004   0.002  0.00  0.00    -0.271 OA
ATOM     11  N1  <0> d           1.143   1.898   0.001  0.00  0.00    -0.368 N 
ATOM     12  H6  <0> d           1.990   1.425  -0.009  0.00  0.00     0.159 HD
ATOM     13  H7  <0> d           1.130   2.868   0.007  0.00  0.00     0.159 HD
ENDBRANCH   1   9
TORSDOF 3
