REMARK  2 active torsions:
REMARK  status: ('A' for Active; 'I' for Inactive)
REMARK    1  A    between atoms: C7_10  and  C8_11 
REMARK    2  A    between atoms: C8_11  and  O1_12 
ROOT
ATOM      1  C1  <0> d          -2.978   3.817   0.049  0.00  0.00    -0.074 A 
ATOM      2  C2  <0> d          -1.647   4.119   0.038  0.00  0.00    -0.069 A 
ATOM      3  C3  <0> d          -0.704   3.086   0.025  0.00  0.00     0.011 A 
ATOM      4  C4  <0> d           0.755   3.044   0.011  0.00  0.00     0.034 A 
ATOM      5  N1  <0> d           1.117   1.793   0.001  0.00  0.00    -0.186 NA
ATOM      6  N2  <0> d          -0.011   0.966   0.007  0.00  0.00    -0.278 N 
ATOM      7  H1  <0> d           0.108  -0.128   0.005  0.00  0.00     0.189 HD
ATOM      8  C5  <0> d          -1.138   1.746   0.016  0.00  0.00     0.062 A 
ATOM      9  C6  <0> d          -2.502   1.469   0.033  0.00  0.00    -0.047 A 
ATOM     10  C7  <0> d          -3.405   2.495   0.046  0.00  0.00    -0.033 A 
ATOM     11  H2  <0> d          -3.707   4.614   0.059  0.00  0.00     0.084 H 
ATOM     12  H3  <0> d          -1.324   5.149   0.040  0.00  0.00     0.085 H 
ATOM     13  H4  <0> d           1.416   3.898   0.009  0.00  0.00     0.118 H 
ATOM     14  H5  <0> d          -2.847   0.445   0.031  0.00  0.00     0.088 H 
ENDROOT
BRANCH  10  15
ATOM     15  C8  <0> d          -4.880   2.189   0.057  0.00  0.00     0.041 C 
ATOM     16  H6  <0> d          -5.052   1.232   0.573  0.00  0.00     0.081 H 
ATOM     17  H7  <0> d          -5.417   2.991   0.584  0.00  0.00     0.081 H 
BRANCH  15  18
ATOM     18  O1  <0> d          -5.358   2.098  -1.286  0.00  0.00    -0.396 OA
ATOM     19  H8  <0> d          -6.419   1.879  -1.479  0.00  0.00     0.209 HD
ENDBRANCH  15  18
ENDBRANCH  10  15
TORSDOF 2
