REMARK  4 active torsions:
REMARK  status: ('A' for Active; 'I' for Inactive)
REMARK    1  A    between atoms: C1_1  and  C2_2 
REMARK    2  A    between atoms: C2_2  and  C3_4 
REMARK    3  A    between atoms: C2_2  and  N1_6 
REMARK    4  A    between atoms: C3_4  and  O1_5 
ROOT
ATOM      1  C2  <0> d           1.145   3.085   0.008  0.00  0.00     0.051 C 
ATOM      2  H1  <0> d           0.516   3.397  -0.827  0.00  0.00     0.078 H 
ENDROOT
BRANCH   1   3
ATOM      3  C1  <0> d           0.503   3.530   1.324  0.00  0.00    -0.053 C 
ATOM      4  H2  <0> d           1.132   3.218   2.158  0.00  0.00     0.030 H 
ATOM      5  H3  <0> d           0.402   4.615   1.330  0.00  0.00     0.030 H 
ATOM      6  H4  <0> d          -0.482   3.073   1.420  0.00  0.00     0.030 H 
ENDBRANCH   1   3
BRANCH   1   7
ATOM      7  C3  <0> d           1.286   1.562  -0.002  0.00  0.00     0.037 C 
ATOM      8  H5  <0> d           1.840   1.243   0.881  0.00  0.00     0.077 H 
ATOM      9  H6  <0> d           1.823   1.252  -0.899  0.00  0.00     0.077 H 
BRANCH   7  10
ATOM     10  O1  <0> d          -0.011   0.963   0.007  0.00  0.00    -0.399 OA
ATOM     11  H7  <0> d           0.002  -0.004   0.002  0.00  0.00     0.209 HD
ENDBRANCH   7  10
ENDBRANCH   1   7
BRANCH   1  12
ATOM     12  N1  <0> d           2.469   3.699  -0.122  0.00  0.00    -0.275 N 
ATOM     13  N2  <0> d           3.063   4.132  -1.314  0.00  0.00    -0.185 NA
ATOM     14  C6  <0> d           4.242   4.623  -1.029  0.00  0.00     0.023 A 
ATOM     15  C5  <0> d           4.435   4.520   0.353  0.00  0.00    -0.048 A 
ATOM     16  H10 <0> d           4.944   5.038  -1.737  0.00  0.00     0.117 H 
ATOM     17  C4  <0> d           3.328   3.954   0.887  0.00  0.00     0.000 A 
ATOM     18  H9  <0> d           5.311   4.839   0.897  0.00  0.00     0.087 H 
ATOM     19  H8  <0> d           3.163   3.741   1.933  0.00  0.00     0.114 H 
ENDBRANCH   1  12
TORSDOF 4
