REMARK  4 active torsions:
REMARK  status: ('A' for Active; 'I' for Inactive)
REMARK    1  A    between atoms: C1_1  and  O1_2 
REMARK    2  A    between atoms: O1_2  and  C2_3 
REMARK    3  A    between atoms: C4_5  and  S1_9 
REMARK    4  A    between atoms: S1_9  and  C7_10 
ROOT
ATOM      1  C2  <0> d           0.625  -0.617   1.040  0.00  0.00     0.164 A 
ATOM      2  C3  <0> d           0.681  -2.001   1.084  0.00  0.00    -0.016 A 
ATOM      3  C4  <0> d           1.324  -2.617   2.155  0.00  0.00     0.005 A 
ATOM      4  C5  <0> d           1.888  -1.807   3.145  0.00  0.00    -0.050 A 
ATOM      5  C6  <0> d           1.790  -0.439   3.028  0.00  0.00     0.006 A 
ATOM      6  N1  <0> d           1.177   0.113   1.996  0.00  0.00    -0.237 NA
ATOM      7  H4  <0> d           0.233  -2.594   0.300  0.00  0.00     0.092 H 
ATOM      8  H5  <0> d           2.394  -2.249   3.990  0.00  0.00     0.087 H 
ATOM      9  H6  <0> d           2.223   0.193   3.790  0.00  0.00     0.114 H 
ENDROOT
BRANCH   1  10
ATOM     10  O1  <0> d           0.002  -0.004   0.002  0.00  0.00    -0.339 OA
BRANCH  10  11
ATOM     11  C1  <0> d          -0.017   1.425   0.010  0.00  0.00     0.012 C 
ATOM     12  H1  <0> d           1.005   1.802   0.002  0.00  0.00     0.067 H 
ATOM     13  H2  <0> d          -0.544   1.786  -0.873  0.00  0.00     0.067 H 
ATOM     14  H3  <0> d          -0.527   1.776   0.907  0.00  0.00     0.067 H 
ENDBRANCH  10  11
ENDBRANCH   1  10
BRANCH   3  15
ATOM     15  S1  <0> d           1.423  -4.373   2.261  0.00  0.00    -0.134 SA
BRANCH  15  16
ATOM     16  C7  <0> d           2.335  -4.670   3.801  0.00  0.00    -0.030 C 
ATOM     17  H7  <0> d           1.785  -4.239   4.637  0.00  0.00     0.042 H 
ATOM     18  H8  <0> d           2.449  -5.743   3.955  0.00  0.00     0.042 H 
ATOM     19  H9  <0> d           3.319  -4.206   3.735  0.00  0.00     0.042 H 
ENDBRANCH  15  16
ENDBRANCH   3  15
TORSDOF 4
