REMARK  2 active torsions:
REMARK  status: ('A' for Active; 'I' for Inactive)
REMARK    1  A    between atoms: C1_1  and  C2_2 
REMARK       I    between atoms: C2_2  and  N1_4 
REMARK    2  A    between atoms: C4_6  and  O2_8 
ROOT
ATOM      1  C2  <0> d           0.002  -0.004   0.002  0.00  0.00     0.215 C 
ATOM      2  O1  <0> d           0.020  -0.616   1.049  0.00  0.00    -0.274 OA
ATOM      3  N1  <0> d           0.000  -0.672  -1.169  0.00  0.00    -0.347 N 
ATOM      4  C3  <0> d          -0.012  -0.309  -2.594  0.00  0.00     0.023 C 
ATOM      5  C4  <0> d           0.697  -1.640  -2.882  0.00  0.00     0.066 C 
ATOM      6  C5  <0> d           0.015  -2.083  -1.583  0.00  0.00     0.023 C 
ATOM      7  H4  <0> d          -1.014  -0.251  -3.019  0.00  0.00     0.068 H 
ATOM      8  H5  <0> d           0.596   0.565  -2.825  0.00  0.00     0.068 H 
ATOM      9  H6  <0> d           0.339  -2.153  -3.775  0.00  0.00     0.087 H 
ATOM     10  H7  <0> d           0.646  -2.712  -0.956  0.00  0.00     0.068 H 
ATOM     11  H8  <0> d          -0.980  -2.501  -1.736  0.00  0.00     0.068 H 
ENDROOT
BRANCH   1  12
ATOM     12  C1  <0> d          -0.018   1.503   0.010  0.00  0.00    -0.003 C 
ATOM     13  H1  <0> d           1.004   1.880   0.003  0.00  0.00     0.040 H 
ATOM     14  H2  <0> d          -0.545   1.864  -0.873  0.00  0.00     0.040 H 
ATOM     15  H3  <0> d          -0.529   1.854   0.907  0.00  0.00     0.040 H 
ENDBRANCH   1  12
BRANCH   5  16
ATOM     16  O2  <0> d           2.122  -1.575  -2.798  0.00  0.00    -0.392 OA
ATOM     17  H9  <0> d           2.566  -2.415  -2.980  0.00  0.00     0.210 HD
ENDBRANCH   5  16
TORSDOF 2
