REMARK  5 active torsions:
REMARK  status: ('A' for Active; 'I' for Inactive)
REMARK    1  A    between atoms: C1_1  and  C2_2 
REMARK    2  A    between atoms: C2_2  and  O1_3 
REMARK    3  A    between atoms: O1_3  and  C3_4 
REMARK    4  A    between atoms: C3_4  and  C4_6 
REMARK    5  A    between atoms: C3_4  and  N1_7 
ROOT
ATOM      1  C3  <0> d          -1.432  -1.925   0.005  0.00  0.00     0.121 C 
ATOM      2  H1  <0> d          -0.573  -2.343  -0.519  0.00  0.00     0.120 H 
ENDROOT
BRANCH   1   3
ATOM      3  O1  <0> d          -1.339  -0.499   0.012  0.00  0.00    -0.366 OA
BRANCH   3   4
ATOM      4  C2  <0> d           0.002  -0.004   0.002  0.00  0.00     0.019 C 
ATOM      5  H5  <0> d           0.512  -0.356  -0.895  0.00  0.00     0.073 H 
ATOM      6  H6  <0> d           0.529  -0.365   0.885  0.00  0.00     0.073 H 
BRANCH   4   7
ATOM      7  C1  <0> d          -0.019   1.526   0.010  0.00  0.00    -0.056 C 
ATOM      8  H2  <0> d           1.004   1.903   0.003  0.00  0.00     0.030 H 
ATOM      9  H3  <0> d          -0.546   1.887  -0.873  0.00  0.00     0.030 H 
ATOM     10  H4  <0> d          -0.529   1.877   0.907  0.00  0.00     0.030 H 
ENDBRANCH   4   7
ENDBRANCH   3   4
ENDBRANCH   1   3
BRANCH   1  11
ATOM     11  C4  <0> d          -1.452  -2.441   1.445  0.00  0.00    -0.035 C 
ATOM     12  H7  <0> d          -0.535  -2.140   1.952  0.00  0.00     0.033 H 
ATOM     13  H8  <0> d          -2.311  -2.023   1.970  0.00  0.00     0.033 H 
ATOM     14  H9  <0> d          -1.523  -3.529   1.440  0.00  0.00     0.033 H 
ENDBRANCH   1  11
BRANCH   1  15
ATOM     15  N1  <0> d          -2.664  -2.330  -0.676  0.00  0.00    -0.252 N 
ATOM     16  N2  <0> d          -3.148  -3.639  -0.793  0.00  0.00    -0.183 NA
ATOM     17  C7  <0> d          -4.272  -3.601  -1.463  0.00  0.00     0.023 A 
ATOM     18  C6  <0> d          -4.534  -2.269  -1.801  0.00  0.00    -0.048 A 
ATOM     19  H12 <0> d          -4.888  -4.451  -1.715  0.00  0.00     0.117 H 
ATOM     20  C5  <0> d          -3.530  -1.509  -1.305  0.00  0.00     0.003 A 
ATOM     21  H11 <0> d          -5.386  -1.911  -2.359  0.00  0.00     0.087 H 
ATOM     22  H10 <0> d          -3.439  -0.436  -1.397  0.00  0.00     0.114 H 
ENDBRANCH   1  15
TORSDOF 5
