REMARK  0 active torsions:
REMARK  status: ('A' for Active; 'I' for Inactive)
ROOT
ATOM      1  C1  <0> d          -0.013   1.076   0.008  0.00  0.00    -0.065 A 
ATOM      2  C2  <0> d          -1.206   1.744   0.017  0.00  0.00    -0.067 A 
ATOM      3  C3  <0> d          -1.177   3.146   0.029  0.00  0.00     0.032 A 
ATOM      4  C4  <0> d           0.077   3.809   0.021  0.00  0.00     0.071 A 
ATOM      5  C5  <0> d           0.079   5.217   0.027  0.00  0.00    -0.037 A 
ATOM      6  C6  <0> d          -1.113   5.880   0.041  0.00  0.00     0.006 A 
ATOM      7  N1  <0> d          -2.272   5.244   0.049  0.00  0.00    -0.249 NA
ATOM      8  C7  <0> d          -2.358   3.924   0.044  0.00  0.00     0.148 A 
ATOM      9  C8  <0> d          -3.640   3.286   0.053  0.00  0.00     0.120 C 
ATOM     10  N2  <0> d          -4.657   2.780   0.060  0.00  0.00    -0.190 NA
ATOM     11  N3  <0> d           1.206   3.101   0.007  0.00  0.00    -0.260 NA
ATOM     12  C9  <0> d           1.184   1.789   0.000  0.00  0.00     0.003 A 
ATOM     13  H1  <0> d           0.002  -0.004   0.002  0.00  0.00     0.085 H 
ATOM     14  H2  <0> d          -2.143   1.207   0.019  0.00  0.00     0.085 H 
ATOM     15  H3  <0> d           1.011   5.764   0.022  0.00  0.00     0.089 H 
ATOM     16  H4  <0> d          -1.110   6.960   0.046  0.00  0.00     0.114 H 
ATOM     17  H5  <0> d           2.119   1.247  -0.011  0.00  0.00     0.114 H 
ENDROOT
TORSDOF 0
