REMARK  1 active torsions:
REMARK  status: ('A' for Active; 'I' for Inactive)
REMARK    1  A    between atoms: C1_1  and  C2_2 
ROOT
ATOM      1  C2  <0> d           0.002  -0.004   0.002  0.00  0.00    -0.048 A 
ATOM      2  C3  <0> d           0.006  -0.700  -1.174  0.00  0.00    -0.059 A 
ATOM      3  C4  <0> d           0.025  -2.092  -1.157  0.00  0.00     0.003 A 
ATOM      4  N1  <0> d           0.039  -2.769  -0.035  0.00  0.00    -0.260 NA
ATOM      5  C5  <0> d           0.036  -2.150   1.150  0.00  0.00     0.067 A 
ATOM      6  C6  <0> d           0.023  -0.734   1.205  0.00  0.00    -0.002 A 
ATOM      7  C7  <0> d           0.026  -0.088   2.452  0.00  0.00    -0.070 A 
ATOM      8  C8  <0> d           0.046  -0.830   3.594  0.00  0.00    -0.082 A 
ATOM      9  C9  <0> d           0.065  -2.222   3.542  0.00  0.00    -0.081 A 
ATOM     10  C10 <0> d           0.051  -2.881   2.351  0.00  0.00    -0.054 A 
ATOM     11  H4  <0> d          -0.006  -0.170  -2.115  0.00  0.00     0.086 H 
ATOM     12  H5  <0> d           0.028  -2.629  -2.095  0.00  0.00     0.114 H 
ATOM     13  H6  <0> d           0.012   0.991   2.506  0.00  0.00     0.084 H 
ATOM     14  H7  <0> d           0.049  -0.332   4.552  0.00  0.00     0.083 H 
ATOM     15  H8  <0> d           0.081  -2.788   4.462  0.00  0.00     0.083 H 
ATOM     16  H9  <0> d           0.065  -3.960   2.328  0.00  0.00     0.087 H 
ENDROOT
BRANCH   1  17
ATOM     17  C1  <0> d          -0.018   1.503   0.010  0.00  0.00    -0.050 C 
ATOM     18  H1  <0> d           1.004   1.880   0.003  0.00  0.00     0.033 H 
ATOM     19  H2  <0> d          -0.545   1.864  -0.873  0.00  0.00     0.033 H 
ATOM     20  H3  <0> d          -0.529   1.854   0.907  0.00  0.00     0.033 H 
ENDBRANCH   1  17
TORSDOF 1
