REMARK  2 active torsions:
REMARK  status: ('A' for Active; 'I' for Inactive)
REMARK    1  A    between atoms: C3_3  and  C7_8 
REMARK    2  A    between atoms: C5_5  and  N1_7 
ROOT
ATOM      1  C1  <0> d           1.173   1.783   0.000  0.00  0.00    -0.080 A 
ATOM      2  C2  <0> d           1.155   3.166   0.008  0.00  0.00    -0.076 A 
ATOM      3  C3  <0> d          -0.049   3.845   0.022  0.00  0.00    -0.052 A 
ATOM      4  C4  <0> d          -1.239   3.144   0.029  0.00  0.00    -0.051 A 
ATOM      5  C5  <0> d          -1.225   1.755   0.017  0.00  0.00     0.026 A 
ATOM      6  C6  <0> d          -0.013   1.076   0.008  0.00  0.00    -0.058 A 
ATOM      7  H1  <0> d           2.116   1.256  -0.011  0.00  0.00     0.083 H 
ATOM      8  H2  <0> d           2.084   3.717   0.003  0.00  0.00     0.084 H 
ATOM      9  H3  <0> d          -2.179   3.675   0.041  0.00  0.00     0.087 H 
ATOM     10  H4  <0> d           0.002  -0.004   0.002  0.00  0.00     0.086 H 
ENDROOT
BRANCH   3  11
ATOM     11  C7  <0> d          -0.064   5.352   0.030  0.00  0.00    -0.029 A 
ATOM     12  C9  <0> d           0.620   6.059   1.203  0.00  0.00    -0.057 A 
ATOM     13  C8  <0> d           1.269   6.072  -0.184  0.00  0.00    -0.057 A 
ATOM     14  H10 <0> d           0.175   6.987   1.559  0.00  0.00     0.034 H 
ATOM     15  H11 <0> d           1.080   5.434   1.968  0.00  0.00     0.034 H 
ATOM     16  H8  <0> d           2.156   5.457  -0.331  0.00  0.00     0.034 H 
ATOM     17  H9  <0> d           1.251   7.010  -0.739  0.00  0.00     0.034 H 
ATOM     18  H7  <0> d          -0.959   5.816  -0.384  0.00  0.00     0.047 H 
ENDBRANCH   3  11
BRANCH   5  19
ATOM     19  N1  <0> d          -2.426   1.042   0.020  0.00  0.00    -0.399 N 
ATOM     20  H5  <0> d          -2.415   0.072   0.015  0.00  0.00     0.156 HD
ATOM     21  H6  <0> d          -3.272   1.518   0.026  0.00  0.00     0.156 HD
ENDBRANCH   5  19
TORSDOF 2
