REMARK  6 active torsions:
REMARK  status: ('A' for Active; 'I' for Inactive)
REMARK    1  A    between atoms: C1_1  and  C2_2 
REMARK    2  A    between atoms: C2_2  and  C3_4 
REMARK    3  A    between atoms: C2_2  and  C5_7 
REMARK    4  A    between atoms: C3_4  and  C4_5 
REMARK    5  A    between atoms: C5_7  and  C6_9 
REMARK    6  A    between atoms: C5_7  and  C7_10 
ROOT
ATOM      1  C2  <0> d           2.696   3.548  -0.005  0.00  0.00    -0.036 C 
ATOM      2  H1  <0> d           3.204   3.160   0.878  0.00  0.00     0.041 H 
ENDROOT
BRANCH   1   3
ATOM      3  C1  <0> d           3.385   3.017  -1.263  0.00  0.00    -0.072 C 
ATOM      4  H3  <0> d           2.877   3.405  -2.147  0.00  0.00     0.028 H 
ATOM      5  H4  <0> d           4.426   3.340  -1.272  0.00  0.00     0.028 H 
ATOM      6  H5  <0> d           3.343   1.928  -1.269  0.00  0.00     0.028 H 
ENDBRANCH   1   3
BRANCH   1   7
ATOM      7  C3  <0> d           2.755   5.077   0.003  0.00  0.00     0.019 C 
ATOM      8  H6  <0> d           2.327   5.462  -0.922  0.00  0.00     0.049 H 
ATOM      9  H7  <0> d           2.189   5.458   0.852  0.00  0.00     0.049 H 
BRANCH   7  10
ATOM     10  C4  <0> d           4.190   5.523   0.116  0.00  0.00     0.172 C 
ATOM     11  O1  <0> d           5.075   4.703   0.183  0.00  0.00    -0.648 OA
ATOM     12  O3  <0> d           4.486   6.832   0.141  0.00  0.00    -0.648 OA
ENDBRANCH   7  10
ENDBRANCH   1   7
BRANCH   1  13
ATOM     13  C5  <0> d           1.235   3.094   0.007  0.00  0.00     0.031 C 
ATOM     14  H2  <0> d           0.727   3.482  -0.876  0.00  0.00     0.056 H 
BRANCH  13  15
ATOM     15  C6  <0> d           0.546   3.625   1.266  0.00  0.00    -0.063 C 
ATOM     16  H8  <0> d          -0.495   3.302   1.274  0.00  0.00     0.028 H 
ATOM     17  H9  <0> d           1.054   3.237   2.149  0.00  0.00     0.028 H 
ATOM     18  H10 <0> d           0.588   4.714   1.271  0.00  0.00     0.028 H 
ENDBRANCH  13  15
BRANCH  13  19
ATOM     19  C7  <0> d           1.177   1.588  -0.001  0.00  0.00     0.177 C 
ATOM     20  O2  <0> d           2.199   0.944  -0.014  0.00  0.00    -0.648 OA
ATOM     21  O4  <0> d          -0.011   0.963   0.007  0.00  0.00    -0.648 OA
ENDBRANCH  13  19
ENDBRANCH   1  13
TORSDOF 6
