REMARK  7 active torsions:
REMARK  status: ('A' for Active; 'I' for Inactive)
REMARK    1  A    between atoms: C1_1  and  C2_2 
REMARK    2  A    between atoms: C2_2  and  C4_4 
REMARK    3  A    between atoms: C5_5  and  C6_6 
REMARK    4  A    between atoms: C6_6  and  C7_7 
REMARK    5  A    between atoms: C7_7  and  C8_8 
REMARK    6  A    between atoms: C7_7  and  C9_9 
REMARK    7  A    between atoms: C7_7  and  O1_11 
ROOT
ATOM      1  C6  <0> d          -2.140   1.419  -1.240  0.00  0.00    -0.018 C 
ATOM      2  H8  <0> d          -1.573   1.701  -2.127  0.00  0.00     0.043 H 
ATOM      3  H9  <0> d          -2.328   0.346  -1.254  0.00  0.00     0.043 H 
ENDROOT
BRANCH   1   4
ATOM      4  C5  <0> d          -3.453   2.159  -1.227  0.00  0.00    -0.099 C 
ATOM      5  C4  <0> d          -3.796   2.923  -2.258  0.00  0.00    -0.082 C 
ATOM      6  H6  <0> d          -3.100   3.079  -3.070  0.00  0.00     0.083 H 
ATOM      7  H7  <0> d          -4.116   2.068  -0.379  0.00  0.00     0.076 H 
BRANCH   5   8
ATOM      8  C2  <0> d          -5.122   3.557  -2.296  0.00  0.00    -0.072 C 
ATOM      9  C3  <0> d          -5.506   4.233  -3.373  0.00  0.00    -0.116 C 
ATOM     10  H4  <0> d          -6.480   4.699  -3.401  0.00  0.00     0.067 H 
ATOM     11  H5  <0> d          -4.843   4.317  -4.222  0.00  0.00     0.067 H 
BRANCH   8  12
ATOM     12  C1  <0> d          -6.047   3.440  -1.111  0.00  0.00    -0.052 C 
ATOM     13  H1  <0> d          -5.530   2.935  -0.295  0.00  0.00     0.033 H 
ATOM     14  H2  <0> d          -6.351   4.436  -0.788  0.00  0.00     0.033 H 
ATOM     15  H3  <0> d          -6.929   2.865  -1.394  0.00  0.00     0.033 H 
ENDBRANCH   8  12
ENDBRANCH   5   8
ENDBRANCH   1   4
BRANCH   1  16
ATOM     16  C7  <0> d          -1.339   1.780   0.013  0.00  0.00     0.074 C 
BRANCH  16  17
ATOM     17  C8  <0> d          -2.135   1.385   1.258  0.00  0.00    -0.044 C 
ATOM     18  H10 <0> d          -1.564   1.642   2.151  0.00  0.00     0.032 H 
ATOM     19  H11 <0> d          -3.084   1.920   1.268  0.00  0.00     0.032 H 
ATOM     20  H12 <0> d          -2.323   0.311   1.244  0.00  0.00     0.032 H 
ENDBRANCH  16  17
BRANCH  16  21
ATOM     21  C9  <0> d          -0.026   1.041  -0.000  0.00  0.00    -0.080 C 
ATOM     22  C10 <0> d           1.101   1.708   0.001  0.00  0.00    -0.122 C 
ATOM     23  H14 <0> d           1.090   2.788   0.016  0.00  0.00     0.066 H 
ATOM     24  H15 <0> d           2.042   1.178  -0.013  0.00  0.00     0.066 H 
ATOM     25  H13 <0> d          -0.015  -0.039  -0.015  0.00  0.00     0.080 H 
ENDBRANCH  16  21
BRANCH  16  26
ATOM     26  O1  <0> d          -1.093   3.188   0.032  0.00  0.00    -0.386 OA
ATOM     27  H16 <0> d          -0.592   3.510  -0.730  0.00  0.00     0.211 HD
ENDBRANCH  16  26
ENDBRANCH   1  16
TORSDOF 7
