REMARK  4 active torsions:
REMARK  status: ('A' for Active; 'I' for Inactive)
REMARK    1  A    between atoms: C1_1  and  N1_2 
REMARK    2  A    between atoms: N1_2  and  C2_3 
REMARK    3  A    between atoms: N1_2  and  C3_4 
REMARK    4  A    between atoms: C5_7  and  N4_10 
ROOT
ATOM      1  C3  <0> d          -1.190  -0.714   0.010  0.00  0.00     0.723 A 
ATOM      2  N2  <0> d          -1.151  -2.038   0.008  0.00  0.00    -0.073 NA
ATOM      3  C4  <0> d          -2.268  -2.748   0.015  0.00  0.00     0.048 A 
ATOM      4  C5  <0> d          -3.492  -2.085   0.025  0.00  0.00     0.062 A 
ATOM      5  C6  <0> d          -3.491  -0.693   0.027  0.00  0.00     0.048 A 
ATOM      6  N3  <0> d          -2.335  -0.050   0.024  0.00  0.00    -0.073 NA
ATOM      7  H7  <0> d          -2.230  -3.827   0.013  0.00  0.00     0.119 H 
ATOM      8  H8  <0> d          -4.422  -0.146   0.034  0.00  0.00     0.119 H 
ENDROOT
BRANCH   1   9
ATOM      9  N1  <0> d           0.002  -0.004   0.002  0.00  0.00    -0.223 N 
BRANCH   9  10
ATOM     10  C1  <0> d          -0.018   1.461   0.010  0.00  0.00    -0.003 C 
ATOM     11  H1  <0> d           1.005   1.838   0.002  0.00  0.00     0.057 H 
ATOM     12  H2  <0> d          -0.545   1.822  -0.873  0.00  0.00     0.057 H 
ATOM     13  H3  <0> d          -0.528   1.812   0.907  0.00  0.00     0.057 H 
ENDBRANCH   9  10
BRANCH   9  14
ATOM     14  C2  <0> d           1.281  -0.719  -0.014  0.00  0.00    -0.003 C 
ATOM     15  H4  <0> d           1.607  -0.902   1.010  0.00  0.00     0.057 H 
ATOM     16  H5  <0> d           1.158  -1.671  -0.532  0.00  0.00     0.057 H 
ATOM     17  H6  <0> d           2.027  -0.117  -0.532  0.00  0.00     0.057 H 
ENDBRANCH   9  14
ENDBRANCH   1   9
BRANCH   4  18
ATOM     18  N4  <0> d          -4.695  -2.802   0.033  0.00  0.00    -0.397 N 
ATOM     19  H9  <0> d          -4.682  -3.772   0.031  0.00  0.00     0.156 HD
ATOM     20  H10 <0> d          -5.542  -2.328   0.040  0.00  0.00     0.156 HD
ENDBRANCH   4  18
TORSDOF 4
