REMARK  1 active torsions:
REMARK  status: ('A' for Active; 'I' for Inactive)
REMARK    1  A    between atoms: C1_1  and  C2_2 
ROOT
ATOM      1  C1  <0> d          -0.739   2.292   1.271  0.00  0.00    -0.031 C 
ATOM      2  H1  <0> d          -0.211   1.931   2.154  0.00  0.00     0.033 H 
ATOM      3  H2  <0> d          -0.753   3.382   1.277  0.00  0.00     0.033 H 
ATOM      4  H3  <0> d          -1.761   1.915   1.278  0.00  0.00     0.033 H 
ENDROOT
BRANCH   1   5
ATOM      5  C2  <0> d          -0.022   1.799   0.012  0.00  0.00     0.184 C 
ATOM      6 Cl1  <0> d           0.002  -0.004   0.002  0.00  0.00    -0.084 Cl
ATOM      7 Cl2  <0> d           1.669   2.423  -0.001  0.00  0.00    -0.084 Cl
ATOM      8 Cl3  <0> d          -0.894   2.396  -1.449  0.00  0.00    -0.084 Cl
ENDBRANCH   1   5
TORSDOF 1
