REMARK  3 active torsions:
REMARK  status: ('A' for Active; 'I' for Inactive)
REMARK    1  A    between atoms: C1_1  and  C2_2 
REMARK    2  A    between atoms: C3_4  and  C4_7 
REMARK    3  A    between atoms: C4_7  and  C5_8 
ROOT
ATOM      1  C2  <0> d           4.600   4.145  -0.641  0.00  0.00     0.169 A 
ATOM      2  N1  <0> d           3.424   3.783  -1.095  0.00  0.00    -0.209 NA
ATOM      3  C3  <0> d           2.674   3.541  -0.004  0.00  0.00     0.166 A 
ATOM      4  N2  <0> d           3.417   3.769   1.037  0.00  0.00    -0.111 NA
ATOM      5  O1  <0> d           4.529   4.112   0.693  0.00  0.00    -0.197 OA
ENDROOT
BRANCH   3   6
ATOM      6  C4  <0> d           1.235   3.094   0.007  0.00  0.00     0.074 C 
ATOM      7  H4  <0> d           0.740   3.476   0.912  0.00  0.00     0.061 H 
ATOM      8  H5  <0> d           0.723   3.486  -0.884  0.00  0.00     0.061 H 
BRANCH   6   9
ATOM      9  C5  <0> d           1.177   1.588  -0.001  0.00  0.00     0.180 C 
ATOM     10  O2  <0> d           2.199   0.944  -0.014  0.00  0.00    -0.648 OA
ATOM     11  O3  <0> d          -0.011   0.963   0.007  0.00  0.00    -0.648 OA
ENDBRANCH   6   9
ENDBRANCH   3   6
BRANCH   1  12
ATOM     12  C1  <0> d           5.802   4.525  -1.466  0.00  0.00    -0.013 C 
ATOM     13  H1  <0> d           5.550   4.455  -2.535  0.00  0.00     0.038 H 
ATOM     14  H2  <0> d           6.633   3.841  -1.240  0.00  0.00     0.038 H 
ATOM     15  H3  <0> d           6.101   5.556  -1.226  0.00  0.00     0.038 H 
ENDBRANCH   1  12
TORSDOF 3
