REMARK  1 active torsions:
REMARK  status: ('A' for Active; 'I' for Inactive)
REMARK    1  A    between atoms: N2_9  and  N3_10 
ROOT
ATOM      1  C1  <0> d          -1.226   1.748   0.017  0.00  0.00    -0.081 A 
ATOM      2  C2  <0> d          -0.013   1.076   0.008  0.00  0.00    -0.081 A 
ATOM      3  C3  <0> d           1.175   1.777   0.000  0.00  0.00    -0.053 A 
ATOM      4  C4  <0> d           1.154   3.165   0.008  0.00  0.00     0.081 A 
ATOM      5  C5  <0> d          -0.075   3.845   0.022  0.00  0.00     0.086 A 
ATOM      6  C6  <0> d          -1.266   3.114   0.030  0.00  0.00    -0.053 A 
ATOM      7  N1  <0> d           0.208   5.173   0.026  0.00  0.00    -0.240 NA
ATOM      8  C7  <0> d           1.497   5.345   0.015  0.00  0.00     0.082 A 
ATOM      9  N2  <0> d           2.130   4.141   0.003  0.00  0.00    -0.271 N 
ATOM     10  H1  <0> d          -2.149   1.187   0.019  0.00  0.00     0.083 H 
ATOM     11  H2  <0> d           0.002  -0.004   0.002  0.00  0.00     0.083 H 
ATOM     12  H3  <0> d           2.116   1.248  -0.011  0.00  0.00     0.087 H 
ATOM     13  H4  <0> d          -2.216   3.627   0.042  0.00  0.00     0.087 H 
ATOM     14  H5  <0> d           1.994   6.305   0.015  0.00  0.00     0.145 H 
ENDROOT
BRANCH   9  15
ATOM     15  N3  <0> d           3.480   3.936  -0.011  0.00  0.00    -0.241 NA
ATOM     16  H6  <0> d           3.829   3.886  -0.956  0.00  0.00     0.143 HD
ATOM     17  H7  <0> d           3.960   4.651   0.515  0.00  0.00     0.143 HD
ENDBRANCH   9  15
TORSDOF 1
