REMARK  1 active torsions:
REMARK  status: ('A' for Active; 'I' for Inactive)
REMARK    1  A    between atoms: C7_9  and  C8_11 
ROOT
ATOM      1  C1  <0> d          -0.984   3.234   2.666  0.00  0.00    -0.061 C 
ATOM      2  C2  <0> d          -0.129   3.676   1.457  0.00  0.00    -0.060 C 
ATOM      3  C3  <0> d          -1.099   3.600   0.238  0.00  0.00    -0.041 C 
ATOM      4  H1  <0> d          -0.802   4.168  -0.643  0.00  0.00     0.041 H 
ATOM      5  C4  <0> d          -2.453   4.005   0.920  0.00  0.00    -0.058 C 
ATOM      6  C5  <0> d          -2.390   2.932   2.064  0.00  0.00    -0.053 C 
ATOM      7  H2  <0> d          -3.219   2.919   2.773  0.00  0.00     0.040 H 
ATOM      8  C6  <0> d          -2.187   1.631   1.229  0.00  0.00    -0.049 C 
ATOM      9  C7  <0> d          -1.331   2.074   0.020  0.00  0.00     0.034 C 
ATOM     10  H3  <0> d          -1.871   1.899  -0.911  0.00  0.00     0.057 H 
ATOM     11  H4  <0> d          -1.049   4.038   3.400  0.00  0.00     0.033 H 
ATOM     12  H5  <0> d          -0.564   2.337   3.120  0.00  0.00     0.033 H 
ATOM     13  H6  <0> d           0.227   4.697   1.596  0.00  0.00     0.033 H 
ATOM     14  H7  <0> d           0.712   2.996   1.317  0.00  0.00     0.033 H 
ATOM     15  H8  <0> d          -3.306   3.849   0.260  0.00  0.00     0.034 H 
ATOM     16  H9  <0> d          -2.426   5.022   1.312  0.00  0.00     0.034 H 
ATOM     17  H10 <0> d          -3.147   1.242   0.892  0.00  0.00     0.034 H 
ATOM     18  H11 <0> d          -1.657   0.880   1.815  0.00  0.00     0.034 H 
ENDROOT
BRANCH   9  19
ATOM     19  C8  <0> d          -0.016   1.338   0.009  0.00  0.00     0.177 C 
ATOM     20  O1  <0> d           0.412   0.851   1.029  0.00  0.00    -0.648 OA
ATOM     21  O2  <0> d           0.683   1.228  -1.131  0.00  0.00    -0.648 OA
ENDBRANCH   9  19
TORSDOF 1
