REMARK  2 active torsions:
REMARK  status: ('A' for Active; 'I' for Inactive)
REMARK    1  A    between atoms: C4_5  and  C6_8 
REMARK    2  A    between atoms: C5_6  and  O1_7 
ROOT
ATOM      1  C1  <0> d           2.470   5.125   0.006  0.00  0.00    -0.033 A 
ATOM      2  C2  <0> d           1.263   5.793   0.021  0.00  0.00     0.004 A 
ATOM      3  N1  <0> d           0.117   5.136   0.029  0.00  0.00    -0.272 NA
ATOM      4  C3  <0> d           0.066   3.821   0.022  0.00  0.00     0.021 A 
ATOM      5  C4  <0> d           1.238   3.064   0.007  0.00  0.00     0.091 A 
ATOM      6  C5  <0> d           2.476   3.733   0.004  0.00  0.00     0.085 A 
ATOM      7  H1  <0> d           3.399   5.676   0.001  0.00  0.00     0.090 H 
ATOM      8  H2  <0> d           1.255   6.873   0.027  0.00  0.00     0.114 H 
ATOM      9  H3  <0> d          -0.892   3.323   0.028  0.00  0.00     0.116 H 
ENDROOT
BRANCH   5  10
ATOM     10  C6  <0> d           1.181   1.591  -0.001  0.00  0.00     0.213 C 
ATOM     11  O2  <0> d           2.209   0.943  -0.014  0.00  0.00    -0.644 OA
ATOM     12  O3  <0> d          -0.011   0.963   0.007  0.00  0.00    -0.644 OA
ENDBRANCH   5  10
BRANCH   6  13
ATOM     13  O1  <0> d           3.642   3.042  -0.004  0.00  0.00    -0.360 OA
ATOM     14  H4  <0> d           3.976   2.846  -0.890  0.00  0.00     0.217 HD
ENDBRANCH   6  13
TORSDOF 2
