REMARK  2 active torsions:
REMARK  status: ('A' for Active; 'I' for Inactive)
REMARK    1  A    between atoms: C1_1  and  C2_2 
REMARK    2  A    between atoms: C2_2  and  N1_3 
REMARK       I    between atoms: N1_3  and  C3_4 
REMARK       I    between atoms: C3_4  and  N2_6 
ROOT
ATOM      1  N1  <0> d           0.688  -0.476  -1.203  0.00  0.00    -0.342 N 
ATOM      2  C3  <0> d           0.827  -1.799  -1.425  0.00  0.00     0.342 C 
ATOM      3  O1  <0> d           0.384  -2.599  -0.625  0.00  0.00    -0.245 OA
ATOM      4  N2  <0> d           1.458  -2.233  -2.534  0.00  0.00    -0.195 N 
ATOM      5  C4  <0> d           1.663  -3.534  -2.884  0.00  0.00     0.010 A 
ATOM      6  C5  <0> d           2.328  -3.540  -4.059  0.00  0.00    -0.047 A 
ATOM      7  C6  <0> d           2.539  -2.209  -4.444  0.00  0.00     0.024 A 
ATOM      8  N3  <0> d           2.015  -1.429  -3.536  0.00  0.00    -0.176 NA
ATOM      9  H6  <0> d           1.042   0.162  -1.842  0.00  0.00     0.164 HD
ATOM     10  H7  <0> d           1.350  -4.402  -2.323  0.00  0.00     0.115 H 
ATOM     11  H8  <0> d           2.643  -4.416  -4.606  0.00  0.00     0.087 H 
ATOM     12  H9  <0> d           3.046  -1.883  -5.340  0.00  0.00     0.117 H 
ENDROOT
BRANCH   1  13
ATOM     13  C2  <0> d           0.002  -0.004   0.002  0.00  0.00    -0.006 C 
ATOM     14  H4  <0> d           0.529  -0.365   0.885  0.00  0.00     0.063 H 
ATOM     15  H5  <0> d          -1.020  -0.381   0.010  0.00  0.00     0.063 H 
BRANCH  13  16
ATOM     16  C1  <0> d          -0.019   1.526   0.010  0.00  0.00    -0.061 C 
ATOM     17  H1  <0> d           1.004   1.903   0.003  0.00  0.00     0.029 H 
ATOM     18  H2  <0> d          -0.546   1.887  -0.873  0.00  0.00     0.029 H 
ATOM     19  H3  <0> d          -0.529   1.877   0.907  0.00  0.00     0.029 H 
ENDBRANCH  13  16
ENDBRANCH   1  13
TORSDOF 2
