REMARK  1 active torsions:
REMARK  status: ('A' for Active; 'I' for Inactive)
REMARK    1  A    between atoms: C2_2  and  C5_8 
ROOT
ATOM      1  C1  <0> d          -2.503   1.219   0.015  0.00  0.00     0.014 A 
ATOM      2  C2  <0> d          -1.304   1.932   0.019  0.00  0.00     0.148 A 
ATOM      3  N1  <0> d          -1.323   3.264   0.032  0.00  0.00    -0.248 NA
ATOM      4  C3  <0> d          -2.471   3.905   0.045  0.00  0.00     0.055 A 
ATOM      5  C4  <0> d          -3.671   3.191   0.046  0.00  0.00     0.196 A 
ATOM      6  N2  <0> d          -3.654   1.865   0.028  0.00  0.00    -0.341 N 
ATOM      7  O1  <0> d          -4.853   3.853   0.060  0.00  0.00    -0.171 OA
ATOM      8  H1  <0> d          -2.489   0.139   0.001  0.00  0.00     0.115 H 
ATOM      9  H2  <0> d          -2.486   4.985   0.056  0.00  0.00     0.121 H 
ATOM     10  H3  <0> d          -4.514   1.354   0.024  0.00  0.00     0.167 HD
ENDROOT
BRANCH   2  11
ATOM     11  C5  <0> d          -0.014   1.210   0.009  0.00  0.00     0.230 C 
ATOM     12  O2  <0> d           0.002  -0.004   0.002  0.00  0.00    -0.643 OA
ATOM     13  O3  <0> d           1.143   1.900   0.001  0.00  0.00    -0.643 OA
ENDBRANCH   2  11
TORSDOF 1
