REMARK  6 active torsions:
REMARK  status: ('A' for Active; 'I' for Inactive)
REMARK    1  A    between atoms: C1_1  and  C2_2 
REMARK    2  A    between atoms: C2_2  and  N1_3 
REMARK    3  A    between atoms: N1_3  and  C3_4 
REMARK    4  A    between atoms: N1_3  and  C6_7 
REMARK    5  A    between atoms: C3_4  and  C4_5 
REMARK    6  A    between atoms: C6_7  and  C7_8 
ROOT
ATOM      1  C4  <0> d           0.035   0.025  -0.065  0.00  0.00    -0.087 C 
ATOM      2  C5  <0> d           0.057  -1.149  -0.090  0.00  0.00    -0.152 C 
ATOM      3  H8  <0> d           0.078  -2.248  -0.113  0.00  0.00     0.166 H 
ENDROOT
BRANCH   1   4
ATOM      4  C3  <0> d           0.006   1.496  -0.033  0.00  0.00     0.167 C 
ATOM      5  H6  <0> d          -0.531   1.834   0.866  0.00  0.00     0.099 H 
ATOM      6  H7  <0> d          -0.507   1.873  -0.930  0.00  0.00     0.099 H 
BRANCH   4   7
ATOM      7  N1  <0> d           1.381   2.012  -0.004  0.00  0.00     0.109 N 
BRANCH   7   8
ATOM      8  C2  <0> d           2.021   1.734   1.289  0.00  0.00     0.112 C 
ATOM      9  H4  <0> d           3.026   2.179   1.305  0.00  0.00     0.079 H 
ATOM     10  H5  <0> d           2.100   0.646   1.433  0.00  0.00     0.079 H 
BRANCH   8  11
ATOM     11  C1  <0> d           1.178   2.337   2.415  0.00  0.00    -0.051 C 
ATOM     12  H1  <0> d           1.657   2.128   3.383  0.00  0.00     0.029 H 
ATOM     13  H2  <0> d           0.173   1.891   2.400  0.00  0.00     0.029 H 
ATOM     14  H3  <0> d           1.099   3.424   2.272  0.00  0.00     0.029 H 
ENDBRANCH   8  11
ENDBRANCH   7   8
BRANCH   7  15
ATOM     15  C6  <0> d           1.411   3.449  -0.307  0.00  0.00     0.167 C 
ATOM     16  H9  <0> d           0.834   3.643  -1.223  0.00  0.00     0.099 H 
ATOM     17  H10 <0> d           0.970   4.010   0.530  0.00  0.00     0.099 H 
BRANCH  15  18
ATOM     18  C7  <0> d           2.805   3.880  -0.505  0.00  0.00    -0.087 C 
ATOM     19  C8  <0> d           3.916   4.223  -0.664  0.00  0.00    -0.152 C 
ATOM     20  H11 <0> d           4.910   4.531  -0.805  0.00  0.00     0.166 H 
ENDBRANCH  15  18
ENDBRANCH   7  15
ENDBRANCH   4   7
ENDBRANCH   1   4
TORSDOF 6
