REMARK  1 active torsions:
REMARK  status: ('A' for Active; 'I' for Inactive)
REMARK    1  A    between atoms: C3_3  and  C5_6 
ROOT
ATOM      1  C1  <0> d          -0.016   1.353   0.009  0.00  0.00    -0.075 A 
ATOM      2  C2  <0> d           1.178   2.041   0.002  0.00  0.00    -0.064 A 
ATOM      3  C3  <0> d           2.347   1.329  -0.013  0.00  0.00     0.035 A 
ATOM      4  S1  <0> d           1.752  -0.354  -0.017  0.00  0.00    -0.100 SA
ATOM      5  C4  <0> d           0.002  -0.004   0.002  0.00  0.00    -0.044 A 
ATOM      6  H2  <0> d          -0.955   1.887   0.026  0.00  0.00     0.084 H 
ATOM      7  H3  <0> d           1.191   3.121   0.007  0.00  0.00     0.085 H 
ATOM      8  H4  <0> d          -0.829  -0.694   0.007  0.00  0.00     0.095 H 
ENDROOT
BRANCH   3   9
ATOM      9  C5  <0> d           3.740   1.825  -0.024  0.00  0.00     0.095 A 
ATOM     10  N2  <0> d           4.114   3.089  -0.021  0.00  0.00    -0.174 NA
ATOM     11  N1  <0> d           5.514   3.129  -0.031  0.00  0.00    -0.289 N 
ATOM     12  C7  <0> d           5.971   1.858  -0.049  0.00  0.00    -0.002 A 
ATOM     13  H1  <0> d           6.060   3.930  -0.029  0.00  0.00     0.188 HD
ATOM     14  C6  <0> d           4.905   1.030  -0.045  0.00  0.00    -0.036 A 
ATOM     15  H6  <0> d           7.008   1.557  -0.063  0.00  0.00     0.113 H 
ATOM     16  H5  <0> d           4.938  -0.049  -0.056  0.00  0.00     0.089 H 
ENDBRANCH   3   9
TORSDOF 1
