REMARK  2 active torsions:
REMARK  status: ('A' for Active; 'I' for Inactive)
REMARK    1  A    between atoms: C3_3  and  C6_9 
REMARK    2  A    between atoms: C4_5  and  O1_8 
ROOT
ATOM      1  C1  <0> d          -0.536   1.625   1.226  0.00  0.00    -0.062 C 
ATOM      2  C2  <0> d           0.163   1.184  -0.084  0.00  0.00    -0.050 C 
ATOM      3  C3  <0> d          -0.809   1.622  -1.200  0.00  0.00     0.055 C 
ATOM      4  H1  <0> d          -0.512   2.594  -1.593  0.00  0.00     0.060 H 
ATOM      5  C4  <0> d          -2.204   1.716  -0.556  0.00  0.00     0.048 C 
ATOM      6  H2  <0> d          -2.584   2.734  -0.637  0.00  0.00     0.084 H 
ATOM      7  C5  <0> d          -2.031   1.332   0.928  0.00  0.00    -0.040 C 
ATOM      8  H3  <0> d          -0.184   1.031   2.070  0.00  0.00     0.033 H 
ATOM      9  H4  <0> d          -0.379   2.688   1.409  0.00  0.00     0.033 H 
ATOM     10  H5  <0> d           0.298   0.103  -0.099  0.00  0.00     0.034 H 
ATOM     11  H6  <0> d           1.122   1.689  -0.194  0.00  0.00     0.034 H 
ATOM     12  H7  <0> d          -2.673   1.948   1.558  0.00  0.00     0.036 H 
ATOM     13  H8  <0> d          -2.252   0.275   1.077  0.00  0.00     0.036 H 
ENDROOT
BRANCH   3  14
ATOM     14  C6  <0> d          -0.818   0.599  -2.307  0.00  0.00     0.179 C 
ATOM     15  O2  <0> d          -0.673  -0.572  -2.048  0.00  0.00    -0.648 OA
ATOM     16  O3  <0> d          -0.987   0.990  -3.580  0.00  0.00    -0.648 OA
ENDBRANCH   3  14
BRANCH   5  17
ATOM     17  O1  <0> d          -3.101   0.807  -1.197  0.00  0.00    -0.395 OA
ATOM     18  H9  <0> d          -3.998   0.819  -0.836  0.00  0.00     0.210 HD
ENDBRANCH   5  17
TORSDOF 2
