REMARK  7 active torsions:
REMARK  status: ('A' for Active; 'I' for Inactive)
REMARK    1  A    between atoms: C1_1  and  C2_2 
REMARK    2  A    between atoms: C2_2  and  C3_3 
REMARK    3  A    between atoms: C2_2  and  C4_4 
REMARK    4  A    between atoms: C4_4  and  C5_5 
REMARK    5  A    between atoms: C5_5  and  C6_6 
REMARK    6  A    between atoms: C5_5  and  C7_7 
REMARK    7  A    between atoms: C5_5  and  O1_9 
ROOT
ATOM      1  C7  <0> d           0.039  -0.072  -0.255  0.00  0.00    -0.080 C 
ATOM      2  C8  <0> d           0.085  -1.241  -0.360  0.00  0.00    -0.151 C 
ATOM      3  H13 <0> d           0.126  -2.286  -0.455  0.00  0.00     0.166 H 
ENDROOT
BRANCH   1   4
ATOM      4  C5  <0> d          -0.019   1.393  -0.123  0.00  0.00     0.117 C 
BRANCH   4   5
ATOM      5  C4  <0> d          -0.838   1.977  -1.276  0.00  0.00    -0.023 C 
ATOM      6  H8  <0> d          -0.428   1.631  -2.225  0.00  0.00     0.039 H 
ATOM      7  H9  <0> d          -1.874   1.650  -1.188  0.00  0.00     0.039 H 
BRANCH   5   8
ATOM      8  C2  <0> d          -0.779   3.504  -1.221  0.00  0.00    -0.058 C 
ATOM      9  H4  <0> d           0.262   3.827  -1.197  0.00  0.00     0.039 H 
BRANCH   8  10
ATOM     10  C1  <0> d          -1.464   4.086  -2.459  0.00  0.00    -0.073 C 
ATOM     11  H1  <0> d          -2.505   3.764  -2.483  0.00  0.00     0.028 H 
ATOM     12  H2  <0> d          -1.422   5.175  -2.420  0.00  0.00     0.028 H 
ATOM     13  H3  <0> d          -0.954   3.735  -3.356  0.00  0.00     0.028 H 
ENDBRANCH   8  10
BRANCH   8  14
ATOM     14  C3  <0> d          -1.495   3.998   0.038  0.00  0.00    -0.073 C 
ATOM     15  H5  <0> d          -0.919   3.712   0.919  0.00  0.00     0.028 H 
ATOM     16  H6  <0> d          -1.588   5.083   0.001  0.00  0.00     0.028 H 
ATOM     17  H7  <0> d          -2.487   3.550   0.091  0.00  0.00     0.028 H 
ENDBRANCH   8  14
ENDBRANCH   5   8
ENDBRANCH   4   5
BRANCH   4  18
ATOM     18  C6  <0> d           1.399   1.965  -0.163  0.00  0.00    -0.037 C 
ATOM     19  H10 <0> d           1.869   1.704  -1.111  0.00  0.00     0.033 H 
ATOM     20  H11 <0> d           1.356   3.050  -0.066  0.00  0.00     0.033 H 
ATOM     21  H12 <0> d           1.982   1.549   0.658  0.00  0.00     0.033 H 
ENDBRANCH   4  18
BRANCH   4  22
ATOM     22  O1  <0> d          -0.636   1.735   1.120  0.00  0.00    -0.378 OA
ATOM     23  H14 <0> d          -1.539   1.403   1.215  0.00  0.00     0.211 HD
ENDBRANCH   4  22
ENDBRANCH   1   4
TORSDOF 7
