REMARK  3 active torsions:
REMARK  status: ('A' for Active; 'I' for Inactive)
REMARK    1  A    between atoms: C1_1  and  C2_2 
REMARK    2  A    between atoms: C7_8  and  C8_10 
REMARK    3  A    between atoms: C8_10  and  O1_11 
ROOT
ATOM      1  C2  <0> d          -0.731   1.599  -1.247  0.00  0.00    -0.049 C 
ATOM      2  H1  <0> d          -1.788   1.336  -1.197  0.00  0.00     0.040 H 
ATOM      3  C3  <0> d          -0.094   0.939  -2.472  0.00  0.00    -0.047 C 
ATOM      4  C4  <0> d           1.400   1.069  -2.411  0.00  0.00    -0.106 C 
ATOM      5  C5  <0> d           2.059   1.361  -1.336  0.00  0.00    -0.106 C 
ATOM      6  C6  <0> d           1.421   1.620  -0.003  0.00  0.00    -0.044 C 
ATOM      7  C7  <0> d          -0.013   1.086   0.008  0.00  0.00    -0.027 C 
ATOM      8  H2  <0> d           0.002  -0.004   0.002  0.00  0.00     0.044 H 
ATOM      9  H6  <0> d          -0.463   1.424  -3.376  0.00  0.00     0.039 H 
ATOM     10  H7  <0> d          -0.364  -0.117  -2.496  0.00  0.00     0.039 H 
ATOM     11  H8  <0> d           1.959   0.910  -3.321  0.00  0.00     0.076 H 
ATOM     12  H9  <0> d           3.135   1.421  -1.403  0.00  0.00     0.076 H 
ATOM     13  H10 <0> d           1.409   2.693   0.190  0.00  0.00     0.039 H 
ATOM     14  H11 <0> d           1.998   1.122   0.776  0.00  0.00     0.039 H 
ENDROOT
BRANCH   7  15
ATOM     15  C8  <0> d          -0.737   1.583   1.260  0.00  0.00     0.021 C 
ATOM     16  H12 <0> d          -0.673   2.670   1.309  0.00  0.00     0.074 H 
ATOM     17  H13 <0> d          -1.784   1.282   1.218  0.00  0.00     0.074 H 
BRANCH  15  18
ATOM     18  O1  <0> d          -0.126   1.018   2.421  0.00  0.00    -0.400 OA
ATOM     19  H14 <0> d          -0.535   1.290   3.254  0.00  0.00     0.209 HD
ENDBRANCH  15  18
ENDBRANCH   7  15
BRANCH   1  20
ATOM     20  C1  <0> d          -0.578   3.118  -1.342  0.00  0.00    -0.072 C 
ATOM     21  H3  <0> d           0.480   3.374  -1.401  0.00  0.00     0.028 H 
ATOM     22  H4  <0> d          -1.089   3.479  -2.234  0.00  0.00     0.028 H 
ATOM     23  H5  <0> d          -1.016   3.583  -0.459  0.00  0.00     0.028 H 
ENDBRANCH   1  20
TORSDOF 3
