REMARK  5 active torsions:
REMARK  status: ('A' for Active; 'I' for Inactive)
REMARK    1  A    between atoms: C1_1  and  C2_2 
REMARK    2  A    between atoms: C2_2  and  C3_3 
REMARK    3  A    between atoms: C3_3  and  C4_4 
REMARK    4  A    between atoms: C4_4  and  C5_6 
REMARK    5  A    between atoms: C4_4  and  C6_7 
REMARK       I    between atoms: C6_7  and  N1_9 
ROOT
ATOM      1  C4  <0> d          -1.330   1.944   0.019  0.00  0.00     0.020 C 
ATOM      2  H1  <0> d          -1.392   2.565   0.913  0.00  0.00     0.054 H 
ENDROOT
BRANCH   1   3
ATOM      3  C3  <0> d          -2.479   0.934   0.019  0.00  0.00    -0.054 C 
ATOM      4  H7  <0> d          -2.470   0.373  -0.916  0.00  0.00     0.034 H 
ATOM      5  H8  <0> d          -2.359   0.247   0.856  0.00  0.00     0.034 H 
BRANCH   3   6
ATOM      6  C2  <0> d          -3.810   1.677   0.155  0.00  0.00    -0.068 C 
ATOM      7  H5  <0> d          -3.819   2.237   1.089  0.00  0.00     0.032 H 
ATOM      8  H6  <0> d          -3.930   2.364  -0.683  0.00  0.00     0.032 H 
BRANCH   6   9
ATOM      9  C1  <0> d          -4.959   0.666   0.155  0.00  0.00    -0.076 C 
ATOM     10  H2  <0> d          -4.950   0.105  -0.780  0.00  0.00     0.027 H 
ATOM     11  H3  <0> d          -4.839  -0.021   0.992  0.00  0.00     0.027 H 
ATOM     12  H4  <0> d          -5.907   1.195   0.252  0.00  0.00     0.027 H 
ENDBRANCH   6   9
ENDBRANCH   3   6
ENDBRANCH   1   3
BRANCH   1  13
ATOM     13  C5  <0> d          -1.429   2.829  -1.225  0.00  0.00    -0.065 C 
ATOM     14  H9  <0> d          -1.366   2.208  -2.119  0.00  0.00     0.028 H 
ATOM     15  H10 <0> d          -2.380   3.362  -1.218  0.00  0.00     0.028 H 
ATOM     16  H11 <0> d          -0.610   3.549  -1.225  0.00  0.00     0.028 H 
ENDBRANCH   1  13
BRANCH   1  17
ATOM     17  C6  <0> d          -0.014   1.209   0.009  0.00  0.00     0.219 C 
ATOM     18  O1  <0> d           0.002  -0.004   0.002  0.00  0.00    -0.273 OA
ATOM     19  N1  <0> d           1.143   1.898   0.001  0.00  0.00    -0.370 N 
ATOM     20  H12 <0> d           1.990   1.425  -0.009  0.00  0.00     0.159 HD
ATOM     21  H13 <0> d           1.130   2.868   0.007  0.00  0.00     0.159 HD
ENDBRANCH   1  17
TORSDOF 5
