REMARK  2 active torsions:
REMARK  status: ('A' for Active; 'I' for Inactive)
REMARK    1  A    between atoms: C1_1  and  C2_2 
REMARK    2  A    between atoms: C2_2  and  C5_7 
ROOT
ATOM      1  C2  <0> d          -2.090   1.877  -0.641  0.00  0.00     0.252 C 
ATOM      2  O1  <0> d          -0.766   1.591  -1.112  0.00  0.00    -0.345 OA
ATOM      3  C3  <0> d          -0.013   1.086   0.008  0.00  0.00     0.043 C 
ATOM      4  C4  <0> d          -0.799   1.616   1.233  0.00  0.00     0.043 C 
ATOM      5  O2  <0> d          -2.168   1.538   0.753  0.00  0.00    -0.345 OA
ATOM      6  H4  <0> d           0.002  -0.004   0.002  0.00  0.00     0.077 H 
ATOM      7  H5  <0> d           1.002   1.484   0.001  0.00  0.00     0.077 H 
ATOM      8  H6  <0> d          -0.649   0.974   2.101  0.00  0.00     0.077 H 
ATOM      9  H7  <0> d          -0.522   2.646   1.459  0.00  0.00     0.077 H 
ENDROOT
BRANCH   1  10
ATOM     10  C1  <0> d          -2.391   3.366  -0.824  0.00  0.00    -0.015 C 
ATOM     11  H1  <0> d          -2.319   3.624  -1.881  0.00  0.00     0.035 H 
ATOM     12  H2  <0> d          -3.398   3.580  -0.465  0.00  0.00     0.035 H 
ATOM     13  H3  <0> d          -1.670   3.954  -0.256  0.00  0.00     0.035 H 
ENDBRANCH   1  10
BRANCH   1  14
ATOM     14  C5  <0> d          -3.091   1.059  -1.417  0.00  0.00     0.238 C 
ATOM     15  O3  <0> d          -2.710   0.252  -2.231  0.00  0.00    -0.644 OA
ATOM     16  O4  <0> d          -4.405   1.228  -1.204  0.00  0.00    -0.644 OA
ENDBRANCH   1  14
TORSDOF 2
