REMARK  3 active torsions:
REMARK  status: ('A' for Active; 'I' for Inactive)
REMARK    1  A    between atoms: C1_1  and  N1_2 
REMARK    2  A    between atoms: N1_2  and  C2_3 
REMARK    3  A    between atoms: N1_2  and  C3_4 
ROOT
ATOM      1  C3  <0> d           0.040   3.954   0.021  0.00  0.00     0.193 A 
ATOM      2  C4  <0> d          -1.229   3.206   0.030  0.00  0.00     0.291 A 
ATOM      3  O1  <0> d          -2.292   3.797   0.043  0.00  0.00    -0.264 OA
ATOM      4  N2  <0> d          -1.196   1.857   0.018  0.00  0.00    -0.271 N 
ATOM      5  H1  <0> d          -2.134   1.284   0.015  0.00  0.00     0.174 HD
ATOM      6  C5  <0> d          -0.014   1.212   0.009  0.00  0.00     0.343 A 
ATOM      7  O2  <0> d           0.002  -0.004   0.002  0.00  0.00    -0.245 OA
ATOM      8  N3  <0> d           1.147   1.889   0.001  0.00  0.00    -0.227 N 
ATOM      9  H2  <0> d           2.102   1.342  -0.010  0.00  0.00     0.194 HD
ATOM     10  N4  <0> d           1.166   3.288   0.008  0.00  0.00    -0.153 NA
ENDROOT
BRANCH   1  11
ATOM     11  N1  <0> d           0.041   5.348   0.028  0.00  0.00    -0.270 NA
BRANCH  11  12
ATOM     12  C1  <0> d           1.406   5.875  -0.103  0.00  0.00    -0.028 C 
ATOM     13  H3  <0> d           2.037   5.461   0.698  0.00  0.00     0.049 H 
ATOM     14  H4  <0> d           1.385   6.972  -0.024  0.00  0.00     0.049 H 
ATOM     15  H5  <0> d           1.819   5.585  -1.081  0.00  0.00     0.049 H 
ENDBRANCH  11  12
BRANCH  11  16
ATOM     16  C2  <0> d          -0.831   5.880  -1.028  0.00  0.00    -0.028 C 
ATOM     17  H6  <0> d          -1.845   5.471  -0.907  0.00  0.00     0.049 H 
ATOM     18  H7  <0> d          -0.434   5.591  -2.012  0.00  0.00     0.049 H 
ATOM     19  H8  <0> d          -0.868   6.977  -0.956  0.00  0.00     0.049 H 
ENDBRANCH  11  16
ENDBRANCH   1  11
TORSDOF 3
