REMARK  3 active torsions:
REMARK  status: ('A' for Active; 'I' for Inactive)
REMARK    1  A    between atoms: C1_1  and  C2_2 
REMARK    2  A    between atoms: C4_5  and  C7_9 
REMARK    3  A    between atoms: C5_6  and  C6_7 
ROOT
ATOM      1  C2  <0> d           0.002  -0.004   0.002  0.00  0.00    -0.020 A 
ATOM      2  C3  <0> d           1.297  -0.355  -0.012  0.00  0.00     0.026 A 
ATOM      3  O1  <0> d           2.054   0.753  -0.013  0.00  0.00    -0.326 OA
ATOM      4  C4  <0> d           1.292   1.851  -0.000  0.00  0.00     0.066 A 
ATOM      5  C5  <0> d          -0.018   1.466   0.010  0.00  0.00     0.077 A 
ATOM      6  H4  <0> d           1.671  -1.368  -0.022  0.00  0.00     0.124 H 
ENDROOT
BRANCH   1   7
ATOM      7  C1  <0> d          -1.189  -0.928   0.009  0.00  0.00    -0.048 C 
ATOM      8  H1  <0> d          -1.486  -1.145  -1.017  0.00  0.00     0.033 H 
ATOM      9  H2  <0> d          -0.925  -1.856   0.515  0.00  0.00     0.033 H 
ATOM     10  H3  <0> d          -2.016  -0.450   0.533  0.00  0.00     0.033 H 
ENDBRANCH   1   7
BRANCH   5  11
ATOM     11  C6  <0> d          -1.202   2.341   0.021  0.00  0.00     0.212 C 
ATOM     12  O2  <0> d          -1.686   2.696   1.078  0.00  0.00    -0.644 OA
ATOM     13  O3  <0> d          -1.751   2.747  -1.141  0.00  0.00    -0.644 OA
ENDBRANCH   5  11
BRANCH   4  14
ATOM     14  C7  <0> d           1.793   3.272   0.003  0.00  0.00    -0.030 C 
ATOM     15  H5  <0> d           1.924   3.610   1.031  0.00  0.00     0.036 H 
ATOM     16  H6  <0> d           2.748   3.322  -0.520  0.00  0.00     0.036 H 
ATOM     17  H7  <0> d           1.070   3.914  -0.501  0.00  0.00     0.036 H 
ENDBRANCH   4  14
TORSDOF 3
