REMARK  2 active torsions:
REMARK  status: ('A' for Active; 'I' for Inactive)
REMARK    1  A    between atoms: C1_1  and  C2_2 
REMARK    2  A    between atoms: C7_7  and  C8_9 
ROOT
ATOM      1  C2  <0> d           2.427   1.010   0.004  0.00  0.00    -0.069 C 
ATOM      2  C3  <0> d           3.097   0.706  -1.064  0.00  0.00    -0.097 C 
ATOM      3  C4  <0> d           2.788   1.291  -2.409  0.00  0.00    -0.035 C 
ATOM      4  C5  <0> d           1.990   2.553  -2.281  0.00  0.00    -0.102 C 
ATOM      5  C6  <0> d           1.320   2.857  -1.212  0.00  0.00    -0.089 C 
ATOM      6  C7  <0> d           1.280   1.975   0.000  0.00  0.00     0.068 C 
ATOM      7  H1  <0> d           1.332   2.596   0.895  0.00  0.00     0.070 H 
ATOM      8  H5  <0> d           3.911   0.001  -0.982  0.00  0.00     0.077 H 
ATOM      9  H6  <0> d           2.220   0.566  -2.993  0.00  0.00     0.044 H 
ATOM     10  H7  <0> d           3.723   1.511  -2.925  0.00  0.00     0.044 H 
ATOM     11  H8  <0> d           1.970   3.239  -3.115  0.00  0.00     0.076 H 
ATOM     12  H9  <0> d           0.767   3.784  -1.194  0.00  0.00     0.078 H 
ENDROOT
BRANCH   1  13
ATOM     13  C1  <0> d           2.821   0.363   1.308  0.00  0.00    -0.054 C 
ATOM     14  H2  <0> d           2.265  -0.566   1.434  0.00  0.00     0.033 H 
ATOM     15  H3  <0> d           3.890   0.150   1.299  0.00  0.00     0.033 H 
ATOM     16  H4  <0> d           2.592   1.039   2.132  0.00  0.00     0.033 H 
ENDBRANCH   1  13
BRANCH   6  17
ATOM     17  C8  <0> d          -0.014   1.204   0.009  0.00  0.00     0.185 C 
ATOM     18  O1  <0> d           0.002  -0.004   0.002  0.00  0.00    -0.647 OA
ATOM     19  O2  <0> d          -1.186   1.859   0.018  0.00  0.00    -0.647 OA
ENDBRANCH   6  17
TORSDOF 2
