REMARK  3 active torsions:
REMARK  status: ('A' for Active; 'I' for Inactive)
REMARK    1  A    between atoms: C1_1  and  C2_2 
REMARK    2  A    between atoms: C2_2  and  C3_3 
REMARK    3  A    between atoms: C3_3  and  C4_4 
ROOT
ATOM      1  C4  <0> d          -1.049   3.053   1.351  0.00  0.00     0.004 C 
ATOM      2  H1  <0> d          -0.203   3.574   1.464  0.00  0.00     0.051 H 
ATOM      3  C5  <0> d          -1.760   3.493   0.067  0.00  0.00    -0.055 C 
ATOM      4  C6  <0> d          -0.902   3.118  -1.143  0.00  0.00    -0.064 C 
ATOM      5  C7  <0> d          -0.761   1.597  -1.227  0.00  0.00    -0.059 C 
ATOM      6  C8  <0> d          -0.013   1.086   0.008  0.00  0.00    -0.009 C 
ATOM      7  C9  <0> d          -0.728   1.577   1.247  0.00  0.00     0.131 C 
ATOM      8  O1  <0> d          -1.040   0.812   2.127  0.00  0.00    -0.298 OA
ATOM      9  H9  <0> d          -1.909   4.572   0.086  0.00  0.00     0.034 H 
ATOM     10  H10 <0> d          -2.726   2.993  -0.003  0.00  0.00     0.034 H 
ATOM     11  H11 <0> d           0.085   3.568  -1.040  0.00  0.00     0.033 H 
ATOM     12  H12 <0> d          -1.376   3.489  -2.052  0.00  0.00     0.033 H 
ATOM     13  H13 <0> d          -0.203   1.333  -2.126  0.00  0.00     0.033 H 
ATOM     14  H14 <0> d          -1.751   1.142  -1.267  0.00  0.00     0.033 H 
ATOM     15  H15 <0> d           0.004   0.086  -0.002  0.00  0.00     0.044 H 
ATOM     16  H16 <0> d           1.009   1.466   0.000  0.00  0.00     0.044 H 
ENDROOT
BRANCH   1  17
ATOM     17  C3  <0> d          -1.962   3.297   2.554  0.00  0.00    -0.056 C 
ATOM     18  H7  <0> d          -2.274   4.341   2.567  0.00  0.00     0.034 H 
ATOM     19  H8  <0> d          -2.841   2.657   2.479  0.00  0.00     0.034 H 
BRANCH  17  20
ATOM     20  C2  <0> d          -1.205   2.974   3.844  0.00  0.00    -0.068 C 
ATOM     21  H5  <0> d          -0.893   1.929   3.830  0.00  0.00     0.032 H 
ATOM     22  H6  <0> d          -0.326   3.614   3.919  0.00  0.00     0.032 H 
BRANCH  20  23
ATOM     23  C1  <0> d          -2.118   3.218   5.046  0.00  0.00    -0.076 C 
ATOM     24  H2  <0> d          -1.579   2.988   5.965  0.00  0.00     0.027 H 
ATOM     25  H3  <0> d          -2.430   4.263   5.060  0.00  0.00     0.027 H 
ATOM     26  H4  <0> d          -2.997   2.578   4.971  0.00  0.00     0.027 H 
ENDBRANCH  20  23
ENDBRANCH  17  20
ENDBRANCH   1  17
TORSDOF 3
