REMARK  5 active torsions:
REMARK  status: ('A' for Active; 'I' for Inactive)
REMARK    1  A    between atoms: C1_1  and  C2_2 
REMARK    2  A    between atoms: C2_2  and  C3_4 
REMARK    3  A    between atoms: C2_2  and  C8_10 
REMARK    4  A    between atoms: C8_10  and  C9_11 
REMARK    5  A    between atoms: C8_10  and  C10_12 
ROOT
ATOM      1  C2  <0> d           0.002  -0.004   0.002  0.00  0.00    -0.029 C 
ATOM      2  H1  <0> d          -1.020  -0.381   0.010  0.00  0.00     0.047 H 
ENDROOT
BRANCH   1   3
ATOM      3  C1  <0> d          -0.019   1.526   0.010  0.00  0.00    -0.069 C 
ATOM      4  H2  <0> d           1.004   1.903   0.003  0.00  0.00     0.028 H 
ATOM      5  H3  <0> d          -0.546   1.887  -0.873  0.00  0.00     0.028 H 
ATOM      6  H4  <0> d          -0.529   1.877   0.907  0.00  0.00     0.028 H 
ENDBRANCH   1   3
BRANCH   1   7
ATOM      7  C3  <0> d           0.707  -0.490  -1.238  0.00  0.00    -0.051 A 
ATOM      8  C7  <0> d           0.052  -1.292  -2.159  0.00  0.00    -0.060 A 
ATOM      9  C6  <0> d           0.729  -1.714  -3.288  0.00  0.00     0.002 A 
ATOM     10  H8  <0> d          -0.977  -1.580  -1.999  0.00  0.00     0.086 H 
ATOM     11  N1  <0> d           1.987  -1.371  -3.487  0.00  0.00    -0.273 NA
ATOM     12  H7  <0> d           0.224  -2.334  -4.013  0.00  0.00     0.114 H 
ATOM     13  C5  <0> d           2.643  -0.615  -2.629  0.00  0.00     0.002 A 
ATOM     14  C4  <0> d           2.030  -0.151  -1.482  0.00  0.00    -0.060 A 
ATOM     15  H6  <0> d           3.673  -0.355  -2.826  0.00  0.00     0.114 H 
ATOM     16  H5  <0> d           2.572   0.469  -0.783  0.00  0.00     0.086 H 
ENDBRANCH   1   7
BRANCH   1  17
ATOM     17  C8  <0> d           0.742  -0.511   1.242  0.00  0.00    -0.054 C 
ATOM     18  H9  <0> d           1.765  -0.134   1.234  0.00  0.00     0.040 H 
BRANCH  17  19
ATOM     19  C9  <0> d           0.026  -0.018   2.500  0.00  0.00    -0.073 C 
ATOM     20  H10 <0> d           0.553  -0.379   3.383  0.00  0.00     0.028 H 
ATOM     21  H11 <0> d           0.011   1.072   2.506  0.00  0.00     0.028 H 
ATOM     22  H12 <0> d          -0.997  -0.395   2.508  0.00  0.00     0.028 H 
ENDBRANCH  17  19
BRANCH  17  23
ATOM     23  C10 <0> d           0.763  -2.041   1.233  0.00  0.00    -0.073 C 
ATOM     24  H13 <0> d           1.273  -2.392   0.336  0.00  0.00     0.028 H 
ATOM     25  H14 <0> d           1.290  -2.402   2.116  0.00  0.00     0.028 H 
ATOM     26  H15 <0> d          -0.260  -2.418   1.241  0.00  0.00     0.028 H 
ENDBRANCH  17  23
ENDBRANCH   1  17
TORSDOF 5
