REMARK  2 active torsions:
REMARK  status: ('A' for Active; 'I' for Inactive)
REMARK    1  A    between atoms: N3_5  and  C3_6 
REMARK    2  A    between atoms: C3_6  and  C4_7 
REMARK       I    between atoms: C4_7  and  N4_9 
ROOT
ATOM      1  C1  <0> d          -0.016   1.343   0.009  0.00  0.00     0.086 A 
ATOM      2  N1  <0> d           1.217   1.770  -0.000  0.00  0.00    -0.212 NA
ATOM      3  C2  <0> d           2.060   0.727  -0.014  0.00  0.00     0.251 A 
ATOM      4  N2  <0> d           1.354  -0.385  -0.013  0.00  0.00    -0.139 NA
ATOM      5  N3  <0> d           0.002  -0.004   0.002  0.00  0.00    -0.252 N 
ATOM      6  C5  <0> d           3.490   0.808  -0.028  0.00  0.00     0.142 C 
ATOM      7  N5  <0> d           4.624   0.872  -0.039  0.00  0.00    -0.188 NA
ATOM      8  H1  <0> d          -0.900   1.963   0.025  0.00  0.00     0.146 H 
ENDROOT
BRANCH   5   9
ATOM      9  C3  <0> d          -1.160  -0.896   0.009  0.00  0.00     0.091 C 
ATOM     10  H2  <0> d          -1.174  -1.467   0.938  0.00  0.00     0.082 H 
ATOM     11  H3  <0> d          -2.072  -0.305  -0.068  0.00  0.00     0.082 H 
BRANCH   9  12
ATOM     12  C4  <0> d          -1.074  -1.842  -1.161  0.00  0.00     0.235 C 
ATOM     13  O1  <0> d          -0.135  -1.778  -1.925  0.00  0.00    -0.272 OA
ATOM     14  N4  <0> d          -2.041  -2.760  -1.357  0.00  0.00    -0.369 N 
ATOM     15  H4  <0> d          -2.793  -2.812  -0.746  0.00  0.00     0.159 HD
ATOM     16  H5  <0> d          -1.986  -3.369  -2.110  0.00  0.00     0.159 HD
ENDBRANCH   9  12
ENDBRANCH   5   9
TORSDOF 2
