REMARK  5 active torsions:
REMARK  status: ('A' for Active; 'I' for Inactive)
REMARK    1  A    between atoms: C1_1  and  C2_2 
REMARK    2  A    between atoms: C2_2  and  O3_10 
REMARK    3  A    between atoms: C5_5  and  O2_8 
REMARK    4  A    between atoms: O2_8  and  C6_9 
REMARK    5  A    between atoms: O3_10  and  C7_11 
ROOT
ATOM      1  C2  <0> d           0.002  -0.004   0.002  0.00  0.00     0.163 C 
ATOM      2  C3  <0> d          -1.440  -0.548   0.031  0.00  0.00    -0.009 C 
ATOM      3  C4  <0> d          -1.490  -1.421   1.308  0.00  0.00    -0.014 C 
ATOM      4  C5  <0> d           0.010  -1.721   1.556  0.00  0.00     0.134 C 
ATOM      5  H1  <0> d           0.347  -2.543   0.925  0.00  0.00     0.129 H 
ATOM      6  O1  <0> d           0.666  -0.490   1.181  0.00  0.00    -0.326 OA
ATOM      7  H5  <0> d          -2.155   0.272   0.101  0.00  0.00     0.041 H 
ATOM      8  H6  <0> d          -1.637  -1.154  -0.854  0.00  0.00     0.041 H 
ATOM      9  H7  <0> d          -1.919  -0.866   2.142  0.00  0.00     0.040 H 
ATOM     10  H8  <0> d          -2.046  -2.341   1.128  0.00  0.00     0.040 H 
ENDROOT
BRANCH   1  11
ATOM     11  C1  <0> d          -0.019   1.526   0.010  0.00  0.00    -0.025 C 
ATOM     12  H2  <0> d           1.004   1.903   0.003  0.00  0.00     0.035 H 
ATOM     13  H3  <0> d          -0.546   1.887  -0.873  0.00  0.00     0.035 H 
ATOM     14  H4  <0> d          -0.529   1.877   0.907  0.00  0.00     0.035 H 
ENDBRANCH   1  11
BRANCH   1  15
ATOM     15  O3  <0> d           0.678  -0.474  -1.166  0.00  0.00    -0.360 OA
BRANCH  15  16
ATOM     16  C7  <0> d           2.062  -0.120  -1.218  0.00  0.00     0.007 C 
ATOM     17  H12 <0> d           2.160   0.965  -1.205  0.00  0.00     0.066 H 
ATOM     18  H13 <0> d           2.578  -0.542  -0.356  0.00  0.00     0.066 H 
ATOM     19  H14 <0> d           2.503  -0.514  -2.134  0.00  0.00     0.066 H 
ENDBRANCH  15  16
ENDBRANCH   1  15
BRANCH   4  20
ATOM     20  O2  <0> d           0.243  -2.018   2.935  0.00  0.00    -0.366 OA
BRANCH  20  21
ATOM     21  C6  <0> d           1.584  -2.416   3.225  0.00  0.00     0.007 C 
ATOM     22  H9  <0> d           1.828  -3.313   2.657  0.00  0.00     0.066 H 
ATOM     23  H10 <0> d           2.269  -1.614   2.949  0.00  0.00     0.066 H 
ATOM     24  H11 <0> d           1.679  -2.623   4.291  0.00  0.00     0.066 H 
ENDBRANCH  20  21
ENDBRANCH   4  20
TORSDOF 5
