REMARK  0 active torsions:
REMARK  status: ('A' for Active; 'I' for Inactive)
ROOT
ATOM      1  C1  <0> d          -0.773   3.123  -1.223  0.00  0.00    -0.065 C 
ATOM      2  C2  <0> d          -0.753   1.593  -1.232  0.00  0.00    -0.064 C 
ATOM      3  C3  <0> d          -0.013   1.086   0.008  0.00  0.00    -0.050 C 
ATOM      4  C4  <0> d          -0.729   1.579   1.267  0.00  0.00     0.030 C 
ATOM      5  C5  <0> d          -0.750   3.109   1.275  0.00  0.00    -0.050 C 
ATOM      6  C6  <0> d          -1.490   3.616   0.036  0.00  0.00    -0.064 C 
ATOM      7  C7  <0> d          -0.017   1.092   2.459  0.00  0.00     0.064 C 
ATOM      8  N1  <0> d           0.532   0.715   3.380  0.00  0.00    -0.197 NA
ATOM      9  H1  <0> d          -1.305   3.487  -2.114  0.00  0.00     0.033 H 
ATOM     10  H2  <0> d           0.259   3.503  -1.231  0.00  0.00     0.033 H 
ATOM     11  H3  <0> d          -1.785   1.212  -1.224  0.00  0.00     0.033 H 
ATOM     12  H4  <0> d          -0.238   1.238  -2.136  0.00  0.00     0.033 H 
ATOM     13  H5  <0> d           0.002  -0.014   0.002  0.00  0.00     0.035 H 
ATOM     14  H6  <0> d           1.019   1.466   0.000  0.00  0.00     0.035 H 
ATOM     15  H7  <0> d          -1.753   1.180   1.309  0.00  0.00     0.062 H 
ATOM     16  H8  <0> d          -1.264   3.464   2.180  0.00  0.00     0.035 H 
ATOM     17  H9  <0> d           0.282   3.490   1.267  0.00  0.00     0.035 H 
ATOM     18  H10 <0> d          -1.505   4.716   0.042  0.00  0.00     0.033 H 
ATOM     19  H11 <0> d          -2.522   3.235   0.043  0.00  0.00     0.033 H 
ENDROOT
TORSDOF 0
