REMARK  3 active torsions:
REMARK  status: ('A' for Active; 'I' for Inactive)
REMARK    1  A    between atoms: C1_1  and  C2_2 
REMARK    2  A    between atoms: C5_5  and  C8_9 
REMARK    3  A    between atoms: C8_9  and  C9_11 
ROOT
ATOM      1  C2  <0> d           1.178   1.782   0.000  0.00  0.00    -0.023 A 
ATOM      2  C3  <0> d          -0.013   1.076   0.008  0.00  0.00    -0.073 A 
ATOM      3  C4  <0> d          -1.217   1.747   0.017  0.00  0.00    -0.069 A 
ATOM      4  C5  <0> d          -1.235   3.145   0.031  0.00  0.00     0.012 A 
ATOM      5  C6  <0> d          -0.030   3.854   0.023  0.00  0.00    -0.032 A 
ATOM      6  C7  <0> d           1.169   3.168   0.008  0.00  0.00     0.123 A 
ATOM      7  F1  <0> d           2.336   3.849   0.001  0.00  0.00    -0.206 F 
ATOM      8  H4  <0> d           0.002  -0.004   0.002  0.00  0.00     0.084 H 
ATOM      9  H5  <0> d          -2.144   1.194   0.019  0.00  0.00     0.085 H 
ATOM     10  H6  <0> d          -0.036   4.934   0.029  0.00  0.00     0.089 H 
ENDROOT
BRANCH   4  11
ATOM     11  C8  <0> d          -2.517   3.868   0.047  0.00  0.00     0.155 C 
ATOM     12  O1  <0> d          -2.530   5.080   0.053  0.00  0.00    -0.293 OA
BRANCH  11  13
ATOM     13  C9  <0> d          -3.815   3.101   0.055  0.00  0.00    -0.017 C 
ATOM     14  H7  <0> d          -4.093   2.926   1.000  0.00  0.00     0.038 H 
ATOM     15  H8  <0> d          -4.585   3.685  -0.448  0.00  0.00     0.038 H 
ATOM     16  H9  <0> d          -3.679   2.152  -0.465  0.00  0.00     0.038 H 
ENDBRANCH  11  13
ENDBRANCH   4  11
BRANCH   1  17
ATOM     17  C1  <0> d           2.489   1.040  -0.017  0.00  0.00    -0.048 C 
ATOM     18  H1  <0> d           2.796   0.867  -1.048  0.00  0.00     0.033 H 
ATOM     19  H2  <0> d           3.249   1.633   0.493  0.00  0.00     0.033 H 
ATOM     20  H3  <0> d           2.373   0.084   0.493  0.00  0.00     0.033 H 
ENDBRANCH   1  17
TORSDOF 3
