REMARK  3 active torsions:
REMARK  status: ('A' for Active; 'I' for Inactive)
REMARK    1  A    between atoms: C5_5  and  C7_7 
REMARK    2  A    between atoms: C8_8  and  C9_9 
REMARK    3  A    between atoms: C9_9  and  O1_10 
ROOT
ATOM      1  C1  <0> d          -0.058   4.207   0.025  0.00  0.00    -0.082 A 
ATOM      2  C2  <0> d          -1.245   3.493   0.033  0.00  0.00    -0.081 A 
ATOM      3  C3  <0> d          -1.232   2.114   0.019  0.00  0.00    -0.061 A 
ATOM      4  C4  <0> d          -0.017   1.428   0.010  0.00  0.00     0.063 A 
ATOM      5  C5  <0> d           1.190   2.154   0.002  0.00  0.00     0.038 A 
ATOM      6  C6  <0> d           1.155   3.547   0.010  0.00  0.00    -0.063 A 
ATOM      7  C10 <0> d           0.002  -0.004   0.002  0.00  0.00     0.101 C 
ATOM      8  N1  <0> d           0.018  -1.140  -0.004  0.00  0.00    -0.191 NA
ATOM      9  H1  <0> d          -0.081   5.286   0.031  0.00  0.00     0.083 H 
ATOM     10  H2  <0> d          -2.188   4.021   0.044  0.00  0.00     0.083 H 
ATOM     11  H3  <0> d          -2.163   1.565   0.021  0.00  0.00     0.085 H 
ATOM     12  H4  <0> d           2.076   4.111   0.004  0.00  0.00     0.085 H 
ENDROOT
BRANCH   5  13
ATOM     13  C7  <0> d           2.445   1.464  -0.014  0.00  0.00    -0.063 C 
ATOM     14  C8  <0> d           3.474   0.899  -0.027  0.00  0.00    -0.075 C 
BRANCH  14  15
ATOM     15  C9  <0> d           4.764   0.191  -0.044  0.00  0.00     0.071 C 
ATOM     16  H5  <0> d           4.844  -0.439   0.842  0.00  0.00     0.093 H 
ATOM     17  H6  <0> d           4.827  -0.429  -0.938  0.00  0.00     0.093 H 
BRANCH  15  18
ATOM     18  O1  <0> d           5.830   1.143  -0.049  0.00  0.00    -0.389 OA
ATOM     19  H7  <0> d           6.712   0.746  -0.060  0.00  0.00     0.210 HD
ENDBRANCH  15  18
ENDBRANCH  14  15
ENDBRANCH   5  13
TORSDOF 3
