REMARK  1 active torsions:
REMARK  status: ('A' for Active; 'I' for Inactive)
REMARK    1  A    between atoms: C1_1  and  C2_2 
ROOT
ATOM      1  C2  <0> d          -3.311   2.376   0.045  0.00  0.00     0.055 A 
ATOM      2  C3  <0> d          -2.528   3.522   0.044  0.00  0.00    -0.012 A 
ATOM      3  C4  <0> d          -1.199   3.124   0.029  0.00  0.00     0.151 A 
ATOM      4  N1  <0> d          -0.050   3.817   0.022  0.00  0.00    -0.240 NA
ATOM      5  C5  <0> d           1.109   3.208   0.008  0.00  0.00     0.026 A 
ATOM      6  C6  <0> d           1.167   1.794   0.001  0.00  0.00     0.079 A 
ATOM      7  C7  <0> d          -0.013   1.076   0.008  0.00  0.00     0.027 A 
ATOM      8  N2  <0> d          -1.194   1.752   0.017  0.00  0.00    -0.225 N 
ATOM      9  N3  <0> d          -2.526   1.323   0.033  0.00  0.00    -0.171 NA
ATOM     10  C8  <0> d           2.429   1.118  -0.014  0.00  0.00     0.102 C 
ATOM     11  N4  <0> d           3.431   0.583  -0.026  0.00  0.00    -0.191 NA
ATOM     12  H4  <0> d          -2.889   4.540   0.052  0.00  0.00     0.092 H 
ATOM     13  H5  <0> d           2.021   3.786   0.002  0.00  0.00     0.117 H 
ATOM     14  H6  <0> d           0.002  -0.004   0.002  0.00  0.00     0.117 H 
ENDROOT
BRANCH   1  15
ATOM     15  C1  <0> d          -4.817   2.345   0.060  0.00  0.00    -0.034 C 
ATOM     16  H1  <0> d          -5.191   2.343  -0.965  0.00  0.00     0.035 H 
ATOM     17  H2  <0> d          -5.158   1.445   0.572  0.00  0.00     0.035 H 
ATOM     18  H3  <0> d          -5.194   3.225   0.582  0.00  0.00     0.035 H 
ENDBRANCH   1  15
TORSDOF 1
