REMARK  2 active torsions:
REMARK  status: ('A' for Active; 'I' for Inactive)
REMARK    1  A    between atoms: C3_4  and  C5_7 
REMARK    2  A    between atoms: C4_5  and  N1_6 
REMARK       I    between atoms: C5_7  and  N2_9 
ROOT
ATOM      1  C1  <0> d          -2.432   0.974   0.019  0.00  0.00    -0.050 A 
ATOM      2  C2  <0> d          -3.586   1.685   0.029  0.00  0.00    -0.042 A 
ATOM      3  S1  <0> d          -3.045   3.331   0.035  0.00  0.00    -0.094 SA
ATOM      4  C3  <0> d          -1.285   3.038   0.030  0.00  0.00     0.098 A 
ATOM      5  C4  <0> d          -1.226   1.645   0.017  0.00  0.00     0.049 A 
ATOM      6  H1  <0> d          -2.455  -0.106   0.013  0.00  0.00     0.087 H 
ATOM      7  H2  <0> d          -4.600   1.314   0.032  0.00  0.00     0.095 H 
ENDROOT
BRANCH   4   8
ATOM      8  C5  <0> d          -0.225   3.976   0.036  0.00  0.00     0.258 C 
ATOM      9  O1  <0> d           0.930   3.589   0.029  0.00  0.00    -0.267 OA
ATOM     10  N2  <0> d          -0.493   5.297   0.049  0.00  0.00    -0.365 N 
ATOM     11  H5  <0> d          -1.413   5.605   0.054  0.00  0.00     0.159 HD
ATOM     12  H6  <0> d           0.233   5.939   0.053  0.00  0.00     0.159 HD
ENDBRANCH   4   8
BRANCH   5  13
ATOM     13  N1  <0> d          -0.011   0.966   0.007  0.00  0.00    -0.398 N 
ATOM     14  H3  <0> d           0.002  -0.004   0.002  0.00  0.00     0.156 HD
ATOM     15  H4  <0> d           0.822   1.462   0.002  0.00  0.00     0.156 HD
ENDBRANCH   5  13
TORSDOF 2
