REMARK  0 active torsions:
REMARK  status: ('A' for Active; 'I' for Inactive)
ROOT
ATOM      1  C1  <0> d          -1.190   3.318   0.031  0.00  0.00     0.317 A 
ATOM      2  N1  <0> d          -0.052   3.996   0.024  0.00  0.00    -0.156 NA
ATOM      3  C2  <0> d           1.104   3.350   0.010  0.00  0.00     0.317 A 
ATOM      4  N2  <0> d           1.122   2.025   0.002  0.00  0.00    -0.156 NA
ATOM      5  C3  <0> d          -0.016   1.347   0.009  0.00  0.00     0.317 A 
ATOM      6  N3  <0> d          -1.173   1.994   0.018  0.00  0.00    -0.156 NA
ATOM      7  F1  <0> d           0.002  -0.004   0.002  0.00  0.00    -0.161 F 
ATOM      8  F2  <0> d           2.265   4.041   0.002  0.00  0.00    -0.161 F 
ATOM      9  F3  <0> d          -2.369   3.978   0.045  0.00  0.00    -0.161 F 
ENDROOT
TORSDOF 0
