REMARK  2 active torsions:
REMARK  status: ('A' for Active; 'I' for Inactive)
REMARK    1  A    between atoms: C3_3  and  C5_7 
REMARK    2  A    between atoms: C6_11  and  N4_13 
ROOT
ATOM      1  C1  <0> d          -2.101   4.356   0.640  0.00  0.00    -0.043 C 
ATOM      2  C2  <0> d          -1.166   3.238   1.177  0.00  0.00    -0.032 C 
ATOM      3  C3  <0> d          -1.249   2.206   0.025  0.00  0.00     0.099 C 
ATOM      4  H1  <0> d          -2.122   1.538   0.070  0.00  0.00     0.095 H 
ATOM      5  O1  <0> d          -1.322   2.990  -1.177  0.00  0.00    -0.378 OA
ATOM      6  C4  <0> d          -1.851   4.288  -0.882  0.00  0.00     0.021 C 
ATOM      7  H3  <0> d          -1.832   5.356   1.011  0.00  0.00     0.036 H 
ATOM      8  H4  <0> d          -3.164   4.162   0.846  0.00  0.00     0.036 H 
ATOM      9  H5  <0> d          -0.156   3.647   1.330  0.00  0.00     0.037 H 
ATOM     10  H6  <0> d          -1.558   2.861   2.134  0.00  0.00     0.037 H 
ATOM     11  H7  <0> d          -2.800   4.446  -1.417  0.00  0.00     0.074 H 
ATOM     12  H8  <0> d          -1.133   5.070  -1.171  0.00  0.00     0.074 H 
ENDROOT
BRANCH   3  13
ATOM     13  C5  <0> d          -0.016   1.339   0.009  0.00  0.00     0.194 A 
ATOM     14  N3  <0> d           1.221   1.765  -0.000  0.00  0.00    -0.044 NA
ATOM     15  C6  <0> d           2.058   0.723  -0.014  0.00  0.00     0.716 A 
ATOM     16  N2  <0> d           1.354  -0.384  -0.012  0.00  0.00    -0.106 N 
ATOM     17  N1  <0> d           0.002  -0.004   0.003  0.00  0.00    -0.141 NA
ATOM     18  H2  <0> d           1.626  -1.450  -0.020  0.00  0.00     0.208 HD
BRANCH  15  19
ATOM     19  N4  <0> d           3.452   0.800  -0.027  0.00  0.00    -0.231 N 
ATOM     20  H9  <0> d           4.053  -0.121  -0.038  0.00  0.00     0.174 HD
ATOM     21  H10 <0> d           3.949   1.781  -0.027  0.00  0.00     0.174 HD
ENDBRANCH  15  19
ENDBRANCH   3  13
TORSDOF 2
