REMARK  1 active torsions:
REMARK  status: ('A' for Active; 'I' for Inactive)
REMARK    1  A    between atoms: C1_1  and  C2_2 
ROOT
ATOM      1  C2  <0> d           0.712  -2.691  -0.018  0.00  0.00    -0.058 A 
ATOM      2  C3  <0> d          -0.626  -2.340  -0.004  0.00  0.00    -0.056 A 
ATOM      3  C4  <0> d          -0.998  -0.998   0.006  0.00  0.00     0.057 A 
ATOM      4  C5  <0> d           0.002  -0.004   0.002  0.00  0.00     0.013 A 
ATOM      5  C6  <0> d          -0.018   1.456   0.010  0.00  0.00    -0.054 A 
ATOM      6  C7  <0> d           1.263   1.867   0.000  0.00  0.00    -0.022 A 
ATOM      7  N1  <0> d           2.098   0.785  -0.014  0.00  0.00    -0.365 N 
ATOM      8  H1  <0> d           3.067   0.829  -0.023  0.00  0.00     0.165 HD
ATOM      9  C8  <0> d           1.358  -0.377  -0.013  0.00  0.00     0.044 A 
ATOM     10  C9  <0> d           1.698  -1.725  -0.023  0.00  0.00    -0.051 A 
ATOM     11  C10 <0> d          -2.382  -0.631   0.022  0.00  0.00     0.100 C 
ATOM     12  N2  <0> d          -3.480  -0.340   0.034  0.00  0.00    -0.191 NA
ATOM     13  H5  <0> d          -1.384  -3.109  -0.000  0.00  0.00     0.086 H 
ATOM     14  H6  <0> d          -0.894   2.087   0.018  0.00  0.00     0.087 H 
ATOM     15  H7  <0> d           1.584   2.898   0.003  0.00  0.00     0.111 H 
ATOM     16  H8  <0> d           2.737  -2.018  -0.034  0.00  0.00     0.087 H 
ENDROOT
BRANCH   1  17
ATOM     17  C1  <0> d           1.099  -4.147  -0.029  0.00  0.00    -0.051 C 
ATOM     18  H2  <0> d           1.202  -4.504   0.996  0.00  0.00     0.033 H 
ATOM     19  H3  <0> d           0.327  -4.724  -0.538  0.00  0.00     0.033 H 
ATOM     20  H4  <0> d           2.047  -4.268  -0.552  0.00  0.00     0.033 H 
ENDBRANCH   1  17
TORSDOF 1
