REMARK  1 active torsions:
REMARK  status: ('A' for Active; 'I' for Inactive)
REMARK    1  A    between atoms: C3_3  and  C4_4 
ROOT
ATOM      1  C1  <0> d          -0.019   1.526   0.010  0.00  0.00    -0.054 A 
ATOM      2  C2  <0> d           1.317   0.779  -0.006  0.00  0.00    -0.054 A 
ATOM      3  C3  <0> d           0.002  -0.004   0.002  0.00  0.00     0.008 A 
ATOM      4  H1  <0> d          -0.307   2.020   0.938  0.00  0.00     0.034 H 
ATOM      5  H2  <0> d          -0.325   2.030  -0.906  0.00  0.00     0.034 H 
ATOM      6  H3  <0> d           1.889   0.792  -0.934  0.00  0.00     0.034 H 
ATOM      7  H4  <0> d           1.906   0.782   0.910  0.00  0.00     0.034 H 
ATOM      8  H5  <0> d          -0.273  -0.516   0.924  0.00  0.00     0.052 H 
ENDROOT
BRANCH   3   9
ATOM      9  C4  <0> d          -0.402  -0.698  -1.273  0.00  0.00     0.161 A 
ATOM     10  N2  <0> d           0.185  -0.563  -2.427  0.00  0.00    -0.109 NA
ATOM     11  O1  <0> d          -0.518  -1.394  -3.339  0.00  0.00    -0.178 OA
ATOM     12  C5  <0> d          -1.503  -1.971  -2.637  0.00  0.00     0.268 A 
ATOM     13  N1  <0> d          -1.426  -1.549  -1.404  0.00  0.00    -0.194 NA
ATOM     14 Cl1  <0> d          -2.678  -3.087  -3.260  0.00  0.00    -0.033 Cl
ENDBRANCH   3   9
TORSDOF 1
