REMARK  4 active torsions:
REMARK  status: ('A' for Active; 'I' for Inactive)
REMARK    1  A    between atoms: C1_1  and  C2_2 
REMARK    2  A    between atoms: C2_2  and  C3_3 
REMARK    3  A    between atoms: C3_3  and  C4_5 
REMARK    4  A    between atoms: C7_8  and  N1_11 
ROOT
ATOM      1  C4  <0> d          -1.295   1.925   0.019  0.00  0.00     0.010 A 
ATOM      2  C5  <0> d          -1.316   3.326   0.032  0.00  0.00    -0.067 A 
ATOM      3  C6  <0> d          -2.510   3.989   0.036  0.00  0.00    -0.057 A 
ATOM      4  C7  <0> d          -3.706   3.274   0.038  0.00  0.00     0.025 A 
ATOM      5  C8  <0> d          -3.689   1.881   0.030  0.00  0.00    -0.057 A 
ATOM      6  C9  <0> d          -2.500   1.210   0.021  0.00  0.00    -0.067 A 
ATOM      7  H6  <0> d          -0.390   3.881   0.035  0.00  0.00     0.085 H 
ATOM      8  H7  <0> d          -2.528   5.069   0.042  0.00  0.00     0.086 H 
ATOM      9  H8  <0> d          -4.619   1.331   0.031  0.00  0.00     0.086 H 
ATOM     10  H9  <0> d          -2.488   0.130   0.014  0.00  0.00     0.085 H 
ENDROOT
BRANCH   1  11
ATOM     11  C3  <0> d          -0.014   1.209   0.009  0.00  0.00     0.159 C 
ATOM     12  O1  <0> d           0.002  -0.004   0.002  0.00  0.00    -0.292 OA
BRANCH  11  13
ATOM     13  C2  <0> d           1.280   1.980   0.001  0.00  0.00    -0.008 C 
ATOM     14  H4  <0> d           1.318   2.560  -0.813  0.00  0.00     0.044 H 
ATOM     15  H5  <0> d           1.338   2.603   0.893  0.00  0.00     0.044 H 
BRANCH  13  16
ATOM     16  C1  <0> d           2.457   1.002  -0.016  0.00  0.00    -0.070 C 
ATOM     17  H1  <0> d           2.399   0.379  -0.909  0.00  0.00     0.028 H 
ATOM     18  H2  <0> d           3.393   1.560  -0.022  0.00  0.00     0.028 H 
ATOM     19  H3  <0> d           2.416   0.370   0.871  0.00  0.00     0.028 H 
ENDBRANCH  13  16
ENDBRANCH  11  13
ENDBRANCH   1  11
BRANCH   4  20
ATOM     20  N1  <0> d          -4.918   3.952   0.047  0.00  0.00    -0.399 N 
ATOM     21  H10 <0> d          -5.752   3.456   0.048  0.00  0.00     0.156 HD
ATOM     22  H11 <0> d          -4.931   4.922   0.053  0.00  0.00     0.156 HD
ENDBRANCH   4  20
TORSDOF 4
