REMARK  5 active torsions:
REMARK  status: ('A' for Active; 'I' for Inactive)
REMARK    1  A    between atoms: C1_1  and  C2_2 
REMARK    2  A    between atoms: C5_5  and  N1_9 
REMARK    3  A    between atoms: C6_6  and  C8_8 
REMARK    4  A    between atoms: N1_9  and  C9_10 
REMARK    5  A    between atoms: C9_10  and  C10_11 
ROOT
ATOM      1  C10 <0> d           0.082  -6.341  -1.033  0.00  0.00    -0.098 C 
ATOM      2  C11 <0> d           0.098  -7.497  -0.825  0.00  0.00    -0.152 C 
ATOM      3  H13 <0> d           0.113  -8.530  -0.638  0.00  0.00     0.166 H 
ENDROOT
BRANCH   1   4
ATOM      4  C9  <0> d           0.061  -4.893  -1.294  0.00  0.00     0.047 C 
ATOM      5  H11 <0> d          -0.835  -4.638  -1.859  0.00  0.00     0.083 H 
ATOM      6  H12 <0> d           0.945  -4.615  -1.868  0.00  0.00     0.083 H 
BRANCH   4   7
ATOM      7  N1  <0> d           0.058  -4.167  -0.021  0.00  0.00    -0.379 N 
ATOM      8  H10 <0> d           0.069  -4.657   0.816  0.00  0.00     0.160 HD
BRANCH   7   9
ATOM      9  C5  <0> d           0.040  -2.771  -0.013  0.00  0.00     0.034 A 
ATOM     10  C4  <0> d           0.024  -2.068  -1.212  0.00  0.00    -0.057 A 
ATOM     11  C3  <0> d           0.006  -0.687  -1.200  0.00  0.00    -0.075 A 
ATOM     12  H5  <0> d           0.027  -2.601  -2.151  0.00  0.00     0.086 H 
ATOM     13  C2  <0> d           0.002  -0.004   0.002  0.00  0.00    -0.061 A 
ATOM     14  H4  <0> d          -0.006  -0.141  -2.132  0.00  0.00     0.084 H 
ATOM     15  C7  <0> d           0.023  -0.700   1.196  0.00  0.00    -0.069 A 
ATOM     16  C6  <0> d           0.036  -2.081   1.192  0.00  0.00    -0.035 A 
ATOM     17  H6  <0> d           0.024  -0.163   2.134  0.00  0.00     0.085 H 
BRANCH  13  18
ATOM     18  C1  <0> d          -0.018   1.503   0.010  0.00  0.00    -0.051 C 
ATOM     19  H1  <0> d           1.004   1.880   0.003  0.00  0.00     0.033 H 
ATOM     20  H2  <0> d          -0.545   1.864  -0.873  0.00  0.00     0.033 H 
ATOM     21  H3  <0> d          -0.529   1.854   0.907  0.00  0.00     0.033 H 
ENDBRANCH  13  18
BRANCH  16  22
ATOM     22  C8  <0> d           0.052  -2.839   2.495  0.00  0.00    -0.049 C 
ATOM     23  H7  <0> d           1.083  -3.009   2.804  0.00  0.00     0.033 H 
ATOM     24  H8  <0> d          -0.466  -2.260   3.259  0.00  0.00     0.033 H 
ATOM     25  H9  <0> d          -0.450  -3.798   2.364  0.00  0.00     0.033 H 
ENDBRANCH  16  22
ENDBRANCH   7   9
ENDBRANCH   4   7
ENDBRANCH   1   4
TORSDOF 5
