REMARK  7 active torsions:
REMARK  status: ('A' for Active; 'I' for Inactive)
REMARK    1  A    between atoms: C1_1  and  C2_2 
REMARK    2  A    between atoms: C2_2  and  O1_3 
REMARK    3  A    between atoms: O1_3  and  C3_4 
REMARK    4  A    between atoms: C3_4  and  C4_6 
REMARK    5  A    between atoms: C4_6  and  C5_7 
REMARK    6  A    between atoms: C5_7  and  C6_9 
REMARK    7  A    between atoms: C5_7  and  O3_12 
ROOT
ATOM      1  C6  <0> d          -0.013   1.086   0.008  0.00  0.00     0.039 C 
ATOM      2  C7  <0> d          -0.725   1.573  -1.185  0.00  0.00     0.061 C 
ATOM      3  N1  <0> d          -1.274   1.950  -2.105  0.00  0.00    -0.197 NA
ATOM      4  H9  <0> d           0.002  -0.004   0.002  0.00  0.00     0.058 H 
ATOM      5  H10 <0> d           1.010   1.463   0.000  0.00  0.00     0.058 H 
ENDROOT
BRANCH   1   6
ATOM      6  C5  <0> d          -0.729   1.579   1.267  0.00  0.00     0.055 C 
ATOM      7  H1  <0> d          -0.822   2.665   1.230  0.00  0.00     0.085 H 
BRANCH   6   8
ATOM      8  C4  <0> d           0.079   1.179   2.503  0.00  0.00     0.040 C 
ATOM      9  H7  <0> d           0.097   0.092   2.589  0.00  0.00     0.051 H 
ATOM     10  H8  <0> d           1.098   1.553   2.408  0.00  0.00     0.051 H 
BRANCH   8  11
ATOM     11  C3  <0> d          -0.560   1.769   3.733  0.00  0.00     0.261 C 
ATOM     12  O2  <0> d          -1.559   2.441   3.632  0.00  0.00    -0.265 OA
BRANCH  11  13
ATOM     13  O1  <0> d          -0.020   1.548   4.942  0.00  0.00    -0.322 OA
BRANCH  13  14
ATOM     14  C2  <0> d          -0.689   2.148   6.083  0.00  0.00     0.025 C 
ATOM     15  H5  <0> d          -0.709   3.231   5.965  0.00  0.00     0.074 H 
ATOM     16  H6  <0> d          -1.710   1.770   6.145  0.00  0.00     0.074 H 
BRANCH  14  17
ATOM     17  C1  <0> d           0.066   1.788   7.364  0.00  0.00    -0.056 C 
ATOM     18  H2  <0> d          -0.436   2.238   8.220  0.00  0.00     0.030 H 
ATOM     19  H3  <0> d           0.086   0.705   7.482  0.00  0.00     0.030 H 
ATOM     20  H4  <0> d           1.087   2.165   7.302  0.00  0.00     0.030 H 
ENDBRANCH  14  17
ENDBRANCH  13  14
ENDBRANCH  11  13
ENDBRANCH   8  11
ENDBRANCH   6   8
BRANCH   6  21
ATOM     21  O3  <0> d          -2.030   0.991   1.336  0.00  0.00    -0.394 OA
ATOM     22  H11 <0> d          -2.023   0.025   1.372  0.00  0.00     0.210 HD
ENDBRANCH   6  21
ENDBRANCH   1   6
TORSDOF 7
