REMARK  3 active torsions:
REMARK  status: ('A' for Active; 'I' for Inactive)
REMARK    1  A    between atoms: C1_1  and  C2_2 
REMARK    2  A    between atoms: C2_2  and  C3_4 
REMARK    3  A    between atoms: C2_2  and  C9_10 
REMARK       I    between atoms: C9_10  and  N1_12 
ROOT
ATOM      1  C3  <0> d           1.171   2.086   0.002  0.00  0.00    -0.045 A 
ATOM      2  C4  <0> d          -0.017   1.378   0.010  0.00  0.00    -0.076 A 
ATOM      3  C5  <0> d           0.002  -0.004   0.002  0.00  0.00    -0.082 A 
ATOM      4  C6  <0> d           1.208  -0.679  -0.014  0.00  0.00    -0.083 A 
ATOM      5  C7  <0> d           2.396   0.029  -0.021  0.00  0.00    -0.082 A 
ATOM      6  C8  <0> d           2.377   1.411  -0.014  0.00  0.00    -0.076 A 
ATOM      7  H5  <0> d          -0.959   1.905   0.017  0.00  0.00     0.084 H 
ATOM      8  H6  <0> d          -0.926  -0.557   0.008  0.00  0.00     0.083 H 
ATOM      9  H7  <0> d           1.223  -1.759  -0.020  0.00  0.00     0.083 H 
ATOM     10  H8  <0> d           3.339  -0.499  -0.033  0.00  0.00     0.083 H 
ATOM     11  H9  <0> d           3.305   1.963  -0.019  0.00  0.00     0.084 H 
ENDROOT
BRANCH   1  12
ATOM     12  C2  <0> d           1.151   3.592   0.010  0.00  0.00     0.045 C 
ATOM     13  H1  <0> d           0.118   3.942   0.021  0.00  0.00     0.061 H 
BRANCH  12  14
ATOM     14  C1  <0> d           1.853   4.119  -1.243  0.00  0.00    -0.061 C 
ATOM     15  H2  <0> d           1.838   5.208  -1.238  0.00  0.00     0.029 H 
ATOM     16  H3  <0> d           2.885   3.769  -1.255  0.00  0.00     0.029 H 
ATOM     17  H4  <0> d           1.336   3.753  -2.130  0.00  0.00     0.029 H 
ENDBRANCH  12  14
BRANCH  12  18
ATOM     18  C9  <0> d           1.865   4.098   1.236  0.00  0.00     0.223 C 
ATOM     19  O1  <0> d           2.345   3.312   2.026  0.00  0.00    -0.273 OA
ATOM     20  N1  <0> d           1.973   5.424   1.455  0.00  0.00    -0.370 N 
ATOM     21  H10 <0> d           1.590   6.052   0.824  0.00  0.00     0.159 HD
ATOM     22  H11 <0> d           2.433   5.749   2.245  0.00  0.00     0.159 HD
ENDBRANCH  12  18
ENDBRANCH   1  12
TORSDOF 3
