REMARK  1 active torsions:
REMARK  status: ('A' for Active; 'I' for Inactive)
REMARK    1  A    between atoms: C6_9  and  N4_10 
ROOT
ATOM      1  C1  <0> d           0.706  -2.669  -0.020  0.00  0.00    -0.053 A 
ATOM      2  C2  <0> d           1.683  -1.725  -0.024  0.00  0.00    -0.034 A 
ATOM      3  C3  <0> d           1.327  -0.363  -0.013  0.00  0.00     0.157 A 
ATOM      4  N1  <0> d           2.028   0.760  -0.013  0.00  0.00    -0.131 NA
ATOM      5  N2  <0> d           1.226   1.767  -0.000  0.00  0.00    -0.143 NA
ATOM      6  C4  <0> d          -0.016   1.356   0.009  0.00  0.00     0.093 A 
ATOM      7  N3  <0> d           0.002  -0.004   0.002  0.00  0.00    -0.296 N 
ATOM      8  C5  <0> d          -0.975  -0.959   0.006  0.00  0.00     0.013 A 
ATOM      9  C6  <0> d          -0.648  -2.275  -0.005  0.00  0.00     0.042 A 
ATOM     10  H1  <0> d           0.965  -3.718  -0.028  0.00  0.00     0.087 H 
ATOM     11  H2  <0> d           2.723  -2.016  -0.036  0.00  0.00     0.089 H 
ATOM     12  H3  <0> d          -0.896   1.982   0.017  0.00  0.00     0.147 H 
ATOM     13  H4  <0> d          -2.014  -0.664   0.018  0.00  0.00     0.115 H 
ENDROOT
BRANCH   9  14
ATOM     14  N4  <0> d          -1.658  -3.245  -0.000  0.00  0.00    -0.398 N 
ATOM     15  H5  <0> d          -2.590  -2.975   0.010  0.00  0.00     0.156 HD
ATOM     16  H6  <0> d          -1.426  -4.187  -0.008  0.00  0.00     0.156 HD
ENDBRANCH   9  14
TORSDOF 1
