REMARK  3 active torsions:
REMARK  status: ('A' for Active; 'I' for Inactive)
REMARK    1  A    between atoms: C1_1  and  O1_2 
REMARK    2  A    between atoms: O1_2  and  C2_3 
REMARK    3  A    between atoms: C2_3  and  C3_5 
ROOT
ATOM      1  C3  <0> d           1.280   1.975   0.000  0.00  0.00     0.037 C 
ATOM      2  H1  <0> d           1.367   2.587   0.899  0.00  0.00     0.056 H 
ATOM      3  C4  <0> d           1.381   2.856  -1.269  0.00  0.00    -0.046 C 
ATOM      4  C5  <0> d           2.647   2.305  -2.001  0.00  0.00    -0.037 C 
ATOM      5  H2  <0> d           3.078   2.947  -2.769  0.00  0.00     0.046 H 
ATOM      6  C6  <0> d           3.562   1.966  -0.769  0.00  0.00    -0.051 C 
ATOM      7  C7  <0> d           2.497   1.004  -0.126  0.00  0.00    -0.025 C 
ATOM      8  H3  <0> d           2.786   0.472   0.781  0.00  0.00     0.047 H 
ATOM      9  C8  <0> d           2.139   0.133  -1.374  0.00  0.00    -0.101 C 
ATOM     10  C9  <0> d           2.236   0.895  -2.445  0.00  0.00    -0.102 C 
ATOM     11  H7  <0> d           0.495   2.734  -1.892  0.00  0.00     0.035 H 
ATOM     12  H8  <0> d           1.518   3.903  -0.999  0.00  0.00     0.035 H 
ATOM     13  H9  <0> d           4.475   1.444  -1.058  0.00  0.00     0.035 H 
ATOM     14  H10 <0> d           3.767   2.838  -0.148  0.00  0.00     0.035 H 
ATOM     15  H11 <0> d           1.867  -0.912  -1.365  0.00  0.00     0.077 H 
ATOM     16  H12 <0> d           2.058   0.581  -3.463  0.00  0.00     0.076 H 
ENDROOT
BRANCH   1  17
ATOM     17  C2  <0> d          -0.014   1.204   0.009  0.00  0.00     0.263 C 
ATOM     18  O2  <0> d           0.002  -0.004   0.002  0.00  0.00    -0.265 OA
BRANCH  17  19
ATOM     19  O1  <0> d          -1.186   1.859   0.018  0.00  0.00    -0.326 OA
BRANCH  19  20
ATOM     20  C1  <0> d          -2.393   1.052   0.019  0.00  0.00     0.013 C 
ATOM     21  H4  <0> d          -2.413   0.428  -0.874  0.00  0.00     0.067 H 
ATOM     22  H5  <0> d          -2.405   0.418   0.906  0.00  0.00     0.067 H 
ATOM     23  H6  <0> d          -3.266   1.704   0.027  0.00  0.00     0.067 H 
ENDBRANCH  19  20
ENDBRANCH  17  19
ENDBRANCH   1  17
TORSDOF 3
