REMARK  5 active torsions:
REMARK  status: ('A' for Active; 'I' for Inactive)
REMARK    1  A    between atoms: C1_1  and  C2_2 
REMARK    2  A    between atoms: C2_2  and  N1_3 
REMARK    3  A    between atoms: N1_3  and  C3_4 
REMARK    4  A    between atoms: N5_8  and  C4_9 
REMARK    5  A    between atoms: C4_9  and  C5_10 
ROOT
ATOM      1  C3  <0> d          -1.692   0.937   1.890  0.00  0.00     0.739 A 
ATOM      2  N2  <0> d          -2.011   1.710   2.905  0.00  0.00     0.065 NA
ATOM      3  N3  <0> d          -1.286   2.770   2.909  0.00  0.00    -0.008 NA
ATOM      4  N4  <0> d          -0.461   2.751   1.918  0.00  0.00    -0.030 NA
ATOM      5  N5  <0> d          -0.698   1.558   1.213  0.00  0.00    -0.079 N 
ENDROOT
BRANCH   1   6
ATOM      6  N1  <0> d          -2.264  -0.282   1.574  0.00  0.00    -0.222 N 
ATOM      7  H6  <0> d          -1.955  -0.777   0.798  0.00  0.00     0.177 HD
BRANCH   6   8
ATOM      8  C2  <0> d          -3.338  -0.827   2.409  0.00  0.00     0.006 C 
ATOM      9  H4  <0> d          -2.972  -0.964   3.427  0.00  0.00     0.064 H 
ATOM     10  H5  <0> d          -4.179  -0.134   2.416  0.00  0.00     0.064 H 
BRANCH   8  11
ATOM     11  C1  <0> d          -3.791  -2.174   1.844  0.00  0.00    -0.061 C 
ATOM     12  H1  <0> d          -4.589  -2.579   2.466  0.00  0.00     0.029 H 
ATOM     13  H2  <0> d          -4.157  -2.037   0.827  0.00  0.00     0.029 H 
ATOM     14  H3  <0> d          -2.949  -2.867   1.837  0.00  0.00     0.029 H 
ENDBRANCH   8  11
ENDBRANCH   6   8
ENDBRANCH   1   6
BRANCH   5  15
ATOM     15  C4  <0> d          -0.013   1.086   0.008  0.00  0.00     0.033 C 
ATOM     16  H7  <0> d           0.002  -0.004   0.002  0.00  0.00     0.067 H 
ATOM     17  H8  <0> d           1.010   1.463   0.000  0.00  0.00     0.067 H 
BRANCH  15  18
ATOM     18  C5  <0> d          -0.753   1.593  -1.232  0.00  0.00    -0.059 C 
ATOM     19  H9  <0> d          -0.242   1.241  -2.128  0.00  0.00     0.029 H 
ATOM     20  H10 <0> d          -1.775   1.215  -1.224  0.00  0.00     0.029 H 
ATOM     21  H11 <0> d          -0.767   2.683  -1.226  0.00  0.00     0.029 H 
ENDBRANCH  15  18
ENDBRANCH   5  15
TORSDOF 5
