REMARK  3 active torsions:
REMARK  status: ('A' for Active; 'I' for Inactive)
REMARK    1  A    between atoms: C1_1  and  C2_2 
REMARK    2  A    between atoms: C4_5  and  C6_10 
REMARK    3  A    between atoms: C6_10  and  C7_12 
ROOT
ATOM      1  C2  <0> d          -0.013   1.086   0.008  0.00  0.00     0.045 C 
ATOM      2  H1  <0> d           0.002  -0.004   0.002  0.00  0.00     0.083 H 
ATOM      3  C3  <0> d          -0.765   1.598   1.253  0.00  0.00    -0.022 C 
ATOM      4  C4  <0> d          -1.958   2.373   0.648  0.00  0.00     0.090 C 
ATOM      5  H2  <0> d          -1.787   3.356   0.719  0.00  0.00     0.067 H 
ATOM      6  C5  <0> d          -2.007   1.883  -0.788  0.00  0.00     0.270 C 
ATOM      7  O1  <0> d          -2.994   1.783  -1.478  0.00  0.00    -0.264 OA
ATOM      8  O2  <0> d          -0.745   1.582  -1.148  0.00  0.00    -0.316 OA
ATOM      9  H6  <0> d          -1.116   0.765   1.861  0.00  0.00     0.038 H 
ATOM     10  H7  <0> d          -0.131   2.264   1.839  0.00  0.00     0.038 H 
ENDROOT
BRANCH   4  11
ATOM     11  C6  <0> d          -3.234   2.032   1.373  0.00  0.00     0.136 C 
ATOM     12  O3  <0> d          -3.338   0.975   1.948  0.00  0.00    -0.297 OA
BRANCH  11  13
ATOM     13  C7  <0> d          -4.381   3.010   1.379  0.00  0.00    -0.020 C 
ATOM     14  H8  <0> d          -4.975   2.832   0.595  0.00  0.00     0.037 H 
ATOM     15  H9  <0> d          -4.951   2.894   2.301  0.00  0.00     0.037 H 
ATOM     16  H10 <0> d          -3.992   4.026   1.317  0.00  0.00     0.037 H 
ENDBRANCH  11  13
ENDBRANCH   4  11
BRANCH   1  17
ATOM     17  C1  <0> d           1.417   1.630  -0.003  0.00  0.00    -0.052 C 
ATOM     18  H3  <0> d           1.944   1.284   0.887  0.00  0.00     0.030 H 
ATOM     19  H4  <0> d           1.935   1.274  -0.893  0.00  0.00     0.030 H 
ATOM     20  H5  <0> d           1.391   2.720  -0.009  0.00  0.00     0.030 H 
ENDBRANCH   1  17
TORSDOF 3
