REMARK  2 active torsions:
REMARK  status: ('A' for Active; 'I' for Inactive)
REMARK    1  A    between atoms: C2_2  and  C4_7 
REMARK    2  A    between atoms: C4_7  and  O4_9 
ROOT
ATOM      1  C1  <0> d          -0.017   1.407   0.010  0.00  0.00     0.014 A 
ATOM      2  C2  <0> d           1.271   1.842  -0.000  0.00  0.00     0.178 A 
ATOM      3  O1  <0> d           2.072   0.758  -0.014  0.00  0.00    -0.204 OA
ATOM      4  N1  <0> d           1.249  -0.394  -0.012  0.00  0.00    -0.099 NA
ATOM      5  C3  <0> d           0.002  -0.004   0.002  0.00  0.00     0.229 A 
ATOM      6  O2  <0> d          -1.086  -0.816   0.008  0.00  0.00    -0.168 OA
ATOM      7  H1  <0> d          -0.899   2.030   0.025  0.00  0.00     0.095 H 
ENDROOT
BRANCH   2   8
ATOM      8  C4  <0> d           1.713   3.248   0.003  0.00  0.00     0.203 C 
ATOM      9  O3  <0> d           0.891   4.143   0.016  0.00  0.00    -0.644 OA
BRANCH   8  10
ATOM     10  O4  <0> d           3.028   3.542  -0.008  0.00  0.00    -0.771 OA
ATOM     11  H2  <0> d           3.220   4.490  -0.005  0.00  0.00     0.167 HD
ENDBRANCH   8  10
ENDBRANCH   2   8
TORSDOF 2
