REMARK  3 active torsions:
REMARK  status: ('A' for Active; 'I' for Inactive)
REMARK    1  A    between atoms: C1_1  and  O1_2 
REMARK    2  A    between atoms: O1_2  and  C2_3 
REMARK    3  A    between atoms: C5_6  and  N3_9 
ROOT
ATOM      1  C2  <0> d           1.093   1.999   0.002  0.00  0.00     0.185 A 
ATOM      2  C3  <0> d           2.334   1.363  -0.013  0.00  0.00    -0.027 A 
ATOM      3  C4  <0> d           2.354  -0.021  -0.021  0.00  0.00    -0.033 A 
ATOM      4  C5  <0> d           1.132  -0.693  -0.013  0.00  0.00     0.143 A 
ATOM      5  N1  <0> d           0.002  -0.004   0.002  0.00  0.00    -0.130 NA
ATOM      6  N2  <0> d          -0.015   1.279   0.009  0.00  0.00    -0.123 NA
ATOM      7  H4  <0> d           3.251   1.934  -0.018  0.00  0.00     0.090 H 
ATOM      8  H5  <0> d           3.288  -0.563  -0.032  0.00  0.00     0.089 H 
ENDROOT
BRANCH   1   9
ATOM      9  O1  <0> d           1.023   3.355   0.010  0.00  0.00    -0.338 OA
BRANCH   9  10
ATOM     10  C1  <0> d          -0.281   3.938   0.025  0.00  0.00     0.012 C 
ATOM     11  H1  <0> d          -0.194   5.024   0.030  0.00  0.00     0.067 H 
ATOM     12  H2  <0> d          -0.831   3.621  -0.862  0.00  0.00     0.067 H 
ATOM     13  H3  <0> d          -0.814   3.612   0.918  0.00  0.00     0.067 H 
ENDBRANCH   9  10
ENDBRANCH   1   9
BRANCH   4  14
ATOM     14  N3  <0> d           1.100  -2.086  -0.019  0.00  0.00    -0.383 N 
ATOM     15  H6  <0> d           0.250  -2.552  -0.013  0.00  0.00     0.157 HD
ATOM     16  H7  <0> d           1.929  -2.589  -0.030  0.00  0.00     0.157 HD
ENDBRANCH   4  14
TORSDOF 3
