REMARK  0 active torsions:
REMARK  status: ('A' for Active; 'I' for Inactive)
ROOT
ATOM      1  C1  <0> d           1.108   3.184   0.009  0.00  0.00    -0.030 A 
ATOM      2  C2  <0> d          -0.148   3.765   0.024  0.00  0.00    -0.002 A 
ATOM      3  N1  <0> d          -1.226   3.003   0.030  0.00  0.00    -0.290 N 
ATOM      4  N2  <0> d          -1.161   1.722   0.017  0.00  0.00    -0.185 NA
ATOM      5  C3  <0> d          -0.013   1.076   0.008  0.00  0.00     0.057 A 
ATOM      6  C4  <0> d           1.182   1.791   0.000  0.00  0.00     0.127 A 
ATOM      7  O1  <0> d           2.381   1.153  -0.015  0.00  0.00    -0.191 OA
ATOM      8  H1  <0> d           1.925   3.760   0.004  0.00  0.00     0.090 H 
ATOM      9  H2  <0> d          -0.238   4.761   0.030  0.00  0.00     0.113 H 
ATOM     10  H3  <0> d          -0.001   0.076   0.007  0.00  0.00     0.121 H 
ATOM     11  H4  <0> d          -2.225   3.464   0.047  0.00  0.00     0.188 HD
ENDROOT
TORSDOF 0
