REMARK  2 active torsions:
REMARK  status: ('A' for Active; 'I' for Inactive)
REMARK    1  A    between atoms: C1_1  and  O1_2 
REMARK    2  A    between atoms: O1_2  and  C2_3 
ROOT
ATOM      1  C2  <0> d          -0.013   1.086   0.008  0.00  0.00     0.038 C 
ATOM      2  C3  <0> d          -0.719   1.589  -1.222  0.00  0.00    -0.041 C 
ATOM      3  C4  <0> d          -0.658   0.584  -2.389  0.00  0.00    -0.063 C 
ATOM      4  C5  <0> d           0.725  -0.078  -2.535  0.00  0.00    -0.065 C 
ATOM      5  C6  <0> d           1.854   0.899  -2.349  0.00  0.00    -0.065 C 
ATOM      6  C7  <0> d           2.305   0.852  -0.875  0.00  0.00    -0.063 C 
ATOM      7  C8  <0> d           1.433   1.624  -0.003  0.00  0.00    -0.041 C 
ATOM      8  H4  <0> d          -0.059  -0.012   0.060  0.00  0.00     0.083 H 
ATOM      9  H5  <0> d          -1.778   1.772  -0.987  0.00  0.00     0.036 H 
ATOM     10  H6  <0> d          -0.250   2.526  -1.557  0.00  0.00     0.036 H 
ATOM     11  H7  <0> d          -1.397  -0.214  -2.224  0.00  0.00     0.033 H 
ATOM     12  H8  <0> d          -0.883   1.104  -3.332  0.00  0.00     0.033 H 
ATOM     13  H9  <0> d           0.834  -0.870  -1.780  0.00  0.00     0.033 H 
ATOM     14  H10 <0> d           0.817  -0.515  -3.540  0.00  0.00     0.033 H 
ATOM     15  H11 <0> d           2.691   0.622  -3.007  0.00  0.00     0.033 H 
ATOM     16  H12 <0> d           1.508   1.912  -2.603  0.00  0.00     0.033 H 
ATOM     17  H13 <0> d           2.301  -0.191  -0.524  0.00  0.00     0.033 H 
ATOM     18  H14 <0> d           3.322   1.264  -0.790  0.00  0.00     0.033 H 
ATOM     19  H15 <0> d           1.434   2.665  -0.357  0.00  0.00     0.036 H 
ATOM     20  H16 <0> d           1.847   1.582   1.015  0.00  0.00     0.036 H 
ENDROOT
BRANCH   1  21
ATOM     21  O1  <0> d          -0.689   1.550   1.178  0.00  0.00    -0.391 OA
BRANCH  21  22
ATOM     22  C1  <0> d          -1.704   0.664   1.653  0.00  0.00     0.004 C 
ATOM     23  H1  <0> d          -2.174   1.092   2.551  0.00  0.00     0.066 H 
ATOM     24  H2  <0> d          -1.255  -0.308   1.902  0.00  0.00     0.066 H 
ATOM     25  H3  <0> d          -2.466   0.527   0.871  0.00  0.00     0.066 H 
ENDBRANCH  21  22
ENDBRANCH   1  21
TORSDOF 2
