REMARK  2 active torsions:
REMARK  status: ('A' for Active; 'I' for Inactive)
REMARK    1  A    between atoms: C1_1  and  C2_2 
REMARK    2  A    between atoms: C6_7  and  N2_8 
ROOT
ATOM      1  C2  <0> d          -1.236   3.035   0.030  0.00  0.00    -0.015 A 
ATOM      2  C3  <0> d          -2.450   3.699   0.034  0.00  0.00    -0.051 A 
ATOM      3  C4  <0> d          -3.617   2.945   0.036  0.00  0.00     0.052 A 
ATOM      4  C5  <0> d          -3.531   1.566   0.028  0.00  0.00     0.025 A 
ATOM      5  N1  <0> d          -2.359   0.961   0.018  0.00  0.00    -0.242 NA
ATOM      6  C6  <0> d          -1.225   1.645   0.017  0.00  0.00     0.127 A 
ATOM      7 Cl1  <0> d          -5.167   3.727   0.048  0.00  0.00    -0.083 Cl
ATOM      8  H4  <0> d          -2.490   4.778   0.041  0.00  0.00     0.087 H 
ATOM      9  H5  <0> d          -4.436   0.975   0.029  0.00  0.00     0.117 H 
ENDROOT
BRANCH   1  10
ATOM     10  C1  <0> d           0.057   3.810   0.035  0.00  0.00    -0.048 C 
ATOM     11  H1  <0> d          -0.161   4.888   0.045  0.00  0.00     0.033 H 
ATOM     12  H2  <0> d           0.636   3.562  -0.867  0.00  0.00     0.033 H 
ATOM     13  H3  <0> d           0.640   3.545   0.929  0.00  0.00     0.033 H 
ENDBRANCH   1  10
BRANCH   6  14
ATOM     14  N2  <0> d          -0.011   0.966   0.007  0.00  0.00    -0.384 N 
ATOM     15  H6  <0> d           0.004  -0.134  -0.003  0.00  0.00     0.157 HD
ATOM     16  H7  <0> d           0.934   1.529   0.011  0.00  0.00     0.157 HD
ENDBRANCH   6  14
TORSDOF 2
