REMARK  9 active torsions:
REMARK  status: ('A' for Active; 'I' for Inactive)
REMARK    1  A    between atoms: C1_1  and  C2_2 
REMARK    2  A    between atoms: C2_2  and  C3_3 
REMARK    3  A    between atoms: C3_3  and  C4_4 
REMARK    4  A    between atoms: C4_4  and  C5_5 
REMARK    5  A    between atoms: C5_5  and  C6_6 
REMARK    6  A    between atoms: C6_6  and  C7_8 
REMARK    7  A    between atoms: C6_6  and  O1_13 
REMARK    8  A    between atoms: C7_8  and  C8_10 
REMARK    9  A    between atoms: C7_8  and  C9_11 
ROOT
ATOM      1  C5  <0> d           0.686   3.639   1.264  0.00  0.00    -0.040 C 
ATOM      2  H12 <0> d           1.186   3.352   2.189  0.00  0.00     0.036 H 
ATOM      3  H13 <0> d           1.223   3.216   0.415  0.00  0.00     0.036 H 
ENDROOT
BRANCH   1   4
ATOM      4  C4  <0> d           0.666   5.164   1.147  0.00  0.00    -0.063 C 
ATOM      5  H10 <0> d           0.166   5.451   0.222  0.00  0.00     0.033 H 
ATOM      6  H11 <0> d           0.129   5.587   1.996  0.00  0.00     0.033 H 
BRANCH   4   7
ATOM      7  C3  <0> d           2.101   5.694   1.136  0.00  0.00    -0.065 C 
ATOM      8  H8  <0> d           2.601   5.407   2.061  0.00  0.00     0.033 H 
ATOM      9  H9  <0> d           2.638   5.271   0.287  0.00  0.00     0.033 H 
BRANCH   7  10
ATOM     10  C2  <0> d           2.081   7.219   1.019  0.00  0.00    -0.069 C 
ATOM     11  H6  <0> d           1.581   7.506   0.094  0.00  0.00     0.032 H 
ATOM     12  H7  <0> d           1.544   7.642   1.868  0.00  0.00     0.032 H 
BRANCH  10  13
ATOM     13  C1  <0> d           3.517   7.748   1.008  0.00  0.00    -0.077 C 
ATOM     14  H3  <0> d           4.053   7.326   0.159  0.00  0.00     0.027 H 
ATOM     15  H4  <0> d           3.502   8.835   0.924  0.00  0.00     0.027 H 
ATOM     16  H5  <0> d           4.016   7.462   1.933  0.00  0.00     0.027 H 
ENDBRANCH  10  13
ENDBRANCH   7  10
ENDBRANCH   4   7
ENDBRANCH   1   4
BRANCH   1  17
ATOM     17  C6  <0> d          -0.750   3.109   1.275  0.00  0.00     0.042 C 
ATOM     18  H1  <0> d          -1.277   3.470   0.392  0.00  0.00     0.083 H 
BRANCH  17  19
ATOM     19  C7  <0> d          -0.729   1.579   1.267  0.00  0.00    -0.017 C 
ATOM     20  H2  <0> d          -0.202   1.218   2.150  0.00  0.00     0.049 H 
BRANCH  19  21
ATOM     21  C8  <0> d          -0.013   1.086   0.008  0.00  0.00    -0.067 C 
ATOM     22  H14 <0> d           0.002  -0.004   0.002  0.00  0.00     0.028 H 
ATOM     23  H15 <0> d           1.010   1.463   0.000  0.00  0.00     0.028 H 
ATOM     24  H16 <0> d          -0.540   1.447  -0.875  0.00  0.00     0.028 H 
ENDBRANCH  19  21
BRANCH  19  25
ATOM     25  C9  <0> d          -2.143   1.058   1.278  0.00  0.00    -0.106 C 
ATOM     26  C10 <0> d          -2.551   0.293   2.260  0.00  0.00    -0.124 C 
ATOM     27  H18 <0> d          -1.875   0.037   3.062  0.00  0.00     0.066 H 
ATOM     28  H19 <0> d          -3.565  -0.080   2.268  0.00  0.00     0.066 H 
ATOM     29  H17 <0> d          -2.819   1.314   0.475  0.00  0.00     0.076 H 
ENDBRANCH  19  25
ENDBRANCH  17  19
BRANCH  17  30
ATOM     30  O1  <0> d          -1.419   3.570   2.451  0.00  0.00    -0.395 OA
ATOM     31  H20 <0> d          -1.003   3.286   3.277  0.00  0.00     0.210 HD
ENDBRANCH  17  30
ENDBRANCH   1  17
TORSDOF 9
