REMARK  5 active torsions:
REMARK  status: ('A' for Active; 'I' for Inactive)
REMARK    1  A    between atoms: C1_1  and  C2_2 
REMARK    2  A    between atoms: C2_2  and  O1_3 
REMARK    3  A    between atoms: O1_3  and  C3_4 
REMARK    4  A    between atoms: C3_4  and  C4_6 
REMARK    5  A    between atoms: C3_4  and  N1_8 
ROOT
ATOM      1  C3  <0> d           1.872  -1.761  -0.025  0.00  0.00     0.143 C 
ATOM      2  H1  <0> d           2.783  -1.798  -0.623  0.00  0.00     0.127 H 
ENDROOT
BRANCH   1   3
ATOM      3  O1  <0> d           0.895  -2.637  -0.589  0.00  0.00    -0.362 OA
BRANCH   3   4
ATOM      4  C2  <0> d           1.449  -3.768  -1.264  0.00  0.00     0.019 C 
ATOM      5  H5  <0> d           2.086  -3.428  -2.080  0.00  0.00     0.073 H 
ATOM      6  H6  <0> d           2.041  -4.356  -0.562  0.00  0.00     0.073 H 
BRANCH   4   7
ATOM      7  C1  <0> d           0.318  -4.632  -1.825  0.00  0.00    -0.056 C 
ATOM      8  H2  <0> d          -0.319  -4.972  -1.009  0.00  0.00     0.030 H 
ATOM      9  H3  <0> d          -0.274  -4.044  -2.527  0.00  0.00     0.030 H 
ATOM     10  H4  <0> d           0.740  -5.495  -2.340  0.00  0.00     0.030 H 
ENDBRANCH   4   7
ENDBRANCH   3   4
ENDBRANCH   1   3
BRANCH   1  11
ATOM     11  C4  <0> d           2.180  -2.193   1.386  0.00  0.00    -0.064 C 
ATOM     12  C5  <0> d           1.647  -3.290   1.866  0.00  0.00    -0.121 C 
ATOM     13  H8  <0> d           1.867  -3.600   2.877  0.00  0.00     0.066 H 
ATOM     14  H9  <0> d           0.987  -3.884   1.250  0.00  0.00     0.066 H 
ATOM     15  H7  <0> d           2.839  -1.599   2.001  0.00  0.00     0.082 H 
ENDBRANCH   1  11
BRANCH   1  16
ATOM     16  N1  <0> d           1.352  -0.392  -0.013  0.00  0.00    -0.230 N 
ATOM     17  N3  <0> d           0.002  -0.004   0.002  0.00  0.00    -0.162 NA
ATOM     18  C7  <0> d          -0.016   1.303   0.009  0.00  0.00     0.107 A 
ATOM     19  N2  <0> d           1.238   1.753  -0.000  0.00  0.00    -0.234 NA
ATOM     20  H11 <0> d          -0.903   1.919   0.017  0.00  0.00     0.149 H 
ATOM     21  C6  <0> d           2.072   0.744  -0.014  0.00  0.00     0.087 A 
ATOM     22  H10 <0> d           3.149   0.812  -0.024  0.00  0.00     0.146 H 
ENDBRANCH   1  16
TORSDOF 5
