REMARK  3 active torsions:
REMARK  status: ('A' for Active; 'I' for Inactive)
REMARK    1  A    between atoms: C1_1  and  C2_2 
REMARK    2  A    between atoms: C2_2  and  C3_3 
REMARK    3  A    between atoms: C4_5  and  C6_8 
ROOT
ATOM      1  C3  <0> d          -2.646   2.202   2.320  0.00  0.00     0.074 A 
ATOM      2  N1  <0> d          -2.017   1.784   1.245  0.00  0.00    -0.251 NA
ATOM      3  C4  <0> d          -0.718   1.572   1.248  0.00  0.00     0.038 A 
ATOM      4  C5  <0> d          -0.028   1.807   2.393  0.00  0.00    -0.020 A 
ATOM      5  S1  <0> d          -1.351   2.342   3.469  0.00  0.00    -0.085 SA
ATOM      6  H6  <0> d           1.027   1.700   2.598  0.00  0.00     0.098 H 
ENDROOT
BRANCH   1   7
ATOM      7  C2  <0> d          -4.112   2.493   2.506  0.00  0.00    -0.022 C 
ATOM      8  H4  <0> d          -4.236   3.279   3.251  0.00  0.00     0.042 H 
ATOM      9  H5  <0> d          -4.542   2.819   1.559  0.00  0.00     0.042 H 
BRANCH   7  10
ATOM     10  C1  <0> d          -4.827   1.225   2.980  0.00  0.00    -0.071 C 
ATOM     11  H1  <0> d          -5.888   1.435   3.115  0.00  0.00     0.028 H 
ATOM     12  H2  <0> d          -4.704   0.439   2.235  0.00  0.00     0.028 H 
ATOM     13  H3  <0> d          -4.398   0.899   3.927  0.00  0.00     0.028 H 
ENDBRANCH   7  10
ENDBRANCH   1   7
BRANCH   3  14
ATOM     14  C6  <0> d          -0.013   1.086   0.008  0.00  0.00    -0.035 C 
ATOM     15  H7  <0> d           0.002  -0.004   0.002  0.00  0.00     0.035 H 
ATOM     16  H8  <0> d           1.010   1.463   0.000  0.00  0.00     0.035 H 
ATOM     17  H9  <0> d          -0.540   1.447  -0.875  0.00  0.00     0.035 H 
ENDBRANCH   3  14
TORSDOF 3
