REMARK  0 active torsions:
REMARK  status: ('A' for Active; 'I' for Inactive)
ROOT
ATOM      1  C1  <0> d          -0.017   1.390   0.010  0.00  0.00    -0.036 A 
ATOM      2  C2  <0> d           1.212   1.960   0.001  0.00  0.00    -0.024 A 
ATOM      3  S1  <0> d           2.248   0.643  -0.016  0.00  0.00     0.001 SA
ATOM      4  N1  <0> d           1.189  -0.576  -0.012  0.00  0.00    -0.201 NA
ATOM      5  C3  <0> d           0.002  -0.004   0.002  0.00  0.00     0.145 A 
ATOM      6  C4  <0> d          -1.205  -0.774   0.009  0.00  0.00     0.120 C 
ATOM      7  N2  <0> d          -2.163  -1.385   0.015  0.00  0.00    -0.190 NA
ATOM      8  H1  <0> d          -0.931   1.965   0.026  0.00  0.00     0.089 H 
ATOM      9  H2  <0> d           1.463   3.010   0.004  0.00  0.00     0.097 H 
ENDROOT
TORSDOF 0
