REMARK  5 active torsions:
REMARK  status: ('A' for Active; 'I' for Inactive)
REMARK    1  A    between atoms: C1_1  and  C2_2 
REMARK    2  A    between atoms: C2_2  and  C3_3 
REMARK    3  A    between atoms: C3_3  and  C4_4 
REMARK    4  A    between atoms: C4_4  and  C5_5 
REMARK    5  A    between atoms: C5_5  and  C6_6 
ROOT
ATOM      1  C4  <0> d          -0.013   1.086   0.008  0.00  0.00    -0.060 C 
ATOM      2  H8  <0> d           0.002  -0.004   0.002  0.00  0.00     0.033 H 
ATOM      3  H9  <0> d           1.010   1.463   0.000  0.00  0.00     0.033 H 
ENDROOT
BRANCH   1   4
ATOM      4  C3  <0> d          -0.753   1.593  -1.232  0.00  0.00    -0.065 C 
ATOM      5  H6  <0> d          -1.775   1.215  -1.224  0.00  0.00     0.033 H 
ATOM      6  H7  <0> d          -0.767   2.683  -1.226  0.00  0.00     0.033 H 
BRANCH   4   7
ATOM      7  C2  <0> d          -0.037   1.099  -2.490  0.00  0.00    -0.069 C 
ATOM      8  H4  <0> d           0.986   1.476  -2.498  0.00  0.00     0.032 H 
ATOM      9  H5  <0> d          -0.022   0.009  -2.496  0.00  0.00     0.032 H 
BRANCH   7  10
ATOM     10  C1  <0> d          -0.777   1.606  -3.730  0.00  0.00    -0.077 C 
ATOM     11  H1  <0> d          -1.799   1.229  -3.722  0.00  0.00     0.027 H 
ATOM     12  H2  <0> d          -0.791   2.696  -3.724  0.00  0.00     0.027 H 
ATOM     13  H3  <0> d          -0.266   1.254  -4.627  0.00  0.00     0.027 H 
ENDBRANCH   7  10
ENDBRANCH   4   7
ENDBRANCH   1   4
BRANCH   1  14
ATOM     14  C5  <0> d          -0.729   1.579   1.267  0.00  0.00    -0.023 C 
ATOM     15  H10 <0> d          -0.744   2.669   1.273  0.00  0.00     0.042 H 
ATOM     16  H11 <0> d          -1.751   1.202   1.275  0.00  0.00     0.042 H 
BRANCH  14  17
ATOM     17  C6  <0> d           0.000   1.080   2.488  0.00  0.00     0.051 A 
ATOM     18  N2  <0> d           0.222  -0.213   2.642  0.00  0.00    -0.263 NA
ATOM     19  C9  <0> d           0.865  -0.651   3.710  0.00  0.00     0.019 A 
ATOM     20  C8  <0> d           1.297   0.245   4.673  0.00  0.00     0.019 A 
ATOM     21  H14 <0> d           1.050  -1.707   3.834  0.00  0.00     0.117 H 
ATOM     22  N1  <0> d           1.070   1.538   4.521  0.00  0.00    -0.270 NA
ATOM     23  H13 <0> d           1.819  -0.113   5.548  0.00  0.00     0.117 H 
ATOM     24  C7  <0> d           0.432   1.976   3.450  0.00  0.00     0.025 A 
ATOM     25  H12 <0> d           0.246   3.032   3.327  0.00  0.00     0.117 H 
ENDBRANCH  14  17
ENDBRANCH   1  14
TORSDOF 5
