REMARK  1 active torsions:
REMARK  status: ('A' for Active; 'I' for Inactive)
REMARK    1  A    between atoms: C3_3  and  C6_8 
ROOT
ATOM      1  C1  <0> d          -0.017   1.386   0.010  0.00  0.00    -0.077 A 
ATOM      2  C2  <0> d           1.232   2.014   0.001  0.00  0.00    -0.043 A 
ATOM      3  C3  <0> d           2.361   1.202  -0.014  0.00  0.00     0.153 A 
ATOM      4  O1  <0> d           2.276  -0.008  -0.020  0.00  0.00    -0.292 OA
ATOM      5  C4  <0> d           1.243  -0.634  -0.014  0.00  0.00     0.145 A 
ATOM      6  C5  <0> d           0.002  -0.004   0.002  0.00  0.00    -0.039 A 
ATOM      7 Cl1  <0> d           1.309  -2.369  -0.024  0.00  0.00    -0.057 Cl
ATOM      8  H1  <0> d          -0.940   1.947   0.026  0.00  0.00     0.083 H 
ATOM      9  H2  <0> d           1.317   3.090   0.006  0.00  0.00     0.088 H 
ATOM     10  H3  <0> d          -0.914  -0.575   0.008  0.00  0.00     0.089 H 
ENDROOT
BRANCH   3  11
ATOM     11  C6  <0> d           3.702   1.831  -0.024  0.00  0.00     0.234 C 
ATOM     12  O2  <0> d           3.806   3.049  -0.018  0.00  0.00    -0.642 OA
ATOM     13  O3  <0> d           4.705   1.132  -0.037  0.00  0.00    -0.642 OA
ENDBRANCH   3  11
TORSDOF 1
