REMARK  1 active torsions:
REMARK  status: ('A' for Active; 'I' for Inactive)
REMARK    1  A    between atoms: C1_1  and  C2_2 
ROOT
ATOM      1  C2  <0> d           0.002  -0.004   0.002  0.00  0.00    -0.044 A 
ATOM      2  C3  <0> d           0.006  -0.700  -1.198  0.00  0.00    -0.074 A 
ATOM      3  C4  <0> d           0.025  -2.085  -1.157  0.00  0.00    -0.066 A 
ATOM      4  C5  <0> d           0.039  -2.723   0.069  0.00  0.00     0.002 A 
ATOM      5  N1  <0> d           0.035  -2.029   1.190  0.00  0.00    -0.273 NA
ATOM      6  C6  <0> d           0.023  -0.710   1.190  0.00  0.00     0.007 A 
ATOM      7  H4  <0> d          -0.006  -0.174  -2.141  0.00  0.00     0.084 H 
ATOM      8  H5  <0> d           0.028  -2.659  -2.072  0.00  0.00     0.085 H 
ATOM      9  H6  <0> d           0.054  -3.802   0.110  0.00  0.00     0.114 H 
ATOM     10  H7  <0> d           0.025  -0.176   2.128  0.00  0.00     0.115 H 
ENDROOT
BRANCH   1  11
ATOM     11  C1  <0> d          -0.018   1.503   0.010  0.00  0.00    -0.050 C 
ATOM     12  H1  <0> d           1.004   1.880   0.003  0.00  0.00     0.033 H 
ATOM     13  H2  <0> d          -0.545   1.864  -0.873  0.00  0.00     0.033 H 
ATOM     14  H3  <0> d          -0.529   1.854   0.907  0.00  0.00     0.033 H 
ENDBRANCH   1  11
TORSDOF 1
