REMARK  1 active torsions:
REMARK  status: ('A' for Active; 'I' for Inactive)
REMARK    1  A    between atoms: C1_1  and  N1_2 
ROOT
ATOM      1  N1  <0> d           0.002  -0.004   0.002  0.00  0.00    -0.221 N 
ATOM      2  C2  <0> d          -1.074  -0.818   0.003  0.00  0.00     0.344 A 
ATOM      3  O1  <0> d          -2.241  -0.471   0.010  0.00  0.00    -0.245 OA
ATOM      4  N2  <0> d          -0.620  -2.088  -0.007  0.00  0.00    -0.281 N 
ATOM      5  H1  <0> d          -1.169  -2.887  -0.010  0.00  0.00     0.173 HD
ATOM      6  C3  <0> d           0.754  -2.055  -0.014  0.00  0.00     0.223 A 
ATOM      7  N3  <0> d           1.142  -0.819  -0.014  0.00  0.00    -0.137 NA
ATOM      8 Cl1  <0> d           1.798  -3.442  -0.026  0.00  0.00    -0.041 Cl
ENDROOT
BRANCH   1   9
ATOM      9  C1  <0> d          -0.018   1.461   0.010  0.00  0.00     0.007 C 
ATOM     10  H2  <0> d           1.005   1.838   0.002  0.00  0.00     0.059 H 
ATOM     11  H3  <0> d          -0.545   1.822  -0.873  0.00  0.00     0.059 H 
ATOM     12  H4  <0> d          -0.528   1.812   0.907  0.00  0.00     0.059 H 
ENDBRANCH   1   9
TORSDOF 1
