REMARK  2 active torsions:
REMARK  status: ('A' for Active; 'I' for Inactive)
REMARK    1  A    between atoms: N1_4  and  C5_6 
REMARK    2  A    between atoms: C5_6  and  C6_7 
ROOT
ATOM      1  C5  <0> d          -1.250   2.203   0.020  0.00  0.00     0.043 C 
ATOM      2  H5  <0> d          -2.056   1.680   0.536  0.00  0.00     0.075 H 
ATOM      3  H6  <0> d          -1.035   3.138   0.538  0.00  0.00     0.075 H 
ENDROOT
BRANCH   1   4
ATOM      4  N1  <0> d          -1.657   2.491  -1.357  0.00  0.00    -0.360 N 
ATOM      5  C3  <0> d          -2.514   1.739  -2.106  0.00  0.00    -0.020 A 
ATOM      6  C2  <0> d          -2.640   2.322  -3.315  0.00  0.00    -0.067 A 
ATOM      7  H3  <0> d          -3.006   0.832  -1.785  0.00  0.00     0.111 H 
ATOM      8  C1  <0> d          -1.832   3.475  -3.314  0.00  0.00    -0.067 A 
ATOM      9  H2  <0> d          -3.249   1.969  -4.135  0.00  0.00     0.085 H 
ATOM     10  C4  <0> d          -1.247   3.557  -2.101  0.00  0.00    -0.020 A 
ATOM     11  H1  <0> d          -1.707   4.170  -4.131  0.00  0.00     0.085 H 
ATOM     12  H4  <0> d          -0.569   4.332  -1.776  0.00  0.00     0.111 H 
ENDBRANCH   1   4
BRANCH   1  13
ATOM     13  C6  <0> d          -0.016   1.339   0.009  0.00  0.00     0.070 A 
ATOM     14  O1  <0> d           0.002  -0.004   0.002  0.00  0.00    -0.325 OA
ATOM     15  C9  <0> d           1.274  -0.435  -0.012  0.00  0.00     0.019 A 
ATOM     16  C8  <0> d           2.086   0.638  -0.014  0.00  0.00    -0.059 A 
ATOM     17  H9  <0> d           1.591  -1.467  -0.021  0.00  0.00     0.123 H 
ATOM     18  C7  <0> d           1.254   1.781  -0.000  0.00  0.00    -0.051 A 
ATOM     19  H8  <0> d           3.166   0.628  -0.025  0.00  0.00     0.086 H 
ATOM     20  H7  <0> d           1.577   2.812   0.002  0.00  0.00     0.087 H 
ENDBRANCH   1  13
TORSDOF 2
