REMARK  2 active torsions:
REMARK  status: ('A' for Active; 'I' for Inactive)
REMARK    1  A    between atoms: C1_1  and  O1_2 
REMARK    2  A    between atoms: O1_2  and  C2_3 
ROOT
ATOM      1  C2  <0> d          -1.199  -0.637   0.010  0.00  0.00     0.184 A 
ATOM      2  C3  <0> d          -1.389  -1.975   0.010  0.00  0.00    -0.025 A 
ATOM      3  C4  <0> d          -2.787  -2.189   0.021  0.00  0.00    -0.057 A 
ATOM      4  C5  <0> d          -3.368  -0.977   0.026  0.00  0.00     0.022 A 
ATOM      5  O2  <0> d          -2.402  -0.040   0.025  0.00  0.00    -0.300 OA
ATOM      6  H4  <0> d          -0.621  -2.734   0.003  0.00  0.00     0.091 H 
ATOM      7  H5  <0> d          -3.291  -3.145   0.023  0.00  0.00     0.086 H 
ATOM      8  H6  <0> d          -4.431  -0.788   0.035  0.00  0.00     0.123 H 
ENDROOT
BRANCH   1   9
ATOM      9  O1  <0> d           0.002  -0.004   0.002  0.00  0.00    -0.335 OA
BRANCH   9  10
ATOM     10  C1  <0> d          -0.017   1.425   0.010  0.00  0.00     0.012 C 
ATOM     11  H1  <0> d           1.005   1.802   0.002  0.00  0.00     0.067 H 
ATOM     12  H2  <0> d          -0.544   1.786  -0.873  0.00  0.00     0.067 H 
ATOM     13  H3  <0> d          -0.527   1.776   0.907  0.00  0.00     0.067 H 
ENDBRANCH   9  10
ENDBRANCH   1   9
TORSDOF 2
