REMARK  2 active torsions:
REMARK  status: ('A' for Active; 'I' for Inactive)
REMARK    1  A    between atoms: C1_1  and  C2_2 
REMARK    2  A    between atoms: C3_3  and  C10_11 
ROOT
ATOM      1  C2  <0> d           0.829   3.510   0.013  0.00  0.00    -0.020 A 
ATOM      2  C3  <0> d          -0.510   3.547   0.026  0.00  0.00     0.056 A 
ATOM      3  O1  <0> d          -1.009   2.298   0.019  0.00  0.00    -0.314 OA
ATOM      4  C4  <0> d          -0.017   1.385   0.010  0.00  0.00     0.086 A 
ATOM      5  C5  <0> d           1.199   2.089   0.002  0.00  0.00     0.006 A 
ATOM      6  C6  <0> d           2.409   1.398  -0.013  0.00  0.00    -0.070 A 
ATOM      7  C7  <0> d           2.405   0.020  -0.021  0.00  0.00    -0.082 A 
ATOM      8  C8  <0> d           1.206  -0.676  -0.013  0.00  0.00    -0.080 A 
ATOM      9  C9  <0> d           0.002  -0.004   0.002  0.00  0.00    -0.049 A 
ATOM     10  H4  <0> d           3.344   1.939  -0.019  0.00  0.00     0.085 H 
ATOM     11  H5  <0> d           3.341  -0.520  -0.033  0.00  0.00     0.083 H 
ATOM     12  H6  <0> d           1.215  -1.756  -0.019  0.00  0.00     0.083 H 
ATOM     13  H7  <0> d          -0.926  -0.557   0.008  0.00  0.00     0.087 H 
ENDROOT
BRANCH   1  14
ATOM     14  C1  <0> d           1.767   4.689   0.011  0.00  0.00    -0.048 C 
ATOM     15  H1  <0> d           1.983   4.979  -1.018  0.00  0.00     0.033 H 
ATOM     16  H2  <0> d           1.301   5.525   0.533  0.00  0.00     0.033 H 
ATOM     17  H3  <0> d           2.694   4.417   0.514  0.00  0.00     0.033 H 
ENDBRANCH   1  14
BRANCH   2  18
ATOM     18  C10 <0> d          -1.339   4.806   0.040  0.00  0.00    -0.031 C 
ATOM     19  H8  <0> d          -1.548   5.114  -0.984  0.00  0.00     0.036 H 
ATOM     20  H9  <0> d          -2.277   4.618   0.562  0.00  0.00     0.036 H 
ATOM     21  H10 <0> d          -0.790   5.596   0.552  0.00  0.00     0.036 H 
ENDBRANCH   2  18
TORSDOF 2
