REMARK  5 active torsions:
REMARK  status: ('A' for Active; 'I' for Inactive)
REMARK    1  A    between atoms: C3_3  and  C5_7 
REMARK    2  A    between atoms: C5_7  and  O2_8 
REMARK    3  A    between atoms: O2_8  and  C6_9 
REMARK    4  A    between atoms: C6_9  and  C7_10 
REMARK    5  A    between atoms: C7_10  and  O3_11 
ROOT
ATOM      1  C1  <0> d           3.792   5.809   1.147  0.00  0.00    -0.043 C 
ATOM      2  C2  <0> d           3.000   5.394  -0.116  0.00  0.00    -0.037 C 
ATOM      3  C3  <0> d           2.888   3.861  -0.005  0.00  0.00     0.059 C 
ATOM      4  H1  <0> d           3.399   3.390  -0.845  0.00  0.00     0.086 H 
ATOM      5  O1  <0> d           3.515   3.472   1.229  0.00  0.00    -0.384 OA
ATOM      6  C4  <0> d           4.499   4.486   1.537  0.00  0.00     0.020 C 
ATOM      7  H2  <0> d           4.521   6.585   0.912  0.00  0.00     0.036 H 
ATOM      8  H3  <0> d           3.119   6.138   1.938  0.00  0.00     0.036 H 
ATOM      9  H4  <0> d           3.546   5.672  -1.018  0.00  0.00     0.036 H 
ATOM     10  H5  <0> d           2.010   5.850  -0.113  0.00  0.00     0.036 H 
ATOM     11  H6  <0> d           5.398   4.340   0.939  0.00  0.00     0.074 H 
ATOM     12  H7  <0> d           4.741   4.479   2.600  0.00  0.00     0.074 H 
ENDROOT
BRANCH   3  13
ATOM     13  C5  <0> d           1.415   3.446   0.007  0.00  0.00     0.043 C 
ATOM     14  H8  <0> d           0.918   3.847  -0.876  0.00  0.00     0.078 H 
ATOM     15  H9  <0> d           0.935   3.838   0.904  0.00  0.00     0.078 H 
BRANCH  13  16
ATOM     16  O2  <0> d           1.322   2.020   0.000  0.00  0.00    -0.387 OA
BRANCH  16  17
ATOM     17  C6  <0> d          -0.019   1.526   0.010  0.00  0.00     0.039 C 
ATOM     18  H10 <0> d          -0.546   1.887  -0.873  0.00  0.00     0.077 H 
ATOM     19  H11 <0> d          -0.529   1.877   0.907  0.00  0.00     0.077 H 
BRANCH  17  20
ATOM     20  C7  <0> d           0.002  -0.004   0.002  0.00  0.00     0.036 C 
ATOM     21  H12 <0> d          -1.018  -0.381  -0.080  0.00  0.00     0.077 H 
ATOM     22  H13 <0> d           0.588  -0.355  -0.847  0.00  0.00     0.077 H 
BRANCH  20  23
ATOM     23  O3  <0> d           0.590  -0.479   1.215  0.00  0.00    -0.399 OA
ATOM     24  H14 <0> d           0.635  -1.443   1.279  0.00  0.00     0.209 HD
ENDBRANCH  20  23
ENDBRANCH  17  20
ENDBRANCH  16  17
ENDBRANCH  13  16
ENDBRANCH   3  13
TORSDOF 5
