REMARK  3 active torsions:
REMARK  status: ('A' for Active; 'I' for Inactive)
REMARK    1  A    between atoms: C1_1  and  C2_2 
REMARK    2  A    between atoms: C5_5  and  O1_8 
REMARK    3  A    between atoms: O1_8  and  C8_9 
ROOT
ATOM      1  C8  <0> d           2.518  -2.668  -0.036  0.00  0.00     0.104 C 
ATOM      2  C9  <0> d           2.347  -4.130  -0.042  0.00  0.00     0.085 C 
ATOM      3  N1  <0> d           2.216  -5.258  -0.046  0.00  0.00    -0.195 NA
ATOM      4  H8  <0> d           3.061  -2.362  -0.930  0.00  0.00     0.097 H 
ATOM      5  H9  <0> d           3.079  -2.371   0.850  0.00  0.00     0.097 H 
ENDROOT
BRANCH   1   6
ATOM      6  O1  <0> d           1.234  -2.039  -0.020  0.00  0.00    -0.338 OA
BRANCH   6   7
ATOM      7  C5  <0> d           1.213  -0.680  -0.013  0.00  0.00     0.070 A 
ATOM      8  C4  <0> d           0.002  -0.004   0.002  0.00  0.00    -0.050 A 
ATOM      9  C3  <0> d          -0.017   1.377   0.010  0.00  0.00    -0.075 A 
ATOM     10  H5  <0> d          -0.925  -0.557   0.008  0.00  0.00     0.087 H 
ATOM     11  C2  <0> d           1.171   2.086   0.002  0.00  0.00    -0.062 A 
ATOM     12  H4  <0> d          -0.960   1.904   0.017  0.00  0.00     0.084 H 
ATOM     13  C7  <0> d           2.379   1.415  -0.013  0.00  0.00    -0.075 A 
ATOM     14  C6  <0> d           2.403   0.033  -0.021  0.00  0.00    -0.050 A 
ATOM     15  H7  <0> d           3.305   1.970  -0.019  0.00  0.00     0.084 H 
ATOM     16  H6  <0> d           3.348  -0.491  -0.032  0.00  0.00     0.087 H 
BRANCH  11  17
ATOM     17  C1  <0> d           1.147   3.593   0.011  0.00  0.00    -0.051 C 
ATOM     18  H1  <0> d           1.151   3.950   1.040  0.00  0.00     0.033 H 
ATOM     19  H2  <0> d           2.026   3.973  -0.510  0.00  0.00     0.033 H 
ATOM     20  H3  <0> d           0.247   3.945  -0.493  0.00  0.00     0.033 H 
ENDBRANCH  11  17
ENDBRANCH   6   7
ENDBRANCH   1   6
TORSDOF 3
