REMARK  4 active torsions:
REMARK  status: ('A' for Active; 'I' for Inactive)
REMARK    1  A    between atoms: C1_1  and  C2_2 
REMARK    2  A    between atoms: C2_2  and  C3_3 
REMARK    3  A    between atoms: C2_2  and  O1_4 
REMARK    4  A    between atoms: O1_4  and  C4_5 
ROOT
ATOM      1  C2  <0> d          -0.017   1.425   0.010  0.00  0.00     0.032 C 
ATOM      2  H4  <0> d           1.005   1.802   0.002  0.00  0.00     0.082 H 
ENDROOT
BRANCH   1   3
ATOM      3  C1  <0> d          -0.757   1.932  -1.230  0.00  0.00    -0.052 C 
ATOM      4  H1  <0> d          -0.772   3.022  -1.224  0.00  0.00     0.030 H 
ATOM      5  H2  <0> d          -0.247   1.580  -2.126  0.00  0.00     0.030 H 
ATOM      6  H3  <0> d          -1.780   1.554  -1.222  0.00  0.00     0.030 H 
ENDBRANCH   1   3
BRANCH   1   7
ATOM      7  C3  <0> d          -0.733   1.918   1.269  0.00  0.00    -0.052 C 
ATOM      8  H5  <0> d          -0.206   1.557   2.152  0.00  0.00     0.030 H 
ATOM      9  H6  <0> d          -0.748   3.008   1.275  0.00  0.00     0.030 H 
ATOM     10  H7  <0> d          -1.756   1.541   1.276  0.00  0.00     0.030 H 
ENDBRANCH   1   7
BRANCH   1  11
ATOM     11  O1  <0> d           0.002  -0.004   0.002  0.00  0.00    -0.381 OA
BRANCH  11  12
ATOM     12  C4  <0> d           1.134  -0.566  -0.665  0.00  0.00     0.039 A 
ATOM     13  C6  <0> d           1.640  -1.924  -0.174  0.00  0.00    -0.039 A 
ATOM     14  C5  <0> d           0.904  -1.819  -1.512  0.00  0.00    -0.039 A 
ATOM     15  H11 <0> d           2.715  -2.101  -0.203  0.00  0.00     0.036 H 
ATOM     16  H12 <0> d           1.110  -2.389   0.657  0.00  0.00     0.036 H 
ATOM     17  H9  <0> d          -0.110  -2.215  -1.561  0.00  0.00     0.036 H 
ATOM     18  H10 <0> d           1.496  -1.927  -2.421  0.00  0.00     0.036 H 
ATOM     19  H8  <0> d           1.876   0.150  -1.016  0.00  0.00     0.083 H 
ENDBRANCH  11  12
ENDBRANCH   1  11
TORSDOF 4
