REMARK  0 active torsions:
REMARK  status: ('A' for Active; 'I' for Inactive)
ROOT
ATOM      1  C1  <0> d          -0.017   1.368   0.010  0.00  0.00     0.001 A 
ATOM      2  C2  <0> d           1.240   1.842   0.000  0.00  0.00     0.065 A 
ATOM      3  C3  <0> d           2.131   0.681  -0.015  0.00  0.00     0.051 A 
ATOM      4  C4  <0> d           3.512   0.495  -0.029  0.00  0.00     0.019 A 
ATOM      5  N1  <0> d           3.981  -0.742  -0.040  0.00  0.00    -0.253 NA
ATOM      6  C5  <0> d           3.167  -1.782  -0.038  0.00  0.00     0.088 A 
ATOM      7  N2  <0> d           1.857  -1.659  -0.025  0.00  0.00    -0.224 NA
ATOM      8  C6  <0> d           1.293  -0.455  -0.013  0.00  0.00     0.142 A 
ATOM      9  N3  <0> d           0.002  -0.004   0.002  0.00  0.00    -0.348 N 
ATOM     10  H1  <0> d          -0.785  -0.571   0.006  0.00  0.00     0.167 HD
ATOM     11 Cl1  <0> d           1.716   3.511   0.004  0.00  0.00    -0.082 Cl
ATOM     12  H2  <0> d          -0.909   1.976   0.025  0.00  0.00     0.114 H 
ATOM     13  H3  <0> d           4.183   1.341  -0.031  0.00  0.00     0.116 H 
ATOM     14  H4  <0> d           3.594  -2.775  -0.048  0.00  0.00     0.146 H 
ENDROOT
TORSDOF 0
