REMARK  4 active torsions:
REMARK  status: ('A' for Active; 'I' for Inactive)
REMARK    1  A    between atoms: C1_1  and  C2_2 
REMARK    2  A    between atoms: C2_2  and  C3_4 
REMARK    3  A    between atoms: C2_2  and  O1_11 
REMARK    4  A    between atoms: C6_7  and  N1_10 
ROOT
ATOM      1  C3  <0> d          -0.018   1.503   0.010  0.00  0.00    -0.030 A 
ATOM      2  C4  <0> d          -1.226   2.176   0.020  0.00  0.00    -0.072 A 
ATOM      3  C5  <0> d          -1.248   3.557   0.033  0.00  0.00    -0.057 A 
ATOM      4  C6  <0> d          -0.056   4.269   0.025  0.00  0.00     0.025 A 
ATOM      5  C7  <0> d           1.155   3.590   0.010  0.00  0.00    -0.057 A 
ATOM      6  C8  <0> d           1.171   2.209   0.003  0.00  0.00    -0.072 A 
ATOM      7  H5  <0> d          -2.153   1.622   0.021  0.00  0.00     0.084 H 
ATOM      8  H6  <0> d          -2.192   4.082   0.045  0.00  0.00     0.086 H 
ATOM      9  H7  <0> d           2.084   4.141   0.005  0.00  0.00     0.086 H 
ATOM     10  H8  <0> d           2.112   1.680  -0.009  0.00  0.00     0.084 H 
ENDROOT
BRANCH   1  11
ATOM     11  C2  <0> d           0.002  -0.004   0.002  0.00  0.00     0.057 C 
ATOM     12  H1  <0> d           0.969  -0.352  -0.361  0.00  0.00     0.089 H 
BRANCH  11  13
ATOM     13  C1  <0> d          -0.228  -0.525   1.422  0.00  0.00    -0.049 C 
ATOM     14  H2  <0> d          -1.195  -0.177   1.785  0.00  0.00     0.031 H 
ATOM     15  H3  <0> d          -0.213  -1.615   1.416  0.00  0.00     0.031 H 
ATOM     16  H4  <0> d           0.561  -0.155   2.077  0.00  0.00     0.031 H 
ENDBRANCH  11  13
BRANCH  11  17
ATOM     17  O1  <0> d          -1.032  -0.490  -0.857  0.00  0.00    -0.391 OA
ATOM     18  H11 <0> d          -1.922  -0.218  -0.594  0.00  0.00     0.210 HD
ENDBRANCH  11  17
ENDBRANCH   1  11
BRANCH   4  19
ATOM     19  N1  <0> d          -0.075   5.666   0.033  0.00  0.00    -0.399 N 
ATOM     20  H9  <0> d           0.758   6.162   0.027  0.00  0.00     0.156 HD
ATOM     21  H10 <0> d          -0.921   6.140   0.043  0.00  0.00     0.156 HD
ENDBRANCH   4  19
TORSDOF 4
