REMARK  4 active torsions:
REMARK  status: ('A' for Active; 'I' for Inactive)
REMARK    1  A    between atoms: C1_1  and  C2_2 
REMARK    2  A    between atoms: C5_5  and  O1_9 
REMARK    3  A    between atoms: O1_9  and  C8_10 
REMARK    4  A    between atoms: C8_10  and  C9_12 
ROOT
ATOM      1  C2  <0> d           5.017   0.358  -0.515  0.00  0.00    -0.087 C 
ATOM      2  C3  <0> d           4.179   0.288  -1.499  0.00  0.00    -0.099 C 
ATOM      3  C4  <0> d           2.789   0.850  -1.461  0.00  0.00    -0.025 C 
ATOM      4  C5  <0> d           2.367   1.117  -0.015  0.00  0.00     0.051 C 
ATOM      5  H1  <0> d           2.210   0.170   0.502  0.00  0.00     0.084 H 
ATOM      6  C6  <0> d           3.484   1.908   0.678  0.00  0.00    -0.037 C 
ATOM      7  C7  <0> d           4.711   1.002   0.806  0.00  0.00    -0.043 C 
ATOM      8  H5  <0> d           4.501  -0.206  -2.404  0.00  0.00     0.077 H 
ATOM      9  H6  <0> d           2.098   0.138  -1.913  0.00  0.00     0.042 H 
ATOM     10  H7  <0> d           2.763   1.784  -2.023  0.00  0.00     0.042 H 
ATOM     11  H8  <0> d           3.736   2.785   0.082  0.00  0.00     0.037 H 
ATOM     12  H9  <0> d           3.153   2.217   1.669  0.00  0.00     0.037 H 
ATOM     13  H10 <0> d           4.514   0.228   1.548  0.00  0.00     0.039 H 
ATOM     14  H11 <0> d           5.567   1.596   1.125  0.00  0.00     0.039 H 
ENDROOT
BRANCH   4  15
ATOM     15  O1  <0> d           1.139   1.891   0.001  0.00  0.00    -0.316 OA
BRANCH  15  16
ATOM     16  C8  <0> d          -0.014   1.204   0.009  0.00  0.00     0.255 C 
ATOM     17  O2  <0> d           0.002  -0.004   0.002  0.00  0.00    -0.266 OA
BRANCH  16  18
ATOM     18  C9  <0> d          -1.329   1.940   0.019  0.00  0.00     0.004 C 
ATOM     19  H12 <0> d          -2.148   1.220   0.019  0.00  0.00     0.041 H 
ATOM     20  H13 <0> d          -1.391   2.561   0.913  0.00  0.00     0.041 H 
ATOM     21  H14 <0> d          -1.400   2.570  -0.867  0.00  0.00     0.041 H 
ENDBRANCH  16  18
ENDBRANCH  15  16
ENDBRANCH   4  15
BRANCH   1  22
ATOM     22  C1  <0> d           6.385  -0.245  -0.707  0.00  0.00    -0.055 C 
ATOM     23  H2  <0> d           6.457  -0.672  -1.707  0.00  0.00     0.033 H 
ATOM     24  H3  <0> d           7.143   0.528  -0.586  0.00  0.00     0.033 H 
ATOM     25  H4  <0> d           6.544  -1.028   0.034  0.00  0.00     0.033 H 
ENDBRANCH   1  22
TORSDOF 4
