REMARK  1 active torsions:
REMARK  status: ('A' for Active; 'I' for Inactive)
REMARK    1  A    between atoms: N1_3  and  C4_6 
ROOT
ATOM      1  C4  <0> d          -0.018   1.468   0.010  0.00  0.00     0.078 C 
ATOM      2  C5  <0> d           0.002  -0.004   0.002  0.00  0.00     0.079 C 
ATOM      3  N3  <0> d           0.018  -1.140  -0.004  0.00  0.00    -0.196 NA
ATOM      4  H4  <0> d          -0.545   1.829  -0.873  0.00  0.00     0.087 H 
ATOM      5  H5  <0> d          -0.528   1.819   0.907  0.00  0.00     0.087 H 
ENDROOT
BRANCH   1   6
ATOM      6  N1  <0> d           1.357   1.975  -0.000  0.00  0.00    -0.337 N 
ATOM      7  C2  <0> d           2.127   2.255   1.096  0.00  0.00    -0.002 A 
ATOM      8  C1  <0> d           3.315   2.691   0.635  0.00  0.00     0.018 A 
ATOM      9  H2  <0> d           1.839   2.145   2.131  0.00  0.00     0.113 H 
ATOM     10  N2  <0> d           3.268   2.687  -0.705  0.00  0.00    -0.255 NA
ATOM     11  H1  <0> d           4.157   2.997   1.240  0.00  0.00     0.117 H 
ATOM     12  C3  <0> d           2.098   2.259  -1.093  0.00  0.00     0.066 A 
ATOM     13  H3  <0> d           1.776   2.149  -2.118  0.00  0.00     0.143 H 
ENDBRANCH   1   6
TORSDOF 1
