REMARK  1 active torsions:
REMARK  status: ('A' for Active; 'I' for Inactive)
REMARK    1  A    between atoms: C2_2  and  C3_3 
ROOT
ATOM      1  C3  <0> d          -1.750   5.159   0.045  0.00  0.00     0.091 A 
ATOM      2  C4  <0> d          -0.388   5.104   0.032  0.00  0.00     0.030 A 
ATOM      3  N1  <0> d          -0.042   3.782   0.022  0.00  0.00    -0.163 N 
ATOM      4  C5  <0> d           1.165   3.145   0.007  0.00  0.00     0.003 A 
ATOM      5  C6  <0> d           1.194   1.789   0.000  0.00  0.00    -0.050 A 
ATOM      6  C7  <0> d          -0.013   1.076   0.008  0.00  0.00     0.022 A 
ATOM      7  N2  <0> d          -1.160   1.712   0.017  0.00  0.00    -0.074 NA
ATOM      8  C8  <0> d          -1.205   3.053   0.029  0.00  0.00     0.733 A 
ATOM      9  N3  <0> d          -2.223   3.900   0.043  0.00  0.00    -0.061 NA
ATOM     10  H4  <0> d           0.290   5.945   0.029  0.00  0.00     0.116 H 
ATOM     11  H5  <0> d           2.084   3.712   0.001  0.00  0.00     0.113 H 
ATOM     12  H6  <0> d           2.138   1.264  -0.011  0.00  0.00     0.087 H 
ATOM     13  H7  <0> d           0.002  -0.004   0.002  0.00  0.00     0.115 H 
ENDROOT
BRANCH   1  14
ATOM     14  C2  <0> d          -2.567   6.391   0.059  0.00  0.00    -0.062 C 
ATOM     15  C1  <0> d          -3.890   6.309   0.071  0.00  0.00    -0.119 C 
ATOM     16  H1  <0> d          -4.498   7.226   0.082  0.00  0.00     0.066 H 
ATOM     17  H2  <0> d          -4.380   5.324   0.070  0.00  0.00     0.066 H 
ATOM     18  H3  <0> d          -2.077   7.376   0.060  0.00  0.00     0.085 H 
ENDBRANCH   1  14
TORSDOF 1
