REMARK  3 active torsions:
REMARK  status: ('A' for Active; 'I' for Inactive)
REMARK    1  A    between atoms: C1_1  and  C2_2 
REMARK    2  A    between atoms: C7_7  and  O1_8 
REMARK    3  A    between atoms: O1_8  and  C8_9 
ROOT
ATOM      1  C8  <0> d           1.248   2.021   0.001  0.00  0.00     0.104 C 
ATOM      2  C9  <0> d           1.035   3.477   0.011  0.00  0.00     0.085 C 
ATOM      3  N1  <0> d           0.871   4.601   0.018  0.00  0.00    -0.195 NA
ATOM      4  H8  <0> d           1.817   1.731   0.884  0.00  0.00     0.097 H 
ATOM      5  H9  <0> d           1.800   1.740  -0.896  0.00  0.00     0.097 H 
ENDROOT
BRANCH   1   6
ATOM      6  O1  <0> d          -0.016   1.355   0.009  0.00  0.00    -0.337 OA
BRANCH   6   7
ATOM      7  C7  <0> d           0.002  -0.004   0.002  0.00  0.00     0.075 A 
ATOM      8  C2  <0> d          -1.189  -0.715   0.010  0.00  0.00    -0.029 A 
ATOM      9  C3  <0> d          -1.167  -2.096   0.002  0.00  0.00    -0.075 A 
ATOM     10  C4  <0> d           0.040  -2.770  -0.013  0.00  0.00    -0.082 A 
ATOM     11  H4  <0> d          -2.095  -2.651   0.007  0.00  0.00     0.084 H 
ATOM     12  C5  <0> d           1.228  -2.064  -0.021  0.00  0.00    -0.080 A 
ATOM     13  H5  <0> d           0.054  -3.850  -0.019  0.00  0.00     0.083 H 
ATOM     14  C6  <0> d           1.212  -0.682  -0.019  0.00  0.00    -0.050 A 
ATOM     15  H6  <0> d           2.170  -2.592  -0.033  0.00  0.00     0.083 H 
ATOM     16  H7  <0> d           2.141  -0.131  -0.030  0.00  0.00     0.087 H 
BRANCH   8  17
ATOM     17  C1  <0> d          -2.505   0.019   0.025  0.00  0.00    -0.049 C 
ATOM     18  H1  <0> d          -2.832   0.201  -0.998  0.00  0.00     0.033 H 
ATOM     19  H2  <0> d          -3.251  -0.584   0.543  0.00  0.00     0.033 H 
ATOM     20  H3  <0> d          -2.384   0.970   0.543  0.00  0.00     0.033 H 
ENDBRANCH   8  17
ENDBRANCH   6   7
ENDBRANCH   1   6
TORSDOF 3
