REMARK  5 active torsions:
REMARK  status: ('A' for Active; 'I' for Inactive)
REMARK    1  A    between atoms: C1_1  and  O1_2 
REMARK    2  A    between atoms: O1_2  and  C2_3 
REMARK    3  A    between atoms: C2_3  and  C3_4 
REMARK    4  A    between atoms: C2_3  and  O2_10 
REMARK    5  A    between atoms: O2_10  and  C6_11 
ROOT
ATOM      1  C2  <0> d           0.864  -0.632   1.381  0.00  0.00     0.187 C 
ATOM      2  H5  <0> d           0.628  -0.304   2.393  0.00  0.00     0.142 H 
ENDROOT
BRANCH   1   3
ATOM      3  O1  <0> d          -0.159  -0.191   0.486  0.00  0.00    -0.359 OA
BRANCH   3   4
ATOM      4  C1  <0> d          -0.631   1.132   0.751  0.00  0.00     0.007 C 
ATOM      5  H2  <0> d           0.158   1.851   0.528  0.00  0.00     0.066 H 
ATOM      6  H3  <0> d          -1.498   1.340   0.124  0.00  0.00     0.066 H 
ATOM      7  H4  <0> d          -0.912   1.215   1.800  0.00  0.00     0.066 H 
ENDBRANCH   3   4
ENDBRANCH   1   3
BRANCH   1   8
ATOM      8  C3  <0> d           0.946  -2.137   1.347  0.00  0.00     0.159 A 
ATOM      9  N2  <0> d          -0.048  -2.947   1.106  0.00  0.00    -0.241 NA
ATOM     10  C5  <0> d           0.393  -4.213   1.154  0.00  0.00     0.019 A 
ATOM     11  C4  <0> d           1.707  -4.187   1.444  0.00  0.00    -0.004 A 
ATOM     12  H7  <0> d          -0.204  -5.099   0.991  0.00  0.00     0.117 H 
ATOM     13  N1  <0> d           2.059  -2.869   1.567  0.00  0.00    -0.349 N 
ATOM     14  H6  <0> d           2.359  -5.040   1.558  0.00  0.00     0.113 H 
ATOM     15  H1  <0> d           2.942  -2.526   1.774  0.00  0.00     0.166 HD
ENDBRANCH   1   8
BRANCH   1  16
ATOM     16  O2  <0> d           2.119  -0.078   0.981  0.00  0.00    -0.359 OA
BRANCH  16  17
ATOM     17  C6  <0> d           2.299   1.288   1.361  0.00  0.00     0.007 C 
ATOM     18  H8  <0> d           1.763   1.933   0.664  0.00  0.00     0.066 H 
ATOM     19  H9  <0> d           1.910   1.439   2.368  0.00  0.00     0.066 H 
ATOM     20  H10 <0> d           3.361   1.534   1.341  0.00  0.00     0.066 H 
ENDBRANCH  16  17
ENDBRANCH   1  16
TORSDOF 5
