REMARK  2 active torsions:
REMARK  status: ('A' for Active; 'I' for Inactive)
REMARK    1  A    between atoms: C1_1  and  C2_2 
REMARK    2  A    between atoms: C2_2  and  C3_3 
REMARK       I    between atoms: C3_3  and  N1_5 
ROOT
ATOM      1  C3  <0> d           2.878   2.027   1.974  0.00  0.00     0.219 C 
ATOM      2  O1  <0> d           3.480   1.473   2.869  0.00  0.00    -0.273 OA
ATOM      3  N1  <0> d           2.162   1.300   1.093  0.00  0.00    -0.348 N 
ATOM      4  C4  <0> d           1.423   1.950  -0.001  0.00  0.00     0.017 C 
ATOM      5  C5  <0> d          -0.017   1.425   0.010  0.00  0.00     0.034 C 
ATOM      6  O2  <0> d           0.002  -0.004   0.002  0.00  0.00    -0.388 OA
ATOM      7  C6  <0> d           0.622  -0.587   1.151  0.00  0.00     0.034 C 
ATOM      8  C7  <0> d           2.095  -0.166   1.198  0.00  0.00     0.017 C 
ATOM      9  H6  <0> d           1.894   1.710  -0.955  0.00  0.00     0.067 H 
ATOM     10  H7  <0> d           1.422   3.030   0.147  0.00  0.00     0.067 H 
ATOM     11  H8  <0> d          -0.543   1.787  -0.874  0.00  0.00     0.076 H 
ATOM     12  H9  <0> d          -0.526   1.778   0.907  0.00  0.00     0.076 H 
ATOM     13  H10 <0> d           0.115  -0.242   2.052  0.00  0.00     0.076 H 
ATOM     14  H11 <0> d           0.555  -1.673   1.088  0.00  0.00     0.076 H 
ATOM     15  H12 <0> d           2.538  -0.487   2.141  0.00  0.00     0.067 H 
ATOM     16  H13 <0> d           2.633  -0.619   0.366  0.00  0.00     0.067 H 
ENDROOT
BRANCH   1  17
ATOM     17  C2  <0> d           2.932   3.527   1.846  0.00  0.00     0.006 C 
ATOM     18  H4  <0> d           3.355   3.794   0.877  0.00  0.00     0.046 H 
ATOM     19  H5  <0> d           1.924   3.935   1.926  0.00  0.00     0.046 H 
BRANCH  17  20
ATOM     20  C1  <0> d           3.805   4.104   2.961  0.00  0.00    -0.068 C 
ATOM     21  H1  <0> d           3.844   5.189   2.869  0.00  0.00     0.028 H 
ATOM     22  H2  <0> d           3.382   3.837   3.929  0.00  0.00     0.028 H 
ATOM     23  H3  <0> d           4.813   3.696   2.881  0.00  0.00     0.028 H 
ENDBRANCH  17  20
ENDBRANCH   1  17
TORSDOF 2
