REMARK  4 active torsions:
REMARK  status: ('A' for Active; 'I' for Inactive)
REMARK    1  A    between atoms: C4_5  and  C5_7 
REMARK    2  A    between atoms: C5_7  and  O2_8 
REMARK    3  A    between atoms: O2_8  and  C6_9 
REMARK    4  A    between atoms: C6_9  and  C7_10 
ROOT
ATOM      1  C1  <0> d          -0.019   1.541   0.011  0.00  0.00    -0.038 C 
ATOM      2  C2  <0> d           1.474   1.937  -0.002  0.00  0.00     0.020 C 
ATOM      3  O1  <0> d           2.163   0.795   0.553  0.00  0.00    -0.391 OA
ATOM      4  C3  <0> d           1.506  -0.359  -0.014  0.00  0.00     0.025 C 
ATOM      5  C4  <0> d           0.002  -0.004   0.002  0.00  0.00    -0.011 C 
ATOM      6  H1  <0> d          -0.473  -0.397   0.900  0.00  0.00     0.046 H 
ATOM      7  H2  <0> d          -0.505   1.911   0.913  0.00  0.00     0.036 H 
ATOM      8  H3  <0> d          -0.522   1.921  -0.879  0.00  0.00     0.036 H 
ATOM      9  H4  <0> d           1.809   2.123  -1.022  0.00  0.00     0.074 H 
ATOM     10  H5  <0> d           1.639   2.817   0.619  0.00  0.00     0.074 H 
ATOM     11  H6  <0> d           1.845  -0.525  -1.037  0.00  0.00     0.075 H 
ATOM     12  H7  <0> d           1.694  -1.242   0.597  0.00  0.00     0.075 H 
ENDROOT
BRANCH   5  13
ATOM     13  C5  <0> d          -0.690  -0.543  -1.252  0.00  0.00     0.025 C 
ATOM     14  H8  <0> d          -1.697  -0.131  -1.317  0.00  0.00     0.075 H 
ATOM     15  H9  <0> d          -0.120  -0.251  -2.135  0.00  0.00     0.075 H 
BRANCH  13  16
ATOM     16  O2  <0> d          -0.761  -1.968  -1.181  0.00  0.00    -0.380 OA
BRANCH  16  17
ATOM     17  C6  <0> d          -1.393  -2.575  -2.310  0.00  0.00     0.099 C 
ATOM     18  H10 <0> d          -2.415  -2.206  -2.397  0.00  0.00     0.091 H 
ATOM     19  H11 <0> d          -0.838  -2.325  -3.215  0.00  0.00     0.091 H 
BRANCH  17  20
ATOM     20  C7  <0> d          -1.413  -4.071  -2.131  0.00  0.00     0.197 C 
ATOM     21  O3  <0> d          -0.931  -4.571  -1.129  0.00  0.00    -0.646 OA
ATOM     22  O4  <0> d          -1.911  -4.781  -2.987  0.00  0.00    -0.646 OA
ENDBRANCH  17  20
ENDBRANCH  16  17
ENDBRANCH  13  16
ENDBRANCH   5  13
TORSDOF 4
