REMARK  1 active torsions:
REMARK  status: ('A' for Active; 'I' for Inactive)
REMARK    1  A    between atoms: C3_3  and  O2_10 
ROOT
ATOM      1  C1  <0> d          -0.017   1.374   0.010  0.00  0.00    -0.078 A 
ATOM      2  C2  <0> d           1.166   2.099   0.002  0.00  0.00    -0.050 A 
ATOM      3  C3  <0> d           2.383   1.444  -0.013  0.00  0.00     0.078 A 
ATOM      4  C4  <0> d           2.413   0.046  -0.021  0.00  0.00     0.033 A 
ATOM      5  C5  <0> d           3.485  -0.957  -0.036  0.00  0.00    -0.046 A 
ATOM      6  C6  <0> d           2.878  -2.151  -0.036  0.00  0.00     0.020 A 
ATOM      7  O1  <0> d           1.543  -1.992  -0.023  0.00  0.00    -0.322 OA
ATOM      8  C7  <0> d           1.214  -0.684  -0.013  0.00  0.00     0.087 A 
ATOM      9  C8  <0> d           0.002  -0.004   0.002  0.00  0.00    -0.049 A 
ATOM     10  H1  <0> d          -0.963   1.895   0.026  0.00  0.00     0.083 H 
ATOM     11  H2  <0> d           1.135   3.179   0.008  0.00  0.00     0.087 H 
ATOM     12  H3  <0> d           4.548  -0.769  -0.045  0.00  0.00     0.087 H 
ATOM     13  H4  <0> d           3.387  -3.103  -0.046  0.00  0.00     0.123 H 
ATOM     14  H5  <0> d          -0.926  -0.556   0.008  0.00  0.00     0.087 H 
ENDROOT
BRANCH   3  15
ATOM     15  O2  <0> d           3.542   2.154  -0.021  0.00  0.00    -0.360 OA
ATOM     16  H6  <0> d           3.886   2.355   0.861  0.00  0.00     0.217 HD
ENDBRANCH   3  15
TORSDOF 1
