REMARK  5 active torsions:
REMARK  status: ('A' for Active; 'I' for Inactive)
REMARK    1  A    between atoms: C1_1  and  C2_2 
REMARK    2  A    between atoms: C2_2  and  C3_3 
REMARK    3  A    between atoms: C2_2  and  C4_4 
REMARK    4  A    between atoms: C5_5  and  C6_9 
REMARK    5  A    between atoms: C6_9  and  O1_10 
ROOT
ATOM      1  C4  <0> d           1.071   3.918   1.064  0.00  0.00     0.077 A 
ATOM      2  C5  <0> d           1.147   3.062   0.008  0.00  0.00     0.053 A 
ATOM      3  S1  <0> d           1.032   4.166  -1.323  0.00  0.00     0.034 SA
ATOM      4  N1  <0> d           0.914   5.519  -0.518  0.00  0.00    -0.110 NA
ATOM      5  N2  <0> d           0.957   5.184   0.722  0.00  0.00    -0.146 NA
ENDROOT
BRANCH   1   6
ATOM      6  C2  <0> d           1.120   3.457   2.498  0.00  0.00    -0.016 C 
ATOM      7  H4  <0> d           1.220   2.372   2.527  0.00  0.00     0.048 H 
BRANCH   6   8
ATOM      8  C1  <0> d           2.317   4.100   3.200  0.00  0.00    -0.068 C 
ATOM      9  H1  <0> d           2.216   5.185   3.171  0.00  0.00     0.028 H 
ATOM     10  H2  <0> d           2.352   3.766   4.237  0.00  0.00     0.028 H 
ATOM     11  H3  <0> d           3.236   3.806   2.693  0.00  0.00     0.028 H 
ENDBRANCH   6   8
BRANCH   6  12
ATOM     12  C3  <0> d          -0.171   3.869   3.209  0.00  0.00    -0.068 C 
ATOM     13  H5  <0> d          -1.024   3.411   2.709  0.00  0.00     0.028 H 
ATOM     14  H6  <0> d          -0.136   3.535   4.247  0.00  0.00     0.028 H 
ATOM     15  H7  <0> d          -0.272   4.954   3.180  0.00  0.00     0.028 H 
ENDBRANCH   6  12
ENDBRANCH   1   6
BRANCH   2  16
ATOM     16  C6  <0> d           1.286   1.562  -0.002  0.00  0.00     0.050 C 
ATOM     17  H8  <0> d           1.840   1.243   0.881  0.00  0.00     0.082 H 
ATOM     18  H9  <0> d           1.823   1.252  -0.899  0.00  0.00     0.082 H 
BRANCH  16  19
ATOM     19  O1  <0> d          -0.011   0.963   0.007  0.00  0.00    -0.396 OA
ATOM     20  H10 <0> d           0.002  -0.004   0.002  0.00  0.00     0.209 HD
ENDBRANCH  16  19
ENDBRANCH   2  16
TORSDOF 5
