REMARK  2 active torsions:
REMARK  status: ('A' for Active; 'I' for Inactive)
REMARK    1  A    between atoms: C2_2  and  C6_10 
REMARK    2  A    between atoms: C6_10  and  O3_11 
ROOT
ATOM      1  C1  <0> d          -0.013   1.076   0.008  0.00  0.00    -0.033 C 
ATOM      2  C2  <0> d          -1.336   1.784   0.031  0.00  0.00     0.141 C 
ATOM      3  H1  <0> d          -1.728   1.839  -0.985  0.00  0.00     0.094 H 
ATOM      4  N1  <0> d          -1.210   3.140   0.570  0.00  0.00    -0.059 N 
ATOM      5  C3  <0> d          -0.206   3.890  -0.205  0.00  0.00     0.143 C 
ATOM      6  C4  <0> d           1.132   3.211   0.010  0.00  0.00     0.210 C 
ATOM      7  C5  <0> d           1.147   1.737   0.000  0.00  0.00     0.152 C 
ATOM      8  O1  <0> d           2.327   1.060  -0.021  0.00  0.00    -0.188 OA
ATOM      9  O2  <0> d           2.146   3.853   0.188  0.00  0.00    -0.288 OA
ATOM     10  H2  <0> d           0.002  -0.004   0.002  0.00  0.00     0.084 H 
ATOM     11  H3  <0> d          -2.100   3.610   0.510  0.00  0.00     0.278 HD
ATOM     12  H4  <0> d          -0.466   3.870  -1.264  0.00  0.00     0.088 H 
ATOM     13  H5  <0> d          -0.161   4.920   0.146  0.00  0.00     0.088 H 
ATOM     14  H9  <0> d          -0.920   3.091   1.536  0.00  0.00     0.278 HD
ENDROOT
BRANCH   2  15
ATOM     15  C6  <0> d          -2.313   0.990   0.900  0.00  0.00     0.046 C 
ATOM     16  H6  <0> d          -3.248   1.542   0.994  0.00  0.00     0.077 H 
ATOM     17  H7  <0> d          -2.507   0.022   0.438  0.00  0.00     0.077 H 
BRANCH  15  18
ATOM     18  O3  <0> d          -1.745   0.792   2.196  0.00  0.00    -0.398 OA
ATOM     19  H8  <0> d          -2.311   0.295   2.802  0.00  0.00     0.209 HD
ENDBRANCH  15  18
ENDBRANCH   2  15
TORSDOF 2
