REMARK  4 active torsions:
REMARK  status: ('A' for Active; 'I' for Inactive)
REMARK    1  A    between atoms: C1_1  and  C2_2 
REMARK    2  A    between atoms: C5_6  and  C8_12 
REMARK    3  A    between atoms: C7_9  and  O1_11 
REMARK    4  A    between atoms: C8_12  and  C10_14 
ROOT
ATOM      1  C2  <0> d          -0.729   1.579   1.267  0.00  0.00    -0.033 C 
ATOM      2  H1  <0> d          -0.744   2.669   1.273  0.00  0.00     0.043 H 
ATOM      3  C3  <0> d           0.011   1.072   2.506  0.00  0.00    -0.059 C 
ATOM      4  C4  <0> d           1.446   1.602   2.495  0.00  0.00    -0.058 C 
ATOM      5  C5  <0> d           2.163   1.109   1.237  0.00  0.00    -0.031 C 
ATOM      6  H2  <0> d           2.178   0.019   1.231  0.00  0.00     0.047 H 
ATOM      7  C6  <0> d           1.423   1.615  -0.003  0.00  0.00    -0.034 C 
ATOM      8  C7  <0> d          -0.013   1.086   0.008  0.00  0.00     0.039 C 
ATOM      9  H3  <0> d           0.002  -0.004   0.002  0.00  0.00     0.083 H 
ATOM     10  H7  <0> d           0.026  -0.018   2.500  0.00  0.00     0.033 H 
ATOM     11  H8  <0> d          -0.499   1.424   3.403  0.00  0.00     0.033 H 
ATOM     12  H9  <0> d           1.974   1.241   3.378  0.00  0.00     0.034 H 
ATOM     13  H10 <0> d           1.432   2.692   2.502  0.00  0.00     0.034 H 
ATOM     14  H11 <0> d           1.933   1.264  -0.900  0.00  0.00     0.037 H 
ATOM     15  H12 <0> d           1.408   2.705   0.003  0.00  0.00     0.037 H 
ENDROOT
BRANCH   5  16
ATOM     16  C8  <0> d           3.576   1.630   1.226  0.00  0.00    -0.089 C 
ATOM     17  C9  <0> d           4.584   0.792   1.212  0.00  0.00    -0.119 C 
ATOM     18  H14 <0> d           5.597   1.166   1.204  0.00  0.00     0.067 H 
ATOM     19  H15 <0> d           4.401  -0.272   1.208  0.00  0.00     0.067 H 
BRANCH  16  20
ATOM     20  C10 <0> d           3.832   3.115   1.232  0.00  0.00    -0.055 C 
ATOM     21  H16 <0> d           3.395   3.556   2.128  0.00  0.00     0.033 H 
ATOM     22  H17 <0> d           4.906   3.300   1.222  0.00  0.00     0.033 H 
ATOM     23  H18 <0> d           3.378   3.565   0.348  0.00  0.00     0.033 H 
ENDBRANCH  16  20
ENDBRANCH   5  16
BRANCH   8  24
ATOM     24  O1  <0> d          -0.704   1.559  -1.150  0.00  0.00    -0.395 OA
ATOM     25  H13 <0> d          -0.304   1.284  -1.986  0.00  0.00     0.210 HD
ENDBRANCH   8  24
BRANCH   1  26
ATOM     26  C1  <0> d          -2.164   1.050   1.278  0.00  0.00    -0.071 C 
ATOM     27  H4  <0> d          -2.149  -0.040   1.272  0.00  0.00     0.028 H 
ATOM     28  H5  <0> d          -2.674   1.401   2.175  0.00  0.00     0.028 H 
ATOM     29  H6  <0> d          -2.691   1.411   0.395  0.00  0.00     0.028 H 
ENDBRANCH   1  26
TORSDOF 4
