REMARK  2 active torsions:
REMARK  status: ('A' for Active; 'I' for Inactive)
REMARK    1  A    between atoms: C1_1  and  C2_2 
REMARK    2  A    between atoms: C4_5  and  N1_10 
ROOT
ATOM      1  C2  <0> d           0.002  -0.004   0.002  0.00  0.00     0.047 C 
ATOM      2  H1  <0> d          -1.013  -0.400   0.022  0.00  0.00     0.083 H 
ATOM      3  C3  <0> d           0.766  -0.530  -1.237  0.00  0.00    -0.003 C 
ATOM      4  C4  <0> d           1.538  -1.742  -0.663  0.00  0.00     0.215 C 
ATOM      5  H2  <0> d           1.239  -2.661  -1.167  0.00  0.00     0.104 H 
ATOM      6  C5  <0> d           1.122  -1.775   0.799  0.00  0.00     0.292 C 
ATOM      7  O1  <0> d           1.110  -2.738   1.529  0.00  0.00    -0.263 OA
ATOM      8  O2  <0> d           0.764  -0.507   1.121  0.00  0.00    -0.315 OA
ATOM      9  H6  <0> d           0.071  -0.847  -2.015  0.00  0.00     0.040 H 
ATOM     10  H7  <0> d           1.455   0.224  -1.617  0.00  0.00     0.040 H 
ENDROOT
BRANCH   1  11
ATOM     11  C1  <0> d          -0.019   1.526   0.010  0.00  0.00    -0.051 C 
ATOM     12  H3  <0> d           1.004   1.903   0.003  0.00  0.00     0.030 H 
ATOM     13  H4  <0> d          -0.546   1.887  -0.873  0.00  0.00     0.030 H 
ATOM     14  H5  <0> d          -0.529   1.877   0.907  0.00  0.00     0.030 H 
ENDBRANCH   1  11
BRANCH   4  15
ATOM     15  N1  <0> d           2.987  -1.536  -0.786  0.00  0.00     0.092 N 
ATOM     16  H8  <0> d           3.498  -2.323  -0.413  0.00  0.00     0.313 HD
ATOM     17  H9  <0> d           3.248  -1.358  -1.744  0.00  0.00     0.313 HD
ENDBRANCH   4  15
TORSDOF 2
