REMARK  5 active torsions:
REMARK  status: ('A' for Active; 'I' for Inactive)
REMARK    1  A    between atoms: C1_1  and  C2_2 
REMARK    2  A    between atoms: C1_1  and  O5_14 
REMARK    3  A    between atoms: C3_4  and  O4_13 
REMARK    4  A    between atoms: C4_6  and  O3_12 
REMARK    5  A    between atoms: C5_8  and  O2_11 
ROOT
ATOM      1  C2  <0> d           3.042   2.212   1.328  0.00  0.00     0.089 C 
ATOM      2  H1  <0> d           3.866   2.003   0.646  0.00  0.00     0.090 H 
ATOM      3  C3  <0> d           2.350   3.538   0.945  0.00  0.00     0.092 C 
ATOM      4  H2  <0> d           1.987   4.051   1.835  0.00  0.00     0.091 H 
ATOM      5  C4  <0> d           1.168   3.101   0.047  0.00  0.00     0.110 C 
ATOM      6  H3  <0> d           1.269   3.524  -0.953  0.00  0.00     0.094 H 
ATOM      7  C5  <0> d           1.286   1.562  -0.002  0.00  0.00     0.156 C 
ATOM      8  H4  <0> d           1.841   1.251  -0.888  0.00  0.00     0.133 H 
ATOM      9  O1  <0> d           2.012   1.207   1.195  0.00  0.00    -0.349 OA
ENDROOT
BRANCH   1  10
ATOM     10  C1  <0> d           3.545   2.271   2.771  0.00  0.00     0.043 C 
ATOM     11  H5  <0> d           4.236   3.107   2.881  0.00  0.00     0.078 H 
ATOM     12  H6  <0> d           2.700   2.407   3.446  0.00  0.00     0.078 H 
BRANCH  10  13
ATOM     13  O5  <0> d           4.218   1.052   3.091  0.00  0.00    -0.398 OA
ATOM     14  H10 <0> d           4.565   1.019   3.994  0.00  0.00     0.209 HD
ENDBRANCH  10  13
ENDBRANCH   1  10
BRANCH   3  15
ATOM     15  O4  <0> d           3.246   4.378   0.215  0.00  0.00    -0.390 OA
ATOM     16  H9  <0> d           2.863   5.225  -0.051  0.00  0.00     0.210 HD
ENDBRANCH   3  15
BRANCH   7  17
ATOM     17  O2  <0> d          -0.011   0.963   0.007  0.00  0.00    -0.369 OA
ATOM     18  H7  <0> d           0.002  -0.004   0.002  0.00  0.00     0.212 HD
ENDBRANCH   7  17
BRANCH   5  19
ATOM     19  O3  <0> d          -0.076   3.490   0.633  0.00  0.00    -0.388 OA
ATOM     20  H8  <0> d          -0.853   3.187   0.143  0.00  0.00     0.210 HD
ENDBRANCH   5  19
TORSDOF 5
