REMARK  2 active torsions:
REMARK  status: ('A' for Active; 'I' for Inactive)
REMARK    1  A    between atoms: C1_1  and  N1_2 
REMARK    2  A    between atoms: C7_9  and  N4_11 
ROOT
ATOM      1  N1  <0> d          -0.205   5.151   0.029  0.00  0.00    -0.254 N 
ATOM      2  C2  <0> d           0.066   3.810   0.021  0.00  0.00     0.159 A 
ATOM      3  C3  <0> d          -1.177   3.147   0.029  0.00  0.00     0.059 A 
ATOM      4  C4  <0> d          -1.207   1.749   0.017  0.00  0.00    -0.064 A 
ATOM      5  C5  <0> d          -0.013   1.076   0.008  0.00  0.00    -0.065 A 
ATOM      6  C6  <0> d           1.177   1.790   0.000  0.00  0.00     0.004 A 
ATOM      7  N2  <0> d           1.191   3.105   0.006  0.00  0.00    -0.241 NA
ATOM      8  C7  <0> d          -2.203   4.190   0.043  0.00  0.00     0.155 A 
ATOM      9  N3  <0> d          -1.590   5.344   0.043  0.00  0.00    -0.152 NA
ATOM     10  H4  <0> d          -2.145   1.214   0.019  0.00  0.00     0.085 H 
ATOM     11  H5  <0> d           0.002  -0.004   0.002  0.00  0.00     0.085 H 
ATOM     12  H6  <0> d           2.114   1.252  -0.011  0.00  0.00     0.114 H 
ENDROOT
BRANCH   1  13
ATOM     13  C1  <0> d           0.799   6.218   0.025  0.00  0.00     0.004 C 
ATOM     14  H1  <0> d           1.039   6.487  -1.004  0.00  0.00     0.059 H 
ATOM     15  H2  <0> d           0.404   7.090   0.546  0.00  0.00     0.059 H 
ATOM     16  H3  <0> d           1.701   5.871   0.529  0.00  0.00     0.059 H 
ENDBRANCH   1  13
BRANCH   8  17
ATOM     17  N4  <0> d          -3.585   3.989   0.056  0.00  0.00    -0.382 N 
ATOM     18  H7  <0> d          -3.944   3.088   0.055  0.00  0.00     0.157 HD
ATOM     19  H8  <0> d          -4.186   4.751   0.065  0.00  0.00     0.157 HD
ENDBRANCH   8  17
TORSDOF 2
