REMARK  0 active torsions:
REMARK  status: ('A' for Active; 'I' for Inactive)
ROOT
ATOM      1  C1  <0> d           2.381   1.414  -0.012  0.00  0.00    -0.081 A 
ATOM      2  C2  <0> d           1.173   2.087   0.002  0.00  0.00    -0.081 A 
ATOM      3  C3  <0> d          -0.017   1.381   0.010  0.00  0.00    -0.055 A 
ATOM      4  C4  <0> d           0.002  -0.004   0.002  0.00  0.00     0.054 A 
ATOM      5  C5  <0> d           1.220  -0.682  -0.014  0.00  0.00     0.054 A 
ATOM      6  C6  <0> d           2.408   0.031  -0.020  0.00  0.00    -0.055 A 
ATOM      7  N1  <0> d           1.238  -2.085  -0.025  0.00  0.00    -0.387 N 
ATOM      8  C7  <0> d           0.016  -2.811   0.350  0.00  0.00     0.007 C 
ATOM      9  C8  <0> d          -1.173  -2.150  -0.362  0.00  0.00     0.007 C 
ATOM     10  N2  <0> d          -1.199  -0.728   0.012  0.00  0.00    -0.387 N 
ATOM     11  H1  <0> d           3.307   1.970  -0.018  0.00  0.00     0.083 H 
ATOM     12  H2  <0> d           1.159   3.167   0.007  0.00  0.00     0.083 H 
ATOM     13  H3  <0> d          -0.959   1.910   0.017  0.00  0.00     0.087 H 
ATOM     14  H4  <0> d           3.353  -0.491  -0.031  0.00  0.00     0.087 H 
ATOM     15  H5  <0> d           2.144  -2.641  -0.307  0.00  0.00     0.159 HD
ATOM     16  H6  <0> d           0.104  -3.863   0.039  0.00  0.00     0.066 H 
ATOM     17  H7  <0> d          -0.121  -2.761   1.440  0.00  0.00     0.066 H 
ATOM     18  H8  <0> d          -1.052  -2.252  -1.450  0.00  0.00     0.066 H 
ATOM     19  H9  <0> d          -2.107  -2.640  -0.049  0.00  0.00     0.066 H 
ATOM     20  H10 <0> d          -2.150  -0.250   0.293  0.00  0.00     0.159 HD
ENDROOT
TORSDOF 0
