REMARK  4 active torsions:
REMARK  status: ('A' for Active; 'I' for Inactive)
REMARK    1  A    between atoms: C1_1  and  C2_2 
REMARK    2  A    between atoms: C2_2  and  C3_3 
REMARK    3  A    between atoms: C4_5  and  C6_10 
REMARK    4  A    between atoms: C5_8  and  N3_9 
ROOT
ATOM      1  C3  <0> d           0.763  -0.381  -1.270  0.00  0.00     0.042 A 
ATOM      2  H1  <0> d           1.756   0.068  -1.268  0.00  0.00     0.061 H 
ATOM      3  C4  <0> d           0.857  -1.887  -1.411  0.00  0.00     0.040 A 
ATOM      4  N1  <0> d           0.244  -2.184  -2.508  0.00  0.00    -0.182 NA
ATOM      5  N2  <0> d          -0.269  -1.063  -3.152  0.00  0.00    -0.266 N 
ATOM      6  C5  <0> d          -0.012   0.042  -2.502  0.00  0.00     0.101 A 
ATOM      7  H12 <0> d          -0.758  -1.097  -3.989  0.00  0.00     0.190 HD
ENDROOT
BRANCH   1   8
ATOM      8  C2  <0> d           0.000  -0.005   0.002  0.00  0.00    -0.054 C 
ATOM      9  H5  <0> d          -0.920  -0.586   0.060  0.00  0.00     0.034 H 
ATOM     10  H6  <0> d          -0.242   1.058  -0.021  0.00  0.00     0.034 H 
BRANCH   8  11
ATOM     11  C1  <0> d           0.870  -0.303   1.225  0.00  0.00    -0.075 C 
ATOM     12  H2  <0> d           1.017  -1.380   1.312  0.00  0.00     0.027 H 
ATOM     13  H3  <0> d           1.837   0.188   1.112  0.00  0.00     0.027 H 
ATOM     14  H4  <0> d           0.376   0.070   2.122  0.00  0.00     0.027 H 
ENDBRANCH   8  11
ENDBRANCH   1   8
BRANCH   6  15
ATOM     15  N3  <0> d          -0.369   1.315  -2.857  0.00  0.00    -0.387 N 
ATOM     16  H7  <0> d          -0.061   2.069  -2.331  0.00  0.00     0.157 HD
ATOM     17  H8  <0> d          -0.930   1.462  -3.634  0.00  0.00     0.157 HD
ENDBRANCH   6  15
BRANCH   3  18
ATOM     18  C6  <0> d           1.530  -2.845  -0.462  0.00  0.00    -0.037 C 
ATOM     19  H9  <0> d           0.813  -3.179   0.287  0.00  0.00     0.035 H 
ATOM     20  H10 <0> d           1.903  -3.705  -1.018  0.00  0.00     0.035 H 
ATOM     21  H11 <0> d           2.363  -2.343   0.031  0.00  0.00     0.035 H 
ENDBRANCH   3  18
TORSDOF 4
