REMARK  2 active torsions:
REMARK  status: ('A' for Active; 'I' for Inactive)
REMARK    1  A    between atoms: C1_1  and  C2_2 
REMARK    2  A    between atoms: C5_8  and  N6_12 
ROOT
ATOM      1  C2  <0> d           4.369   0.566  -0.037  0.00  0.00     0.102 A 
ATOM      2  N1  <0> d           3.575  -0.540  -0.035  0.00  0.00    -0.326 N 
ATOM      3  H1  <0> d           3.886  -1.491  -0.043  0.00  0.00     0.169 HD
ATOM      4  C3  <0> d           2.273  -0.113  -0.020  0.00  0.00     0.185 A 
ATOM      5  C4  <0> d           2.328   1.294  -0.013  0.00  0.00     0.153 A 
ATOM      6  N2  <0> d           3.634   1.642  -0.024  0.00  0.00    -0.228 NA
ATOM      7  C5  <0> d           1.108   1.991   0.002  0.00  0.00     0.178 A 
ATOM      8  N3  <0> d          -0.015   1.279   0.009  0.00  0.00    -0.110 NA
ATOM      9  N4  <0> d           0.002  -0.004   0.002  0.00  0.00    -0.039 NA
ATOM     10  N5  <0> d           1.083  -0.701  -0.012  0.00  0.00    -0.109 NA
ENDROOT
BRANCH   1  11
ATOM     11  C1  <0> d           5.876   0.549  -0.051  0.00  0.00    -0.021 C 
ATOM     12  H2  <0> d           6.230   0.551  -1.082  0.00  0.00     0.037 H 
ATOM     13  H3  <0> d           6.254   1.433   0.464  0.00  0.00     0.037 H 
ATOM     14  H4  <0> d           6.234  -0.347   0.455  0.00  0.00     0.037 H 
ENDBRANCH   1  11
BRANCH   7  15
ATOM     15  N6  <0> d           1.076   3.376   0.009  0.00  0.00    -0.381 N 
ATOM     16  H5  <0> d           0.225   3.841   0.020  0.00  0.00     0.157 HD
ATOM     17  H6  <0> d           1.904   3.880   0.004  0.00  0.00     0.157 HD
ENDBRANCH   7  15
TORSDOF 2
