REMARK  3 active torsions:
REMARK  status: ('A' for Active; 'I' for Inactive)
REMARK    1  A    between atoms: C1_1  and  C2_2 
REMARK    2  A    between atoms: C6_6  and  C8_9 
REMARK    3  A    between atoms: C7_7  and  N1_8 
ROOT
ATOM      1  C2  <0> d           2.333  -0.107  -0.009  0.00  0.00    -0.035 A 
ATOM      2  C3  <0> d           1.080  -0.683  -0.022  0.00  0.00    -0.075 A 
ATOM      3  C4  <0> d          -0.057   0.110  -0.019  0.00  0.00    -0.081 A 
ATOM      4  C5  <0> d           0.052   1.483  -0.003  0.00  0.00    -0.064 A 
ATOM      5  C6  <0> d           1.314   2.082   0.011  0.00  0.00     0.067 A 
ATOM      6  C7  <0> d           2.464   1.276   0.008  0.00  0.00     0.049 A 
ATOM      7  H4  <0> d           0.983  -1.759  -0.035  0.00  0.00     0.084 H 
ATOM      8  H5  <0> d          -1.034  -0.352  -0.030  0.00  0.00     0.083 H 
ATOM      9  H6  <0> d          -0.838   2.096  -0.005  0.00  0.00     0.085 H 
ENDROOT
BRANCH   1  10
ATOM     10  C1  <0> d           3.562  -0.979  -0.013  0.00  0.00    -0.049 C 
ATOM     11  H1  <0> d           3.864  -1.178  -1.041  0.00  0.00     0.033 H 
ATOM     12  H2  <0> d           4.371  -0.470   0.511  0.00  0.00     0.033 H 
ATOM     13  H3  <0> d           3.341  -1.921   0.489  0.00  0.00     0.033 H 
ENDBRANCH   1  10
BRANCH   6  14
ATOM     14  N1  <0> d           3.725   1.857   0.022  0.00  0.00    -0.398 N 
ATOM     15  H7  <0> d           4.515   1.301   0.101  0.00  0.00     0.156 HD
ATOM     16  H8  <0> d           3.815   2.821  -0.046  0.00  0.00     0.156 HD
ENDBRANCH   6  14
BRANCH   5  17
ATOM     17  C8  <0> d           1.438   3.550   0.028  0.00  0.00     0.211 C 
ATOM     18  O1  <0> d           2.533   4.068  -0.068  0.00  0.00    -0.644 OA
ATOM     19  O2  <0> d           0.337   4.317   0.149  0.00  0.00    -0.644 OA
ENDBRANCH   5  17
TORSDOF 3
