REMARK  4 active torsions:
REMARK  status: ('A' for Active; 'I' for Inactive)
REMARK    1  A    between atoms: C1_1  and  C2_2 
REMARK    2  A    between atoms: C5_5  and  C6_7 
REMARK    3  A    between atoms: C6_7  and  O3_9 
REMARK    4  A    between atoms: O3_9  and  C7_10 
ROOT
ATOM      1  C2  <0> d           1.241   1.807  -0.000  0.00  0.00     0.050 A 
ATOM      2  C3  <0> d           2.090   0.755  -0.014  0.00  0.00    -0.052 A 
ATOM      3  C4  <0> d           1.307  -0.409  -0.013  0.00  0.00    -0.042 A 
ATOM      4  C5  <0> d           0.002  -0.004   0.002  0.00  0.00     0.150 A 
ATOM      5  O1  <0> d          -0.016   1.345   0.009  0.00  0.00    -0.309 OA
ATOM      6  H4  <0> d           3.169   0.803  -0.024  0.00  0.00     0.087 H 
ATOM      7  H5  <0> d           1.666  -1.427  -0.021  0.00  0.00     0.088 H 
ENDROOT
BRANCH   4   8
ATOM      8  C6  <0> d          -1.171  -0.881   0.009  0.00  0.00     0.316 C 
ATOM      9  O2  <0> d          -1.028  -2.089   0.002  0.00  0.00    -0.257 OA
BRANCH   8  10
ATOM     10  O3  <0> d          -2.411  -0.349   0.024  0.00  0.00    -0.321 OA
BRANCH  10  11
ATOM     11  C7  <0> d          -3.527  -1.278   0.030  0.00  0.00     0.013 C 
ATOM     12  H6  <0> d          -3.486  -1.901  -0.864  0.00  0.00     0.067 H 
ATOM     13  H7  <0> d          -3.469  -1.910   0.916  0.00  0.00     0.067 H 
ATOM     14  H8  <0> d          -4.463  -0.721   0.042  0.00  0.00     0.067 H 
ENDBRANCH  10  11
ENDBRANCH   8  10
ENDBRANCH   4   8
BRANCH   1  15
ATOM     15  C1  <0> d           1.642   3.259   0.003  0.00  0.00    -0.031 C 
ATOM     16  H1  <0> d           0.749   3.883   0.015  0.00  0.00     0.036 H 
ATOM     17  H2  <0> d           2.243   3.468   0.889  0.00  0.00     0.036 H 
ATOM     18  H3  <0> d           2.226   3.477  -0.891  0.00  0.00     0.036 H 
ENDBRANCH   1  15
TORSDOF 4
