REMARK  2 active torsions:
REMARK  status: ('A' for Active; 'I' for Inactive)
REMARK    1  A    between atoms: C1_1  and  C2_2 
REMARK    2  A    between atoms: C2_2  and  C7_13 
ROOT
ATOM      1  C2  <0> d           0.002  -0.004   0.002  0.00  0.00     0.158 C 
ATOM      2  O1  <0> d          -0.018   1.453   0.010  0.00  0.00    -0.345 OA
ATOM      3  C3  <0> d           1.330   1.817  -0.001  0.00  0.00     0.097 C 
ATOM      4  H1  <0> d           1.728   1.728  -1.012  0.00  0.00     0.091 H 
ATOM      5  C4  <0> d           1.985   2.986   0.686  0.00  0.00     0.056 C 
ATOM      6  O2  <0> d           3.270   2.449   1.179  0.00  0.00    -0.317 OA
ATOM      7  C5  <0> d           3.340   1.103   0.923  0.00  0.00     0.290 C 
ATOM      8  O3  <0> d           4.330   0.431   0.752  0.00  0.00    -0.262 OA
ATOM      9  C6  <0> d           1.924   0.661   0.904  0.00  0.00     0.152 C 
ATOM     10  H2  <0> d           1.500   0.712   1.907  0.00  0.00     0.103 H 
ATOM     11  O4  <0> d           1.385  -0.431   0.205  0.00  0.00    -0.338 OA
ATOM     12  H6  <0> d           1.370   3.327   1.518  0.00  0.00     0.079 H 
ATOM     13  H7  <0> d           2.157   3.798  -0.020  0.00  0.00     0.079 H 
ENDROOT
BRANCH   1  14
ATOM     14  C1  <0> d          -0.877  -0.541   1.133  0.00  0.00    -0.025 C 
ATOM     15  H3  <0> d          -1.901  -0.194   0.993  0.00  0.00     0.035 H 
ATOM     16  H4  <0> d          -0.859  -1.631   1.122  0.00  0.00     0.035 H 
ATOM     17  H5  <0> d          -0.499  -0.181   2.090  0.00  0.00     0.035 H 
ENDBRANCH   1  14
BRANCH   1  18
ATOM     18  C7  <0> d          -0.508  -0.522  -1.344  0.00  0.00    -0.025 C 
ATOM     19  H8  <0> d           0.131  -0.149  -2.143  0.00  0.00     0.035 H 
ATOM     20  H9  <0> d          -0.491  -1.612  -1.344  0.00  0.00     0.035 H 
ATOM     21  H10 <0> d          -1.529  -0.175  -1.504  0.00  0.00     0.035 H 
ENDBRANCH   1  18
TORSDOF 2
