REMARK  1 active torsions:
REMARK  status: ('A' for Active; 'I' for Inactive)
REMARK    1  A    between atoms: C1_1  and  C2_2 
ROOT
ATOM      1  C2  <0> d           2.392   0.018  -0.021  0.00  0.00    -0.039 A 
ATOM      2  C3  <0> d           1.222  -0.680  -0.013  0.00  0.00    -0.048 A 
ATOM      3  C4  <0> d           0.002  -0.004   0.002  0.00  0.00     0.062 A 
ATOM      4  C5  <0> d          -0.017   1.406   0.010  0.00  0.00     0.013 A 
ATOM      5  C6  <0> d           1.184   2.116   0.002  0.00  0.00    -0.049 A 
ATOM      6  C7  <0> d           2.388   1.421  -0.013  0.00  0.00     0.051 A 
ATOM      7  C8  <0> d           3.627   2.139  -0.022  0.00  0.00     0.100 C 
ATOM      8  N1  <0> d           4.610   2.709  -0.028  0.00  0.00    -0.191 NA
ATOM      9  C9  <0> d          -1.424   1.796   0.031  0.00  0.00     0.034 A 
ATOM     10  N2  <0> d          -2.138   0.707   0.027  0.00  0.00    -0.186 NA
ATOM     11  N3  <0> d          -1.304  -0.415   0.013  0.00  0.00    -0.278 N 
ATOM     12  H1  <0> d          -1.612  -1.366   0.011  0.00  0.00     0.189 HD
ATOM     13  H5  <0> d           1.239  -1.760  -0.020  0.00  0.00     0.087 H 
ATOM     14  H6  <0> d           1.179   3.196   0.008  0.00  0.00     0.087 H 
ATOM     15  H7  <0> d          -1.804   2.807   0.042  0.00  0.00     0.118 H 
ENDROOT
BRANCH   1  16
ATOM     16  C1  <0> d           3.703  -0.724  -0.038  0.00  0.00    -0.050 C 
ATOM     17  H2  <0> d           4.009  -0.897  -1.069  0.00  0.00     0.033 H 
ATOM     18  H3  <0> d           4.463  -0.132   0.472  0.00  0.00     0.033 H 
ATOM     19  H4  <0> d           3.586  -1.681   0.472  0.00  0.00     0.033 H 
ENDBRANCH   1  16
TORSDOF 1
