REMARK  3 active torsions:
REMARK  status: ('A' for Active; 'I' for Inactive)
REMARK    1  A    between atoms: C1_1  and  C2_2 
REMARK    2  A    between atoms: C2_2  and  C9_13 
REMARK    3  A    between atoms: C8_10  and  O1_12 
ROOT
ATOM      1  C2  <0> d          -0.534   3.159  -1.220  0.00  0.00    -0.044 C 
ATOM      2  C3  <0> d          -1.285   3.628   0.046  0.00  0.00    -0.053 C 
ATOM      3  C4  <0> d          -1.941   2.334   0.618  0.00  0.00    -0.028 C 
ATOM      4  H1  <0> d          -2.777   2.485   1.300  0.00  0.00     0.043 H 
ATOM      5  C5  <0> d          -2.263   1.541  -0.719  0.00  0.00    -0.055 C 
ATOM      6  C6  <0> d          -0.806   1.626  -1.295  0.00  0.00    -0.045 C 
ATOM      7  H2  <0> d          -0.645   1.160  -2.268  0.00  0.00     0.041 H 
ATOM      8  C7  <0> d           0.009   1.026  -0.109  0.00  0.00    -0.037 C 
ATOM      9  C8  <0> d          -0.752   1.478   1.159  0.00  0.00     0.039 C 
ATOM     10  H3  <0> d          -0.112   2.100   1.785  0.00  0.00     0.083 H 
ATOM     11  H7  <0> d          -0.587   4.051   0.768  0.00  0.00     0.034 H 
ATOM     12  H8  <0> d          -2.050   4.360  -0.215  0.00  0.00     0.034 H 
ATOM     13  H9  <0> d          -2.981   2.074  -1.342  0.00  0.00     0.034 H 
ATOM     14  H10 <0> d          -2.572   0.511  -0.537  0.00  0.00     0.034 H 
ATOM     15  H11 <0> d           0.029  -0.062  -0.173  0.00  0.00     0.037 H 
ATOM     16  H12 <0> d           1.024   1.425  -0.105  0.00  0.00     0.037 H 
ENDROOT
BRANCH   1  17
ATOM     17  C1  <0> d           0.966   3.429  -1.081  0.00  0.00    -0.069 C 
ATOM     18  H4  <0> d           1.505   2.895  -1.864  0.00  0.00     0.028 H 
ATOM     19  H5  <0> d           1.153   4.498  -1.175  0.00  0.00     0.028 H 
ATOM     20  H6  <0> d           1.308   3.084  -0.105  0.00  0.00     0.028 H 
ENDBRANCH   1  17
BRANCH   1  21
ATOM     21  C9  <0> d          -1.087   3.861  -2.462  0.00  0.00    -0.069 C 
ATOM     22  H14 <0> d          -2.163   3.694  -2.525  0.00  0.00     0.028 H 
ATOM     23  H15 <0> d          -0.889   4.930  -2.394  0.00  0.00     0.028 H 
ATOM     24  H16 <0> d          -0.605   3.457  -3.353  0.00  0.00     0.028 H 
ENDBRANCH   1  21
BRANCH   9  25
ATOM     25  O1  <0> d          -1.216   0.343   1.892  0.00  0.00    -0.395 OA
ATOM     26  H13 <0> d          -0.510  -0.238   2.207  0.00  0.00     0.210 HD
ENDBRANCH   9  25
TORSDOF 3
