REMARK  2 active torsions:
REMARK  status: ('A' for Active; 'I' for Inactive)
REMARK    1  A    between atoms: C1_1  and  N1_2 
REMARK    2  A    between atoms: N1_2  and  C2_3 
ROOT
ATOM      1  C2  <0> d          -2.465   3.875   0.044  0.00  0.00     0.038 A 
ATOM      2  C3  <0> d          -3.644   3.161   0.036  0.00  0.00    -0.057 A 
ATOM      3  C4  <0> d          -3.633   1.769   0.028  0.00  0.00    -0.080 A 
ATOM      4  C5  <0> d          -2.461   1.076   0.019  0.00  0.00    -0.072 A 
ATOM      5  C6  <0> d          -1.237   1.766   0.018  0.00  0.00    -0.024 A 
ATOM      6  C7  <0> d          -1.235   3.182   0.030  0.00  0.00     0.001 A 
ATOM      7  C8  <0> d          -0.012   3.870   0.022  0.00  0.00    -0.070 A 
ATOM      8  C9  <0> d           1.155   3.169   0.008  0.00  0.00    -0.082 A 
ATOM      9  C10 <0> d           1.155   1.776   0.001  0.00  0.00    -0.082 A 
ATOM     10  C11 <0> d          -0.013   1.076   0.008  0.00  0.00    -0.072 A 
ATOM     11  H5  <0> d          -4.588   3.687   0.043  0.00  0.00     0.086 H 
ATOM     12  H6  <0> d          -4.569   1.230   0.030  0.00  0.00     0.083 H 
ATOM     13  H7  <0> d          -2.473  -0.004   0.014  0.00  0.00     0.084 H 
ATOM     14  H8  <0> d           0.004   4.950   0.027  0.00  0.00     0.084 H 
ATOM     15  H9  <0> d           2.095   3.701   0.001  0.00  0.00     0.083 H 
ATOM     16  H10 <0> d           2.094   1.243  -0.011  0.00  0.00     0.083 H 
ATOM     17  H11 <0> d           0.002  -0.004   0.002  0.00  0.00     0.084 H 
ENDROOT
BRANCH   1  18
ATOM     18  N1  <0> d          -2.487   5.268   0.052  0.00  0.00    -0.394 N 
ATOM     19  H4  <0> d          -1.655   5.766   0.047  0.00  0.00     0.159 HD
BRANCH  18  20
ATOM     20  C1  <0> d          -3.767   5.980   0.067  0.00  0.00    -0.021 C 
ATOM     21  H1  <0> d          -4.343   5.712  -0.819  0.00  0.00     0.056 H 
ATOM     22  H2  <0> d          -4.327   5.703   0.961  0.00  0.00     0.056 H 
ATOM     23  H3  <0> d          -3.585   7.055   0.071  0.00  0.00     0.056 H 
ENDBRANCH  18  20
ENDBRANCH   1  18
TORSDOF 2
