REMARK  2 active torsions:
REMARK  status: ('A' for Active; 'I' for Inactive)
REMARK    1  A    between atoms: C1_1  and  C2_2 
REMARK    2  A    between atoms: C7_7  and  N1_8 
ROOT
ATOM      1  C2  <0> d           0.002  -0.004   0.002  0.00  0.00    -0.036 A 
ATOM      2  C3  <0> d           0.006  -0.689  -1.198  0.00  0.00    -0.075 A 
ATOM      3  C4  <0> d           0.024  -2.071  -1.206  0.00  0.00    -0.082 A 
ATOM      4  C5  <0> d           0.039  -2.773  -0.014  0.00  0.00    -0.081 A 
ATOM      5  C6  <0> d           0.036  -2.095   1.188  0.00  0.00    -0.057 A 
ATOM      6  C7  <0> d           0.023  -0.706   1.200  0.00  0.00     0.031 A 
ATOM      7  H4  <0> d          -0.006  -0.144  -2.130  0.00  0.00     0.084 H 
ATOM      8  H5  <0> d           0.026  -2.604  -2.145  0.00  0.00     0.083 H 
ATOM      9  H6  <0> d           0.053  -3.853  -0.025  0.00  0.00     0.083 H 
ATOM     10  H7  <0> d           0.047  -2.644   2.119  0.00  0.00     0.086 H 
ENDROOT
BRANCH   1  11
ATOM     11  C1  <0> d          -0.018   1.503   0.010  0.00  0.00    -0.049 C 
ATOM     12  H1  <0> d           1.004   1.880   0.003  0.00  0.00     0.033 H 
ATOM     13  H2  <0> d          -0.545   1.864  -0.873  0.00  0.00     0.033 H 
ATOM     14  H3  <0> d          -0.529   1.854   0.907  0.00  0.00     0.033 H 
ENDBRANCH   1  11
BRANCH   6  15
ATOM     15  N1  <0> d           0.025  -0.016   2.415  0.00  0.00    -0.399 N 
ATOM     16  H8  <0> d           0.012   0.954   2.422  0.00  0.00     0.156 HD
ATOM     17  H9  <0> d           0.040  -0.507   3.252  0.00  0.00     0.156 HD
ENDBRANCH   6  15
TORSDOF 2
