REMARK  4 active torsions:
REMARK  status: ('A' for Active; 'I' for Inactive)
REMARK    1  A    between atoms: C1_1  and  C2_2 
REMARK    2  A    between atoms: C2_2  and  C3_3 
REMARK    3  A    between atoms: C2_2  and  C4_5 
REMARK    4  A    between atoms: C2_2  and  O2_9 
ROOT
ATOM      1  C2  <0> d           0.002  -0.004   0.002  0.00  0.00     0.240 C 
ENDROOT
BRANCH   1   2
ATOM      2  C1  <0> d          -0.019   1.526   0.010  0.00  0.00    -0.030 C 
ATOM      3  H1  <0> d           1.004   1.903   0.003  0.00  0.00     0.032 H 
ATOM      4  H2  <0> d          -0.546   1.887  -0.873  0.00  0.00     0.032 H 
ATOM      5  H3  <0> d          -0.529   1.877   0.907  0.00  0.00     0.032 H 
ENDBRANCH   1   2
BRANCH   1   6
ATOM      6  C3  <0> d           0.707  -0.490  -1.238  0.00  0.00     0.218 C 
ATOM      7  O1  <0> d           1.884  -0.762  -1.196  0.00  0.00    -0.645 OA
ATOM      8  O3  <0> d           0.029  -0.621  -2.388  0.00  0.00    -0.645 OA
ENDBRANCH   1   6
BRANCH   1   9
ATOM      9  C4  <0> d           0.742  -0.511   1.242  0.00  0.00     0.428 C 
ATOM     10  F1  <0> d           0.087  -0.060   2.393  0.00  0.00    -0.167 F 
ATOM     11  F2  <0> d           0.761  -1.910   1.234  0.00  0.00    -0.167 F 
ATOM     12  F3  <0> d           2.055  -0.027   1.232  0.00  0.00    -0.167 F 
ENDBRANCH   1   9
BRANCH   1  13
ATOM     13  O2  <0> d          -1.339  -0.499   0.012  0.00  0.00    -0.372 OA
ATOM     14  H4  <0> d          -1.402  -1.464   0.008  0.00  0.00     0.211 HD
ENDBRANCH   1  13
TORSDOF 4
