REMARK  7 active torsions:
REMARK  status: ('A' for Active; 'I' for Inactive)
REMARK    1  A    between atoms: C1_1  and  C2_2 
REMARK    2  A    between atoms: C2_2  and  C3_3 
REMARK    3  A    between atoms: C2_2  and  C4_4 
REMARK    4  A    between atoms: C2_2  and  C5_6 
REMARK    5  A    between atoms: C4_4  and  O1_5 
REMARK    6  A    between atoms: C5_6  and  C6_8 
REMARK    7  A    between atoms: C5_6  and  O3_11 
REMARK       I    between atoms: C6_8  and  N1_10 
ROOT
ATOM      1  C2  <0> d          -0.626   1.520   1.253  0.00  0.00     0.008 C 
ENDROOT
BRANCH   1   2
ATOM      2  C1  <0> d          -0.011   0.803   0.049  0.00  0.00    -0.065 C 
ATOM      3  H2  <0> d          -0.272  -0.254   0.084  0.00  0.00     0.028 H 
ATOM      4  H3  <0> d           1.073   0.911   0.077  0.00  0.00     0.028 H 
ATOM      5  H4  <0> d          -0.397   1.243  -0.871  0.00  0.00     0.028 H 
ENDBRANCH   1   2
BRANCH   1   6
ATOM      6  C3  <0> d          -0.260   3.004   1.205  0.00  0.00    -0.065 C 
ATOM      7  H5  <0> d          -0.749   3.471   0.350  0.00  0.00     0.028 H 
ATOM      8  H6  <0> d          -0.591   3.490   2.123  0.00  0.00     0.028 H 
ATOM      9  H7  <0> d           0.821   3.109   1.108  0.00  0.00     0.028 H 
ENDBRANCH   1   6
BRANCH   1  10
ATOM     10  C4  <0> d          -2.148   1.368   1.214  0.00  0.00     0.026 C 
ATOM     11  H8  <0> d          -2.409   0.310   1.249  0.00  0.00     0.075 H 
ATOM     12  H9  <0> d          -2.586   1.878   2.072  0.00  0.00     0.075 H 
BRANCH  10  13
ATOM     13  O1  <0> d          -2.653   1.944   0.009  0.00  0.00    -0.400 OA
ATOM     14  H10 <0> d          -3.614   1.884  -0.084  0.00  0.00     0.209 HD
ENDBRANCH  10  13
ENDBRANCH   1  10
BRANCH   1  15
ATOM     15  C5  <0> d          -0.085   0.903   2.545  0.00  0.00     0.120 C 
ATOM     16  H1  <0> d          -0.447   1.473   3.400  0.00  0.00     0.099 H 
BRANCH  15  17
ATOM     17  C6  <0> d           1.422   0.933   2.523  0.00  0.00     0.245 C 
ATOM     18  O2  <0> d           2.047  -0.093   2.357  0.00  0.00    -0.271 OA
ATOM     19  N1  <0> d           2.075   2.101   2.688  0.00  0.00    -0.368 N 
ATOM     20  H11 <0> d           1.576   2.930   2.750  0.00  0.00     0.159 HD
ATOM     21  H12 <0> d           3.043   2.111   2.745  0.00  0.00     0.159 HD
ENDBRANCH  15  17
BRANCH  15  22
ATOM     22  O3  <0> d          -0.532  -0.450   2.650  0.00  0.00    -0.385 OA
ATOM     23  H13 <0> d          -0.246  -1.017   1.921  0.00  0.00     0.210 HD
ENDBRANCH  15  22
ENDBRANCH   1  15
TORSDOF 7
