REMARK  3 active torsions:
REMARK  status: ('A' for Active; 'I' for Inactive)
REMARK    1  A    between atoms: C1_1  and  O1_2 
REMARK    2  A    between atoms: O1_2  and  C2_3 
REMARK    3  A    between atoms: C5_6  and  N2_11 
ROOT
ATOM      1  C2  <0> d          -1.199  -0.637   0.010  0.00  0.00     0.089 A 
ATOM      2  C3  <0> d          -2.373   0.101   0.019  0.00  0.00    -0.047 A 
ATOM      3  C4  <0> d          -3.596  -0.541   0.027  0.00  0.00    -0.055 A 
ATOM      4  C5  <0> d          -3.660  -1.930   0.026  0.00  0.00     0.027 A 
ATOM      5  C6  <0> d          -2.496  -2.680   0.017  0.00  0.00    -0.035 A 
ATOM      6  C7  <0> d          -1.256  -2.037   0.003  0.00  0.00     0.080 A 
ATOM      7  C8  <0> d          -0.047  -2.805  -0.013  0.00  0.00     0.102 C 
ATOM      8  N1  <0> d           0.911  -3.415  -0.025  0.00  0.00    -0.191 NA
ATOM      9  H4  <0> d          -2.331   1.180   0.021  0.00  0.00     0.087 H 
ATOM     10  H5  <0> d          -4.507   0.039   0.035  0.00  0.00     0.087 H 
ATOM     11  H6  <0> d          -2.547  -3.759   0.017  0.00  0.00     0.089 H 
ENDROOT
BRANCH   1  12
ATOM     12  O1  <0> d           0.002  -0.004   0.002  0.00  0.00    -0.354 OA
BRANCH  12  13
ATOM     13  C1  <0> d          -0.017   1.425   0.010  0.00  0.00     0.010 C 
ATOM     14  H1  <0> d           1.005   1.802   0.002  0.00  0.00     0.066 H 
ATOM     15  H2  <0> d          -0.544   1.786  -0.873  0.00  0.00     0.066 H 
ATOM     16  H3  <0> d          -0.527   1.776   0.907  0.00  0.00     0.066 H 
ENDBRANCH  12  13
ENDBRANCH   1  12
BRANCH   4  17
ATOM     17  N2  <0> d          -4.904  -2.572   0.035  0.00  0.00    -0.399 N 
ATOM     18  H7  <0> d          -5.720  -2.048   0.041  0.00  0.00     0.156 HD
ATOM     19  H8  <0> d          -4.949  -3.541   0.034  0.00  0.00     0.156 HD
ENDBRANCH   4  17
TORSDOF 3
