REMARK  4 active torsions:
REMARK  status: ('A' for Active; 'I' for Inactive)
REMARK    1  A    between atoms: C1_1  and  C2_2 
REMARK    2  A    between atoms: C7_7  and  O1_8 
REMARK    3  A    between atoms: O1_8  and  C8_9 
REMARK    4  A    between atoms: C8_9  and  C9_11 
ROOT
ATOM      1  C2  <0> d          -0.020  -0.015  -0.081  0.00  0.00    -0.028 A 
ATOM      2  C3  <0> d           1.179  -0.701  -0.098  0.00  0.00    -0.074 A 
ATOM      3  C4  <0> d           2.374  -0.009  -0.029  0.00  0.00    -0.082 A 
ATOM      4  C5  <0> d           2.372   1.371   0.058  0.00  0.00    -0.080 A 
ATOM      5  C6  <0> d           1.176   2.062   0.076  0.00  0.00    -0.050 A 
ATOM      6  C7  <0> d          -0.024   1.370   0.007  0.00  0.00     0.085 A 
ATOM      7  H4  <0> d           1.183  -1.779  -0.166  0.00  0.00     0.084 H 
ATOM      8  H5  <0> d           3.310  -0.548  -0.044  0.00  0.00     0.083 H 
ATOM      9  H6  <0> d           3.307   1.909   0.111  0.00  0.00     0.083 H 
ATOM     10  H7  <0> d           1.176   3.139   0.144  0.00  0.00     0.087 H 
ENDROOT
BRANCH   6  11
ATOM     11  O1  <0> d          -1.202   2.048   0.019  0.00  0.00    -0.279 OA
BRANCH  11  12
ATOM     12  C8  <0> d          -1.827   2.163   1.202  0.00  0.00     0.260 C 
ATOM     13  O2  <0> d          -1.291   1.767   2.209  0.00  0.00    -0.265 OA
BRANCH  12  14
ATOM     14  C9  <0> d          -3.197   2.787   1.272  0.00  0.00     0.004 C 
ATOM     15  H8  <0> d          -3.515   3.081   0.272  0.00  0.00     0.041 H 
ATOM     16  H9  <0> d          -3.905   2.065   1.680  0.00  0.00     0.041 H 
ATOM     17  H10 <0> d          -3.163   3.666   1.916  0.00  0.00     0.041 H 
ENDBRANCH  12  14
ENDBRANCH  11  12
ENDBRANCH   6  11
BRANCH   1  18
ATOM     18  C1  <0> d          -1.322  -0.769  -0.157  0.00  0.00    -0.049 C 
ATOM     19  H1  <0> d          -1.614  -0.886  -1.200  0.00  0.00     0.033 H 
ATOM     20  H2  <0> d          -1.200  -1.752   0.299  0.00  0.00     0.033 H 
ATOM     21  H3  <0> d          -2.095  -0.215   0.376  0.00  0.00     0.033 H 
ENDBRANCH   1  18
TORSDOF 4
