REMARK  5 active torsions:
REMARK  status: ('A' for Active; 'I' for Inactive)
REMARK    1  A    between atoms: C1_1  and  C2_2 
REMARK    2  A    between atoms: C2_2  and  C3_3 
REMARK    3  A    between atoms: C4_4  and  C8_10 
REMARK    4  A    between atoms: C5_5  and  C6_8 
REMARK    5  A    between atoms: C6_8  and  C7_9 
ROOT
ATOM      1  C3  <0> d           0.707  -0.490  -1.238  0.00  0.00     0.070 A 
ATOM      2  C4  <0> d           0.104  -0.761  -2.479  0.00  0.00    -0.003 A 
ATOM      3  C5  <0> d           1.063  -1.173  -3.330  0.00  0.00     0.086 A 
ATOM      4  O1  <0> d           2.232  -1.168  -2.671  0.00  0.00    -0.217 OA
ATOM      5  N1  <0> d           1.984  -0.727  -1.349  0.00  0.00    -0.133 NA
ENDROOT
BRANCH   1   6
ATOM      6  C2  <0> d           0.002  -0.004   0.002  0.00  0.00    -0.025 C 
ATOM      7  H4  <0> d           0.529  -0.365   0.885  0.00  0.00     0.042 H 
ATOM      8  H5  <0> d          -1.020  -0.381   0.010  0.00  0.00     0.042 H 
BRANCH   6   9
ATOM      9  C1  <0> d          -0.019   1.526   0.010  0.00  0.00    -0.071 C 
ATOM     10  H1  <0> d           1.004   1.903   0.003  0.00  0.00     0.028 H 
ATOM     11  H2  <0> d          -0.546   1.887  -0.873  0.00  0.00     0.028 H 
ATOM     12  H3  <0> d          -0.529   1.877   0.907  0.00  0.00     0.028 H 
ENDBRANCH   6   9
ENDBRANCH   1   6
BRANCH   2  13
ATOM     13  C8  <0> d          -1.362  -0.617  -2.800  0.00  0.00    -0.047 C 
ATOM     14  H11 <0> d          -1.556   0.390  -3.168  0.00  0.00     0.033 H 
ATOM     15  H12 <0> d          -1.639  -1.343  -3.565  0.00  0.00     0.033 H 
ATOM     16  H13 <0> d          -1.950  -0.795  -1.900  0.00  0.00     0.033 H 
ENDBRANCH   2  13
BRANCH   3  17
ATOM     17  C6  <0> d           0.859  -1.570  -4.770  0.00  0.00    -0.021 C 
ATOM     18  H6  <0> d           1.601  -2.318  -5.049  0.00  0.00     0.042 H 
ATOM     19  H7  <0> d          -0.141  -1.986  -4.894  0.00  0.00     0.042 H 
BRANCH  17  20
ATOM     20  C7  <0> d           1.014  -0.339  -5.665  0.00  0.00    -0.071 C 
ATOM     21  H8  <0> d           0.866  -0.626  -6.706  0.00  0.00     0.028 H 
ATOM     22  H9  <0> d           0.272   0.409  -5.385  0.00  0.00     0.028 H 
ATOM     23  H10 <0> d           2.013   0.077  -5.541  0.00  0.00     0.028 H 
ENDBRANCH  17  20
ENDBRANCH   3  17
TORSDOF 5
