REMARK  2 active torsions:
REMARK  status: ('A' for Active; 'I' for Inactive)
REMARK    1  A    between atoms: C1_1  and  C2_2 
REMARK    2  A    between atoms: C6_7  and  N2_11 
ROOT
ATOM      1  C2  <0> d          -3.293   2.412   0.046  0.00  0.00     0.142 A 
ATOM      2  N1  <0> d          -2.532   1.359   0.033  0.00  0.00    -0.226 NA
ATOM      3  C3  <0> d          -1.231   1.758   0.017  0.00  0.00     0.093 A 
ATOM      4  C4  <0> d          -0.013   1.076   0.008  0.00  0.00    -0.050 A 
ATOM      5  C5  <0> d           1.161   1.775   0.001  0.00  0.00    -0.055 A 
ATOM      6  C6  <0> d           1.153   3.169   0.008  0.00  0.00     0.028 A 
ATOM      7  C7  <0> d          -0.047   3.861   0.023  0.00  0.00    -0.023 A 
ATOM      8  C8  <0> d          -1.244   3.161   0.030  0.00  0.00     0.108 A 
ATOM      9  O1  <0> d          -2.544   3.527   0.045  0.00  0.00    -0.294 OA
ATOM     10  H4  <0> d           0.002  -0.004   0.002  0.00  0.00     0.087 H 
ATOM     11  H5  <0> d           2.101   1.245  -0.011  0.00  0.00     0.087 H 
ATOM     12  H6  <0> d          -0.050   4.941   0.028  0.00  0.00     0.091 H 
ENDROOT
BRANCH   1  13
ATOM     13  C1  <0> d          -4.799   2.386   0.060  0.00  0.00    -0.015 C 
ATOM     14  H1  <0> d          -5.173   2.386  -0.964  0.00  0.00     0.038 H 
ATOM     15  H2  <0> d          -5.142   1.487   0.573  0.00  0.00     0.038 H 
ATOM     16  H3  <0> d          -5.173   3.267   0.583  0.00  0.00     0.038 H 
ENDBRANCH   1  13
BRANCH   6  17
ATOM     17  N2  <0> d           2.361   3.871  -0.000  0.00  0.00    -0.399 N 
ATOM     18  H7  <0> d           3.203   3.388  -0.011  0.00  0.00     0.156 HD
ATOM     19  H8  <0> d           2.359   4.841   0.005  0.00  0.00     0.156 HD
ENDBRANCH   6  17
TORSDOF 2
