REMARK  4 active torsions:
REMARK  status: ('A' for Active; 'I' for Inactive)
REMARK    1  A    between atoms: C1_1  and  C2_2 
REMARK    2  A    between atoms: C2_2  and  O1_3 
REMARK    3  A    between atoms: O1_3  and  C3_4 
REMARK    4  A    between atoms: C3_4  and  C4_6 
ROOT
ATOM      1  C4  <0> d          -2.842   2.640  -0.086  0.00  0.00     0.061 A 
ATOM      2  H1  <0> d          -2.725   3.733  -0.103  0.00  0.00     0.060 H 
ATOM      3  C5  <0> d          -2.266   1.500   0.754  0.00  0.00    -0.012 A 
ATOM      4  H2  <0> d          -2.714   0.956   1.599  0.00  0.00     0.045 H 
ATOM      5  C6  <0> d          -2.157   1.462  -0.783  0.00  0.00     0.055 A 
ATOM      6  H3  <0> d          -2.430   0.846  -1.652  0.00  0.00     0.085 H 
ATOM      7  O3  <0> d          -0.764   1.590  -1.117  0.00  0.00    -0.385 OA
ATOM      8  C7  <0> d          -0.013   1.086   0.008  0.00  0.00     0.021 C 
ATOM      9  C8  <0> d          -0.796   1.614   1.237  0.00  0.00    -0.039 C 
ATOM     10  H9  <0> d           0.011  -0.013  -0.030  0.00  0.00     0.074 H 
ATOM     11  H10 <0> d           1.015   1.477  -0.032  0.00  0.00     0.074 H 
ATOM     12  H11 <0> d          -0.569   2.664   1.474  0.00  0.00     0.036 H 
ATOM     13  H12 <0> d          -0.656   0.996   2.136  0.00  0.00     0.036 H 
ENDROOT
BRANCH   1  14
ATOM     14  C3  <0> d          -4.342   2.734  -0.194  0.00  0.00     0.266 C 
ATOM     15  O2  <0> d          -5.040   1.920   0.363  0.00  0.00    -0.265 OA
BRANCH  14  16
ATOM     16  O1  <0> d          -4.903   3.721  -0.910  0.00  0.00    -0.321 OA
BRANCH  16  17
ATOM     17  C2  <0> d          -6.354   3.750  -0.970  0.00  0.00     0.025 C 
ATOM     18  H7  <0> d          -6.761   3.853   0.046  0.00  0.00     0.074 H 
ATOM     19  H8  <0> d          -6.720   2.815  -1.419  0.00  0.00     0.074 H 
BRANCH  17  20
ATOM     20  C1  <0> d          -6.805   4.937  -1.824  0.00  0.00    -0.056 C 
ATOM     21  H4  <0> d          -7.904   4.958  -1.869  0.00  0.00     0.030 H 
ATOM     22  H5  <0> d          -6.398   4.833  -2.840  0.00  0.00     0.030 H 
ATOM     23  H6  <0> d          -6.439   5.872  -1.375  0.00  0.00     0.030 H 
ENDBRANCH  17  20
ENDBRANCH  16  17
ENDBRANCH  14  16
ENDBRANCH   1  14
TORSDOF 4
