REMARK  3 active torsions:
REMARK  status: ('A' for Active; 'I' for Inactive)
REMARK    1  A    between atoms: C4_4  and  C6_6 
REMARK       I    between atoms: C6_6  and  N1_8 
REMARK    2  A    between atoms: N1_8  and  C7_9 
REMARK    3  A    between atoms: C7_9  and  C8_10 
ROOT
ATOM      1  C8  <0> d           1.934  -3.419  -4.923  0.00  0.00    -0.098 C 
ATOM      2  C9  <0> d           2.766  -4.122  -5.362  0.00  0.00    -0.152 C 
ATOM      3  H11 <0> d           3.510  -4.750  -5.754  0.00  0.00     0.166 H 
ENDROOT
BRANCH   1   4
ATOM      4  C7  <0> d           0.892  -2.538  -4.372  0.00  0.00     0.050 C 
ATOM      5  H9  <0> d          -0.082  -2.846  -4.752  0.00  0.00     0.083 H 
ATOM      6  H10 <0> d           1.089  -1.509  -4.673  0.00  0.00     0.083 H 
BRANCH   4   7
ATOM      7  N1  <0> d           0.897  -2.629  -2.910  0.00  0.00    -0.350 N 
ATOM      8  C6  <0> d           0.021  -1.904  -2.186  0.00  0.00     0.223 C 
ATOM      9  O1  <0> d          -0.772  -1.176  -2.745  0.00  0.00    -0.273 OA
ATOM     10  H8  <0> d           1.532  -3.211  -2.463  0.00  0.00     0.163 HD
BRANCH   8  11
ATOM     11  C4  <0> d           0.027  -1.998  -0.682  0.00  0.00     0.030 C 
ATOM     12  C3  <0> d          -1.029  -1.113  -0.001  0.00  0.00    -0.034 C 
ATOM     13  C2  <0> d           0.002  -0.004   0.002  0.00  0.00    -0.088 C 
ATOM     14  H3  <0> d          -1.305  -1.454   0.997  0.00  0.00     0.040 H 
ATOM     15  H4  <0> d          -1.893  -0.903  -0.631  0.00  0.00     0.040 H 
ATOM     16  C1  <0> d          -0.016   1.306   0.009  0.00  0.00    -0.119 C 
ATOM     17  C5  <0> d           1.062  -1.085  -0.014  0.00  0.00    -0.034 C 
ATOM     18  H1  <0> d           0.912   1.859   0.003  0.00  0.00     0.067 H 
ATOM     19  H2  <0> d          -0.958   1.833   0.017  0.00  0.00     0.067 H 
ATOM     20  H6  <0> d           1.913  -0.851  -0.654  0.00  0.00     0.040 H 
ATOM     21  H7  <0> d           1.360  -1.418   0.980  0.00  0.00     0.040 H 
ATOM     22  H5  <0> d           0.042  -3.025  -0.318  0.00  0.00     0.055 H 
ENDBRANCH   8  11
ENDBRANCH   4   7
ENDBRANCH   1   4
TORSDOF 3
