REMARK  3 active torsions:
REMARK  status: ('A' for Active; 'I' for Inactive)
REMARK    1  A    between atoms: C1_1  and  C2_2 
REMARK    2  A    between atoms: N2_6  and  C5_7 
REMARK    3  A    between atoms: C5_7  and  C6_8 
ROOT
ATOM      1  C6  <0> d          -1.405  -0.098   2.953  0.00  0.00     0.030 C 
ATOM      2  C7  <0> d          -1.398   0.348   4.356  0.00  0.00     0.060 C 
ATOM      3  N3  <0> d          -1.392   0.693   5.438  0.00  0.00    -0.197 NA
ATOM      4  H8  <0> d          -1.856   0.674   2.329  0.00  0.00     0.057 H 
ATOM      5  H9  <0> d          -1.984  -1.018   2.867  0.00  0.00     0.057 H 
ENDROOT
BRANCH   1   6
ATOM      6  C5  <0> d           0.031  -0.353   2.491  0.00  0.00     0.012 C 
ATOM      7  H6  <0> d           0.481  -1.125   3.115  0.00  0.00     0.066 H 
ATOM      8  H7  <0> d           0.609   0.567   2.576  0.00  0.00     0.066 H 
BRANCH   6   9
ATOM      9  N2  <0> d           0.023  -0.797   1.095  0.00  0.00    -0.343 N 
ATOM     10  C2  <0> d           0.002  -0.004   0.002  0.00  0.00     0.101 A 
ATOM     11  N1  <0> d          -0.003  -0.759  -1.062  0.00  0.00    -0.246 NA
ATOM     12  C3  <0> d           0.022  -2.047  -0.691  0.00  0.00     0.019 A 
ATOM     13  C4  <0> d           0.036  -2.093   0.655  0.00  0.00    -0.002 A 
ATOM     14  H4  <0> d           0.026  -2.899  -1.355  0.00  0.00     0.117 H 
ATOM     15  H5  <0> d           0.053  -2.981   1.269  0.00  0.00     0.113 H 
BRANCH  10  16
ATOM     16  C1  <0> d          -0.018   1.503   0.010  0.00  0.00    -0.021 C 
ATOM     17  H1  <0> d           1.004   1.880   0.003  0.00  0.00     0.037 H 
ATOM     18  H2  <0> d          -0.545   1.864  -0.873  0.00  0.00     0.037 H 
ATOM     19  H3  <0> d          -0.529   1.854   0.907  0.00  0.00     0.037 H 
ENDBRANCH  10  16
ENDBRANCH   6   9
ENDBRANCH   1   6
TORSDOF 3
