REMARK  2 active torsions:
REMARK  status: ('A' for Active; 'I' for Inactive)
REMARK    1  A    between atoms: C3_3  and  N1_9 
REMARK    2  A    between atoms: C4_4  and  O1_8 
ROOT
ATOM      1  C1  <0> d           0.002  -0.004   0.002  0.00  0.00    -0.079 A 
ATOM      2  C2  <0> d           1.207  -0.682  -0.013  0.00  0.00    -0.055 A 
ATOM      3  C3  <0> d           2.400   0.024  -0.021  0.00  0.00     0.061 A 
ATOM      4  C4  <0> d           2.382   1.417  -0.014  0.00  0.00     0.113 A 
ATOM      5  C5  <0> d           1.170   2.090   0.002  0.00  0.00     0.069 A 
ATOM      6  C6  <0> d          -0.017   1.378   0.010  0.00  0.00    -0.059 A 
ATOM      7 Cl1  <0> d           1.142   3.825   0.011  0.00  0.00    -0.081 Cl
ATOM      8  H1  <0> d          -0.927  -0.555   0.008  0.00  0.00     0.083 H 
ATOM      9  H2  <0> d           1.218  -1.762  -0.018  0.00  0.00     0.087 H 
ATOM     10  H3  <0> d          -0.960   1.904   0.017  0.00  0.00     0.086 H 
ENDROOT
BRANCH   3  11
ATOM     11  N1  <0> d           3.621  -0.661  -0.036  0.00  0.00    -0.397 N 
ATOM     12  H5  <0> d           3.633  -1.631  -0.040  0.00  0.00     0.156 HD
ATOM     13  H6  <0> d           4.455  -0.166  -0.041  0.00  0.00     0.156 HD
ENDBRANCH   3  11
BRANCH   4  14
ATOM     14  O1  <0> d           3.549   2.115  -0.021  0.00  0.00    -0.357 OA
ATOM     15  H4  <0> d           3.879   2.321  -0.907  0.00  0.00     0.218 HD
ENDBRANCH   4  14
TORSDOF 2
