REMARK  4 active torsions:
REMARK  status: ('A' for Active; 'I' for Inactive)
REMARK    1  A    between atoms: C1_1  and  C2_2 
REMARK    2  A    between atoms: C2_2  and  C3_3 
REMARK    3  A    between atoms: C2_2  and  C4_4 
REMARK    4  A    between atoms: C4_4  and  C5_5 
ROOT
ATOM      1  C4  <0> d          -2.530   3.893   0.046  0.00  0.00    -0.038 C 
ATOM      2  H8  <0> d          -3.289   3.308   0.564  0.00  0.00     0.040 H 
ATOM      3  H9  <0> d          -2.387   4.842   0.563  0.00  0.00     0.040 H 
ENDROOT
BRANCH   1   4
ATOM      4  C2  <0> d          -2.983   4.158  -1.391  0.00  0.00    -0.057 C 
ATOM      5  H4  <0> d          -3.040   3.215  -1.934  0.00  0.00     0.039 H 
BRANCH   4   6
ATOM      6  C1  <0> d          -4.361   4.823  -1.377  0.00  0.00    -0.073 C 
ATOM      7  H1  <0> d          -4.303   5.766  -0.835  0.00  0.00     0.028 H 
ATOM      8  H2  <0> d          -4.683   5.012  -2.401  0.00  0.00     0.028 H 
ATOM      9  H3  <0> d          -5.077   4.164  -0.887  0.00  0.00     0.028 H 
ENDBRANCH   4   6
BRANCH   4  10
ATOM     10  C3  <0> d          -1.977   5.083  -2.080  0.00  0.00    -0.073 C 
ATOM     11  H5  <0> d          -0.996   4.610  -2.090  0.00  0.00     0.028 H 
ATOM     12  H6  <0> d          -2.300   5.272  -3.104  0.00  0.00     0.028 H 
ATOM     13  H7  <0> d          -1.920   6.027  -1.537  0.00  0.00     0.028 H 
ENDBRANCH   4  10
ENDBRANCH   1   4
BRANCH   1  14
ATOM     14  C5  <0> d          -1.231   3.129   0.030  0.00  0.00    -0.055 A 
ATOM     15  C9  <0> d          -0.015   3.796   0.022  0.00  0.00    -0.060 A 
ATOM     16  C8  <0> d           1.155   3.061   0.007  0.00  0.00     0.002 A 
ATOM     17  H13 <0> d           0.016   4.875   0.027  0.00  0.00     0.086 H 
ATOM     18  N1  <0> d           1.125   1.743   0.001  0.00  0.00    -0.273 NA
ATOM     19  H12 <0> d           2.107   3.573   0.001  0.00  0.00     0.114 H 
ATOM     20  C7  <0> d          -0.013   1.076   0.008  0.00  0.00     0.002 A 
ATOM     21  C6  <0> d          -1.223   1.742   0.017  0.00  0.00    -0.060 A 
ATOM     22  H11 <0> d           0.002  -0.004   0.002  0.00  0.00     0.114 H 
ATOM     23  H10 <0> d          -2.151   1.190   0.018  0.00  0.00     0.086 H 
ENDBRANCH   1  14
TORSDOF 4
