REMARK  4 active torsions:
REMARK  status: ('A' for Active; 'I' for Inactive)
REMARK    1  A    between atoms: C1_1  and  C2_2 
REMARK    2  A    between atoms: C2_2  and  C3_3 
REMARK    3  A    between atoms: C3_3  and  C4_5 
REMARK    4  A    between atoms: C8_9  and  O2_11 
ROOT
ATOM      1  C4  <0> d           3.108   2.414  -1.209  0.00  0.00     0.012 A 
ATOM      2  C5  <0> d           3.745   2.697   0.004  0.00  0.00    -0.069 A 
ATOM      3  C6  <0> d           3.120   2.397   1.196  0.00  0.00    -0.079 A 
ATOM      4  C7  <0> d           1.862   1.822   1.197  0.00  0.00    -0.051 A 
ATOM      5  C8  <0> d           1.223   1.532  -0.001  0.00  0.00     0.066 A 
ATOM      6  C9  <0> d           1.839   1.829  -1.205  0.00  0.00    -0.038 A 
ATOM      7  H6  <0> d           4.726   3.150   0.007  0.00  0.00     0.085 H 
ATOM      8  H7  <0> d           3.613   2.615   2.132  0.00  0.00     0.083 H 
ATOM      9  H8  <0> d           1.376   1.594   2.134  0.00  0.00     0.087 H 
ATOM     10  H9  <0> d           1.341   1.608  -2.138  0.00  0.00     0.089 H 
ENDROOT
BRANCH   1  11
ATOM     11  C3  <0> d           3.771   2.733  -2.484  0.00  0.00     0.159 C 
ATOM     12  O1  <0> d           3.216   2.488  -3.534  0.00  0.00    -0.292 OA
BRANCH  11  13
ATOM     13  C2  <0> d           5.139   3.365  -2.484  0.00  0.00    -0.008 C 
ATOM     14  H4  <0> d           5.102   4.242  -2.005  0.00  0.00     0.044 H 
ATOM     15  H5  <0> d           5.844   2.705  -1.979  0.00  0.00     0.044 H 
BRANCH  13  16
ATOM     16  C1  <0> d           5.596   3.591  -3.927  0.00  0.00    -0.070 C 
ATOM     17  H1  <0> d           6.586   4.048  -3.927  0.00  0.00     0.028 H 
ATOM     18  H2  <0> d           5.637   2.635  -4.449  0.00  0.00     0.028 H 
ATOM     19  H3  <0> d           4.891   4.251  -4.432  0.00  0.00     0.028 H 
ENDBRANCH  13  16
ENDBRANCH  11  13
ENDBRANCH   1  11
BRANCH   5  20
ATOM     20  O2  <0> d          -0.011   0.963   0.007  0.00  0.00    -0.361 OA
ATOM     21  H10 <0> d           0.002  -0.004   0.002  0.00  0.00     0.217 HD
ENDBRANCH   5  20
TORSDOF 4
