REMARK  1 active torsions:
REMARK  status: ('A' for Active; 'I' for Inactive)
REMARK    1  A    between atoms: C7_9  and  O1_11 
ROOT
ATOM      1  C1  <0> d           1.939   0.936   1.224  0.00  0.00    -0.055 C 
ATOM      2  C2  <0> d           1.526   1.834  -0.003  0.00  0.00    -0.028 C 
ATOM      3  C3  <0> d          -0.019   1.549   0.011  0.00  0.00    -0.055 C 
ATOM      4  C4  <0> d           0.002  -0.004   0.002  0.00  0.00    -0.044 A 
ATOM      5  H1  <0> d          -1.052  -0.318   0.010  0.00  0.00     0.041 H 
ATOM      6  C5  <0> d           1.267  -0.413   0.775  0.00  0.00    -0.044 A 
ATOM      7  H2  <0> d           1.518  -1.143   1.559  0.00  0.00     0.041 H 
ATOM      8  C6  <0> d           1.252  -0.405  -0.799  0.00  0.00    -0.021 A 
ATOM      9  C7  <0> d           1.915   0.949  -1.246  0.00  0.00     0.043 C 
ATOM     10  H3  <0> d           2.970   0.930  -1.559  0.00  0.00     0.084 H 
ATOM     11  H4  <0> d           1.513   1.255   2.186  0.00  0.00     0.034 H 
ATOM     12  H5  <0> d           3.023   0.787   1.334  0.00  0.00     0.034 H 
ATOM     13  H6  <0> d           1.897   2.870  -0.001  0.00  0.00     0.043 H 
ATOM     14  H7  <0> d          -0.465   1.987   0.915  0.00  0.00     0.034 H 
ATOM     15  H8  <0> d          -0.482   1.997  -0.881  0.00  0.00     0.034 H 
ATOM     16  H9  <0> d           1.488  -1.126  -1.596  0.00  0.00     0.045 H 
ENDROOT
BRANCH   9  17
ATOM     17  O1  <0> d           1.328   1.448  -2.450  0.00  0.00    -0.395 OA
ATOM     18  H10 <0> d           1.510   0.933  -3.405  0.00  0.00     0.210 HD
ENDBRANCH   9  17
TORSDOF 1
