REMARK  1 active torsions:
REMARK  status: ('A' for Active; 'I' for Inactive)
REMARK    1  A    between atoms: C1_1  and  C2_2 
ROOT
ATOM      1  C2  <0> d           1.258   1.999   0.001  0.00  0.00     0.133 A 
ATOM      2  N1  <0> d           2.145   1.033  -0.013  0.00  0.00    -0.212 NA
ATOM      3  C3  <0> d           1.724  -0.218  -0.016  0.00  0.00     0.187 A 
ATOM      4  S1  <0> d           0.002  -0.004   0.002  0.00  0.00     0.046 SA
ATOM      5  N2  <0> d          -0.021   1.708   0.011  0.00  0.00    -0.194 NA
ATOM      6 Cl1  <0> d           2.648  -1.688  -0.032  0.00  0.00    -0.053 Cl
ENDROOT
BRANCH   1   7
ATOM      7  C1  <0> d           1.707   3.438   0.004  0.00  0.00    -0.019 C 
ATOM      8  H1  <0> d           2.806   3.479  -0.006  0.00  0.00     0.037 H 
ATOM      9  H2  <0> d           1.329   3.938   0.908  0.00  0.00     0.037 H 
ATOM     10  H3  <0> d           1.312   3.947  -0.888  0.00  0.00     0.037 H 
ENDBRANCH   1   7
TORSDOF 1
