REMARK  3 active torsions:
REMARK  status: ('A' for Active; 'I' for Inactive)
REMARK    1  A    between atoms: C2_2  and  C4_7 
REMARK    2  A    between atoms: C4_7  and  C5_8 
REMARK    3  A    between atoms: C5_8  and  O1_9 
ROOT
ATOM      1  C1  <0> d          -0.016   1.337   0.009  0.00  0.00    -0.000 A 
ATOM      2  C2  <0> d           1.259   1.771  -0.000  0.00  0.00     0.027 A 
ATOM      3  N1  <0> d           2.056   0.658  -0.014  0.00  0.00    -0.355 N 
ATOM      4  H1  <0> d           3.026   0.645  -0.023  0.00  0.00     0.166 HD
ATOM      5  C3  <0> d           1.240  -0.418  -0.012  0.00  0.00     0.040 A 
ATOM      6  N2  <0> d           0.002  -0.004   0.002  0.00  0.00    -0.360 N 
ATOM      7  H2  <0> d          -0.898   1.960   0.025  0.00  0.00     0.114 H 
ATOM      8  H3  <0> d           1.558  -1.450  -0.021  0.00  0.00     0.140 H 
ATOM      9  H9  <0> d          -0.781  -0.576   0.007  0.00  0.00     0.166 HD
ENDROOT
BRANCH   2  10
ATOM     10  C4  <0> d           1.719   3.206   0.002  0.00  0.00    -0.006 C 
ATOM     11  H4  <0> d           2.713   3.269  -0.441  0.00  0.00     0.045 H 
ATOM     12  H5  <0> d           1.023   3.812  -0.577  0.00  0.00     0.045 H 
BRANCH  10  13
ATOM     13  C5  <0> d           1.769   3.723   1.442  0.00  0.00     0.022 C 
ATOM     14  H6  <0> d           0.775   3.659   1.885  0.00  0.00     0.074 H 
ATOM     15  H7  <0> d           2.465   3.117   2.022  0.00  0.00     0.074 H 
BRANCH  13  16
ATOM     16  O1  <0> d           2.205   5.083   1.444  0.00  0.00    -0.400 OA
ATOM     17  H8  <0> d           2.261   5.477   2.326  0.00  0.00     0.209 HD
ENDBRANCH  13  16
ENDBRANCH  10  13
ENDBRANCH   2  10
TORSDOF 3
