REMARK  2 active torsions:
REMARK  status: ('A' for Active; 'I' for Inactive)
REMARK    1  A    between atoms: C4_4  and  C7_7 
REMARK    2  A    between atoms: C7_7  and  C8_8 
ROOT
ATOM      1  C1  <0> d           1.175   1.783   0.000  0.00  0.00    -0.083 A 
ATOM      2  C2  <0> d          -0.013   1.076   0.008  0.00  0.00    -0.082 A 
ATOM      3  C3  <0> d          -1.219   1.751   0.017  0.00  0.00    -0.076 A 
ATOM      4  C4  <0> d          -1.238   3.133   0.030  0.00  0.00    -0.051 A 
ATOM      5  C5  <0> d          -0.050   3.840   0.022  0.00  0.00    -0.076 A 
ATOM      6  C6  <0> d           1.156   3.165   0.008  0.00  0.00    -0.082 A 
ATOM      7  H1  <0> d           2.118   1.256  -0.011  0.00  0.00     0.083 H 
ATOM      8  H2  <0> d           0.002  -0.004   0.002  0.00  0.00     0.083 H 
ATOM      9  H3  <0> d          -2.147   1.198   0.019  0.00  0.00     0.084 H 
ATOM     10  H4  <0> d          -0.065   4.920   0.028  0.00  0.00     0.084 H 
ATOM     11  H5  <0> d           2.084   3.718   0.001  0.00  0.00     0.083 H 
ENDROOT
BRANCH   4  12
ATOM     12  C7  <0> d          -2.553   3.869   0.045  0.00  0.00     0.019 C 
ATOM     13  H6  <0> d          -3.300   3.267   0.563  0.00  0.00     0.052 H 
ATOM     14  H7  <0> d          -2.431   4.820   0.563  0.00  0.00     0.052 H 
BRANCH  12  15
ATOM     15  C8  <0> d          -3.004   4.120  -1.370  0.00  0.00     0.178 A 
ATOM     16  N3  <0> d          -3.765   3.319  -2.115  0.00  0.00    -0.111 NA
ATOM     17  N2  <0> d          -3.923   3.893  -3.260  0.00  0.00    -0.021 NA
ATOM     18  N4  <0> d          -3.291   5.013  -3.249  0.00  0.00    -0.021 NA
ATOM     19  N1  <0> d          -2.728   5.172  -2.102  0.00  0.00    -0.111 NA
ENDBRANCH  12  15
ENDBRANCH   4  12
TORSDOF 2
