REMARK  2 active torsions:
REMARK  status: ('A' for Active; 'I' for Inactive)
REMARK    1  A    between atoms: C1_1  and  C2_2 
REMARK    2  A    between atoms: C4_7  and  C5_8 
ROOT
ATOM      1  C2  <0> d          -0.699   3.054   0.025  0.00  0.00    -0.014 A 
ATOM      2  C3  <0> d           0.696   3.049   0.012  0.00  0.00     0.029 A 
ATOM      3  N1  <0> d           1.109   1.807   0.001  0.00  0.00    -0.186 NA
ATOM      4  N2  <0> d          -0.011   0.966   0.007  0.00  0.00    -0.277 N 
ATOM      5  H1  <0> d           0.003  -0.034   0.006  0.00  0.00     0.189 HD
ATOM      6  C4  <0> d          -1.123   1.755   0.016  0.00  0.00     0.067 A 
ATOM      7  H5  <0> d           1.329   3.924   0.011  0.00  0.00     0.118 H 
ENDROOT
BRANCH   6   8
ATOM      8  C5  <0> d          -2.527   1.290   0.019  0.00  0.00    -0.007 A 
ATOM      9  C10 <0> d          -2.921   0.255   0.868  0.00  0.00    -0.071 A 
ATOM     10  C9  <0> d          -4.233  -0.173   0.866  0.00  0.00    -0.082 A 
ATOM     11  H10 <0> d          -2.201  -0.210   1.525  0.00  0.00     0.084 H 
ATOM     12  C8  <0> d          -5.157   0.421   0.024  0.00  0.00    -0.083 A 
ATOM     13  H9  <0> d          -4.539  -0.974   1.522  0.00  0.00     0.083 H 
ATOM     14  C7  <0> d          -4.772   1.448  -0.820  0.00  0.00    -0.082 A 
ATOM     15  H8  <0> d          -6.182   0.082   0.026  0.00  0.00     0.083 H 
ATOM     16  C6  <0> d          -3.465   1.889  -0.824  0.00  0.00    -0.071 A 
ATOM     17  H7  <0> d          -5.498   1.908  -1.474  0.00  0.00     0.083 H 
ATOM     18  H6  <0> d          -3.167   2.693  -1.480  0.00  0.00     0.084 H 
ENDBRANCH   6   8
BRANCH   1  19
ATOM     19  C1  <0> d          -1.583   4.274   0.040  0.00  0.00    -0.048 C 
ATOM     20  H2  <0> d          -1.805   4.575  -0.984  0.00  0.00     0.033 H 
ATOM     21  H3  <0> d          -2.512   4.044   0.561  0.00  0.00     0.033 H 
ATOM     22  H4  <0> d          -1.070   5.088   0.554  0.00  0.00     0.033 H 
ENDBRANCH   1  19
TORSDOF 2
