REMARK  4 active torsions:
REMARK  status: ('A' for Active; 'I' for Inactive)
REMARK    1  A    between atoms: C1_1  and  C2_2 
REMARK    2  A    between atoms: C1_1  and  O3_9 
REMARK    3  A    between atoms: C3_3  and  C4_7 
REMARK    4  A    between atoms: C4_7  and  O2_8 
ROOT
ATOM      1  C2  <0> d          -0.718   1.572   1.248  0.00  0.00     0.116 A 
ATOM      2  C3  <0> d          -1.750   0.887   1.919  0.00  0.00     0.116 A 
ATOM      3  N1  <0> d          -2.134   1.583   2.947  0.00  0.00    -0.105 NA
ATOM      4  O1  <0> d          -1.348   2.764   2.976  0.00  0.00    -0.106 OA
ATOM      5  N2  <0> d          -0.465   2.686   1.868  0.00  0.00    -0.105 NA
ENDROOT
BRANCH   1   6
ATOM      6  C1  <0> d          -0.013   1.086   0.008  0.00  0.00     0.061 C 
ATOM      7  H1  <0> d           0.002  -0.004   0.002  0.00  0.00     0.084 H 
ATOM      8  H2  <0> d           1.010   1.463   0.000  0.00  0.00     0.084 H 
BRANCH   6   9
ATOM      9  O3  <0> d          -0.704   1.559  -1.150  0.00  0.00    -0.395 OA
ATOM     10  H6  <0> d          -0.304   1.284  -1.986  0.00  0.00     0.209 HD
ENDBRANCH   6   9
ENDBRANCH   1   6
BRANCH   2  11
ATOM     11  C4  <0> d          -2.321  -0.446   1.508  0.00  0.00     0.061 C 
ATOM     12  H3  <0> d          -3.368  -0.501   1.809  0.00  0.00     0.084 H 
ATOM     13  H4  <0> d          -2.247  -0.555   0.426  0.00  0.00     0.084 H 
BRANCH  11  14
ATOM     14  O2  <0> d          -1.587  -1.495   2.144  0.00  0.00    -0.395 OA
ATOM     15  H5  <0> d          -1.901  -2.383   1.925  0.00  0.00     0.209 HD
ENDBRANCH  11  14
ENDBRANCH   2  11
TORSDOF 4
