REMARK  4 active torsions:
REMARK  status: ('A' for Active; 'I' for Inactive)
REMARK    1  A    between atoms: C1_1  and  C2_2 
REMARK    2  A    between atoms: C2_2  and  C3_3 
REMARK    3  A    between atoms: C3_3  and  N1_4 
REMARK    4  A    between atoms: C6_8  and  C7_9 
ROOT
ATOM      1  N1  <0> d           0.599   3.169   0.013  0.00  0.00    -0.344 N 
ATOM      2  C4  <0> d          -0.750   3.104   0.025  0.00  0.00     0.066 A 
ATOM      3  N2  <0> d          -1.108   1.849   0.017  0.00  0.00    -0.254 NA
ATOM      4  C5  <0> d          -0.013   1.076   0.008  0.00  0.00     0.025 A 
ATOM      5  C6  <0> d           1.066   1.882   0.002  0.00  0.00     0.026 A 
ATOM      6  H8  <0> d          -1.420   3.950   0.035  0.00  0.00     0.143 H 
ATOM      7  H9  <0> d           0.002  -0.004   0.002  0.00  0.00     0.117 H 
ENDROOT
BRANCH   1   8
ATOM      8  C3  <0> d           1.411   4.388   0.011  0.00  0.00     0.000 C 
ATOM      9  H6  <0> d           0.841   5.205   0.455  0.00  0.00     0.064 H 
ATOM     10  H7  <0> d           2.318   4.221   0.591  0.00  0.00     0.064 H 
BRANCH   8  11
ATOM     11  C2  <0> d           1.785   4.750  -1.428  0.00  0.00    -0.053 C 
ATOM     12  H4  <0> d           2.355   3.933  -1.871  0.00  0.00     0.034 H 
ATOM     13  H5  <0> d           0.878   4.917  -2.008  0.00  0.00     0.034 H 
BRANCH  11  14
ATOM     14  C1  <0> d           2.633   6.024  -1.429  0.00  0.00    -0.075 C 
ATOM     15  H1  <0> d           2.063   6.840  -0.986  0.00  0.00     0.027 H 
ATOM     16  H2  <0> d           3.540   5.857  -0.849  0.00  0.00     0.027 H 
ATOM     17  H3  <0> d           2.899   6.281  -2.454  0.00  0.00     0.027 H 
ENDBRANCH  11  14
ENDBRANCH   8  11
ENDBRANCH   1   8
BRANCH   5  18
ATOM     18  C7  <0> d           2.510   1.450  -0.014  0.00  0.00    -0.036 C 
ATOM     19  H10 <0> d           2.848   1.351  -1.045  0.00  0.00     0.035 H 
ATOM     20  H11 <0> d           3.118   2.197   0.498  0.00  0.00     0.035 H 
ATOM     21  H12 <0> d           2.608   0.491   0.495  0.00  0.00     0.035 H 
ENDBRANCH   5  18
TORSDOF 4
