REMARK  1 active torsions:
REMARK  status: ('A' for Active; 'I' for Inactive)
REMARK    1  A    between atoms: C6_9  and  N4_10 
ROOT
ATOM      1  C1  <0> d          -1.154   1.868   0.017  0.00  0.00    -0.018 A 
ATOM      2  C2  <0> d          -0.013   1.076   0.008  0.00  0.00     0.026 A 
ATOM      3  N1  <0> d           1.045   1.853   0.002  0.00  0.00    -0.176 NA
ATOM      4  N2  <0> d           0.624   3.188   0.013  0.00  0.00    -0.199 N 
ATOM      5  C3  <0> d          -0.747   3.193   0.025  0.00  0.00     0.154 A 
ATOM      6  N3  <0> d          -1.433   4.347   0.037  0.00  0.00    -0.240 NA
ATOM      7  C4  <0> d          -0.823   5.507   0.037  0.00  0.00     0.028 A 
ATOM      8  C5  <0> d           0.588   5.566   0.024  0.00  0.00     0.107 A 
ATOM      9  C6  <0> d           1.311   4.370   0.012  0.00  0.00     0.147 A 
ATOM     10  C7  <0> d           1.264   6.827   0.024  0.00  0.00     0.105 C 
ATOM     11  N5  <0> d           1.801   7.829   0.023  0.00  0.00    -0.191 NA
ATOM     12  H1  <0> d          -2.175   1.515   0.019  0.00  0.00     0.091 H 
ATOM     13  H2  <0> d           0.002  -0.004   0.002  0.00  0.00     0.117 H 
ATOM     14  H3  <0> d          -1.400   6.420   0.046  0.00  0.00     0.117 H 
ENDROOT
BRANCH   9  15
ATOM     15  N4  <0> d           2.681   4.383  -0.000  0.00  0.00    -0.383 N 
ATOM     16  H4  <0> d           3.174   3.548  -0.009  0.00  0.00     0.157 HD
ATOM     17  H5  <0> d           3.159   5.228  -0.001  0.00  0.00     0.157 HD
ENDBRANCH   9  15
TORSDOF 1
