REMARK  3 active torsions:
REMARK  status: ('A' for Active; 'I' for Inactive)
REMARK    1  A    between atoms: C1_1  and  C2_2 
REMARK    2  A    between atoms: C2_2  and  C6_9 
REMARK    3  A    between atoms: N2_7  and  C5_8 
ROOT
ATOM      1  C2  <0> d           2.224   0.557  -0.016  0.00  0.00     0.045 A 
ATOM      2  C3  <0> d           1.366   1.837  -0.001  0.00  0.00     0.020 A 
ATOM      3  N1  <0> d          -0.016   1.335   0.009  0.00  0.00    -0.341 N 
ATOM      4  C4  <0> d           0.002  -0.004   0.002  0.00  0.00     0.318 A 
ATOM      5  O1  <0> d          -1.008  -0.681   0.008  0.00  0.00    -0.247 OA
ATOM      6  N2  <0> d           1.234  -0.530  -0.013  0.00  0.00    -0.328 N 
ATOM      7  H4  <0> d           1.550   2.432  -0.896  0.00  0.00     0.067 H 
ATOM      8  H5  <0> d           1.567   2.422   0.896  0.00  0.00     0.067 H 
ATOM      9  H6  <0> d          -0.814   1.887   0.016  0.00  0.00     0.164 HD
ENDROOT
BRANCH   1  10
ATOM     10  C1  <0> d           3.104   0.486   1.233  0.00  0.00    -0.051 C 
ATOM     11  H1  <0> d           3.648  -0.459   1.241  0.00  0.00     0.030 H 
ATOM     12  H2  <0> d           3.813   1.313   1.225  0.00  0.00     0.030 H 
ATOM     13  H3  <0> d           2.478   0.552   2.123  0.00  0.00     0.030 H 
ENDBRANCH   1  10
BRANCH   1  14
ATOM     14  C6  <0> d           3.080   0.499  -1.283  0.00  0.00    -0.051 C 
ATOM     15  H10 <0> d           2.438   0.575  -2.160  0.00  0.00     0.030 H 
ATOM     16  H11 <0> d           3.790   1.327  -1.280  0.00  0.00     0.030 H 
ATOM     17  H12 <0> d           3.624  -0.445  -1.311  0.00  0.00     0.030 H 
ENDBRANCH   1  14
BRANCH   6  18
ATOM     18  C5  <0> d           1.545  -1.962  -0.023  0.00  0.00    -0.014 C 
ATOM     19  H7  <0> d           0.618  -2.535  -0.018  0.00  0.00     0.056 H 
ATOM     20  H8  <0> d           2.116  -2.203  -0.920  0.00  0.00     0.056 H 
ATOM     21  H9  <0> d           2.132  -2.212   0.860  0.00  0.00     0.056 H 
ENDBRANCH   6  18
TORSDOF 3
