REMARK  4 active torsions:
REMARK  status: ('A' for Active; 'I' for Inactive)
REMARK    1  A    between atoms: C1_1  and  C2_2 
REMARK    2  A    between atoms: C4_4  and  S1_9 
REMARK    3  A    between atoms: C5_6  and  N3_8 
REMARK    4  A    between atoms: S1_9  and  C6_10 
ROOT
ATOM      1  C2  <0> d           1.148  -0.670  -0.013  0.00  0.00     0.052 A 
ATOM      2  C3  <0> d           2.337   0.032  -0.020  0.00  0.00    -0.024 A 
ATOM      3  C4  <0> d           2.287   1.428  -0.012  0.00  0.00     0.114 A 
ATOM      4  N1  <0> d           1.102   2.031   0.002  0.00  0.00    -0.056 NA
ATOM      5  C5  <0> d          -0.016   1.321   0.009  0.00  0.00     0.721 A 
ATOM      6  N2  <0> d           0.002  -0.004   0.002  0.00  0.00    -0.068 NA
ATOM      7  H4  <0> d           3.284  -0.487  -0.032  0.00  0.00     0.091 H 
ENDROOT
BRANCH   3   8
ATOM      8  S1  <0> d           3.772   2.376  -0.022  0.00  0.00    -0.114 SA
BRANCH   8   9
ATOM      9  C6  <0> d           3.079   4.047  -0.006  0.00  0.00    -0.029 C 
ATOM     10  H7  <0> d           3.889   4.777  -0.010  0.00  0.00     0.042 H 
ATOM     11  H8  <0> d           2.456   4.191  -0.889  0.00  0.00     0.042 H 
ATOM     12  H9  <0> d           2.474   4.181   0.891  0.00  0.00     0.042 H 
ENDBRANCH   8   9
ENDBRANCH   3   8
BRANCH   1  13
ATOM     13  C1  <0> d           1.153  -2.177  -0.020  0.00  0.00    -0.035 C 
ATOM     14  H1  <0> d           1.144  -2.535  -1.050  0.00  0.00     0.035 H 
ATOM     15  H2  <0> d           2.049  -2.540   0.483  0.00  0.00     0.035 H 
ATOM     16  H3  <0> d           0.269  -2.546   0.500  0.00  0.00     0.035 H 
ENDBRANCH   1  13
BRANCH   5  17
ATOM     17  N3  <0> d          -1.233   1.979   0.019  0.00  0.00    -0.231 N 
ATOM     18  H5  <0> d          -2.059   1.471   0.020  0.00  0.00     0.174 HD
ATOM     19  H6  <0> d          -1.260   2.949   0.024  0.00  0.00     0.174 HD
ENDBRANCH   5  17
TORSDOF 4
