REMARK  1 active torsions:
REMARK  status: ('A' for Active; 'I' for Inactive)
REMARK    1  A    between atoms: C7_7  and  C9_10 
ROOT
ATOM      1  C1  <0> d          -3.256   0.947  -1.309  0.00  0.00    -0.061 C 
ATOM      2  C2  <0> d          -4.421   1.967  -1.214  0.00  0.00    -0.050 C 
ATOM      3  C3  <0> d          -3.648   3.185  -0.778  0.00  0.00    -0.107 C 
ATOM      4  C4  <0> d          -3.479   3.471   0.441  0.00  0.00    -0.106 C 
ATOM      5  C5  <0> d          -2.218   4.126   0.940  0.00  0.00    -0.049 C 
ATOM      6  C6  <0> d          -1.383   2.858   1.259  0.00  0.00    -0.050 C 
ATOM      7  C7  <0> d          -1.329   1.940   0.019  0.00  0.00     0.031 C 
ATOM      8  H1  <0> d          -1.400   2.553  -0.879  0.00  0.00     0.056 H 
ATOM      9  C8  <0> d          -2.469   0.922   0.019  0.00  0.00    -0.052 C 
ATOM     10  H2  <0> d          -2.588   1.236  -2.121  0.00  0.00     0.033 H 
ATOM     11  H3  <0> d          -3.661  -0.045  -1.509  0.00  0.00     0.033 H 
ATOM     12  H4  <0> d          -4.895   2.122  -2.183  0.00  0.00     0.038 H 
ATOM     13  H5  <0> d          -5.150   1.669  -0.461  0.00  0.00     0.038 H 
ATOM     14  H6  <0> d          -3.225   3.833  -1.531  0.00  0.00     0.076 H 
ATOM     15  H7  <0> d          -4.263   3.240   1.146  0.00  0.00     0.076 H 
ATOM     16  H8  <0> d          -1.747   4.728   0.163  0.00  0.00     0.038 H 
ATOM     17  H9  <0> d          -2.404   4.715   1.838  0.00  0.00     0.038 H 
ATOM     18  H10 <0> d          -1.842   2.321   2.088  0.00  0.00     0.034 H 
ATOM     19  H11 <0> d          -0.370   3.152   1.535  0.00  0.00     0.034 H 
ATOM     20  H12 <0> d          -2.056  -0.075   0.168  0.00  0.00     0.034 H 
ATOM     21  H13 <0> d          -3.150   1.151   0.839  0.00  0.00     0.034 H 
ENDROOT
BRANCH   7  22
ATOM     22  C9  <0> d          -0.014   1.204   0.009  0.00  0.00     0.177 C 
ATOM     23  O1  <0> d           0.002  -0.004   0.002  0.00  0.00    -0.648 OA
ATOM     24  O2  <0> d           1.139   1.891   0.001  0.00  0.00    -0.648 OA
ENDBRANCH   7  22
TORSDOF 1
