REMARK  3 active torsions:
REMARK  status: ('A' for Active; 'I' for Inactive)
REMARK    1  A    between atoms: C4_6  and  C5_8 
REMARK       I    between atoms: C5_8  and  N2_10 
REMARK    2  A    between atoms: N2_10  and  C6_11 
REMARK    3  A    between atoms: C6_11  and  O3_12 
ROOT
ATOM      1  C1  <0> d          -0.780   2.020   1.250  0.00  0.00    -0.030 C 
ATOM      2  C2  <0> d          -2.211   2.202   0.686  0.00  0.00     0.011 C 
ATOM      3  C3  <0> d          -2.001   2.401  -0.799  0.00  0.00     0.218 C 
ATOM      4  O1  <0> d          -2.829   2.852  -1.563  0.00  0.00    -0.274 OA
ATOM      5  N1  <0> d          -0.764   2.007  -1.149  0.00  0.00    -0.348 N 
ATOM      6  C4  <0> d          -0.018   1.503   0.010  0.00  0.00     0.090 C 
ATOM      7  H1  <0> d           0.999   1.893   0.003  0.00  0.00     0.087 H 
ATOM      8  H2  <0> d          -0.767   1.282   2.053  0.00  0.00     0.037 H 
ATOM      9  H3  <0> d          -0.371   2.971   1.591  0.00  0.00     0.037 H 
ATOM     10  H4  <0> d          -2.686   3.079   1.125  0.00  0.00     0.047 H 
ATOM     11  H5  <0> d          -2.810   1.310   0.870  0.00  0.00     0.047 H 
ATOM     12  H6  <0> d          -0.411   2.050  -2.051  0.00  0.00     0.163 HD
ENDROOT
BRANCH   6  13
ATOM     13  C5  <0> d           0.002  -0.004   0.002  0.00  0.00     0.242 C 
ATOM     14  O2  <0> d          -0.792  -0.618  -0.679  0.00  0.00    -0.271 OA
ATOM     15  N2  <0> d           0.903  -0.670   0.751  0.00  0.00    -0.338 N 
ATOM     16  H7  <0> d           1.539  -0.179   1.295  0.00  0.00     0.164 HD
BRANCH  15  17
ATOM     17  C6  <0> d           0.923  -2.135   0.743  0.00  0.00     0.077 C 
ATOM     18  H8  <0> d           1.191  -2.500   1.734  0.00  0.00     0.106 H 
ATOM     19  H9  <0> d          -0.064  -2.510   0.472  0.00  0.00     0.106 H 
BRANCH  17  20
ATOM     20  O3  <0> d           1.885  -2.593  -0.210  0.00  0.00    -0.382 OA
ATOM     21  H10 <0> d           1.952  -3.556  -0.269  0.00  0.00     0.211 HD
ENDBRANCH  17  20
ENDBRANCH  15  17
ENDBRANCH   6  13
TORSDOF 3
