REMARK  5 active torsions:
REMARK  status: ('A' for Active; 'I' for Inactive)
REMARK    1  A    between atoms: C1_1  and  C2_2 
REMARK    2  A    between atoms: C2_2  and  O2_4 
REMARK    3  A    between atoms: O2_4  and  C3_5 
REMARK    4  A    between atoms: C3_5  and  O3_6 
REMARK    5  A    between atoms: O3_6  and  C4_7 
ROOT
ATOM      1  C3  <0> d           0.002  -0.004   0.002  0.00  0.00     0.111 C 
ATOM      2  H4  <0> d          -0.988  -0.379  -0.257  0.00  0.00     0.118 H 
ATOM      3  H5  <0> d           0.727  -0.354  -0.734  0.00  0.00     0.118 H 
ENDROOT
BRANCH   1   4
ATOM      4  O2  <0> d           0.376  -0.490   1.318  0.00  0.00    -0.296 OA
BRANCH   4   5
ATOM      5  C2  <0> d          -0.557  -0.419   2.281  0.00  0.00     0.256 C 
ATOM      6  O1  <0> d          -1.649   0.034   2.033  0.00  0.00    -0.266 OA
BRANCH   5   7
ATOM      7  C1  <0> d          -0.242  -0.905   3.672  0.00  0.00     0.004 C 
ATOM      8  H1  <0> d           0.596  -0.336   4.075  0.00  0.00     0.041 H 
ATOM      9  H2  <0> d          -1.114  -0.769   4.311  0.00  0.00     0.041 H 
ATOM     10  H3  <0> d           0.021  -1.963   3.637  0.00  0.00     0.041 H 
ENDBRANCH   5   7
ENDBRANCH   4   5
ENDBRANCH   1   4
BRANCH   1  11
ATOM     11  O3  <0> d          -0.017   1.425   0.010  0.00  0.00    -0.371 OA
BRANCH  11  12
ATOM     12  C4  <0> d           1.280   2.024   0.001  0.00  0.00     0.006 C 
ATOM     13  H6  <0> d           1.834   1.705   0.884  0.00  0.00     0.066 H 
ATOM     14  H7  <0> d           1.817   1.714  -0.896  0.00  0.00     0.066 H 
ATOM     15  H8  <0> d           1.179   3.109   0.007  0.00  0.00     0.066 H 
ENDBRANCH  11  12
ENDBRANCH   1  11
TORSDOF 5
