REMARK  2 active torsions:
REMARK  status: ('A' for Active; 'I' for Inactive)
REMARK    1  A    between atoms: C1_1  and  C2_2 
REMARK    2  A    between atoms: C2_2  and  C3_3 
ROOT
ATOM      1  C3  <0> d           0.707  -0.490  -1.238  0.00  0.00     0.017 A 
ATOM      2  N1  <0> d           1.224   0.247  -2.154  0.00  0.00    -0.257 NA
ATOM      3  C4  <0> d           1.805  -0.455  -3.173  0.00  0.00     0.063 A 
ATOM      4  C5  <0> d           2.461  -0.030  -4.333  0.00  0.00    -0.055 A 
ATOM      5  C6  <0> d           2.967  -0.957  -5.219  0.00  0.00    -0.081 A 
ATOM      6  C7  <0> d           2.833  -2.312  -4.972  0.00  0.00    -0.082 A 
ATOM      7  C8  <0> d           2.186  -2.744  -3.825  0.00  0.00    -0.074 A 
ATOM      8  C9  <0> d           1.679  -1.827  -2.939  0.00  0.00    -0.024 A 
ATOM      9  C10 <0> d           0.941  -1.937  -1.625  0.00  0.00    -0.002 A 
ATOM     10  H6  <0> d           2.571   1.026  -4.535  0.00  0.00     0.087 H 
ATOM     11  H7  <0> d           3.472  -0.623  -6.113  0.00  0.00     0.083 H 
ATOM     12  H8  <0> d           3.232  -3.031  -5.671  0.00  0.00     0.083 H 
ATOM     13  H9  <0> d           2.080  -3.801  -3.630  0.00  0.00     0.084 H 
ATOM     14  H10 <0> d           1.554  -2.441  -0.877  0.00  0.00     0.049 H 
ATOM     15  H11 <0> d          -0.007  -2.457  -1.760  0.00  0.00     0.049 H 
ENDROOT
BRANCH   1  16
ATOM     16  C2  <0> d           0.002  -0.004   0.002  0.00  0.00    -0.031 C 
ATOM     17  H4  <0> d           0.529  -0.365   0.885  0.00  0.00     0.041 H 
ATOM     18  H5  <0> d          -1.020  -0.381   0.010  0.00  0.00     0.041 H 
BRANCH  16  19
ATOM     19  C1  <0> d          -0.019   1.526   0.010  0.00  0.00    -0.072 C 
ATOM     20  H1  <0> d           1.004   1.903   0.003  0.00  0.00     0.028 H 
ATOM     21  H2  <0> d          -0.546   1.887  -0.873  0.00  0.00     0.028 H 
ATOM     22  H3  <0> d          -0.529   1.877   0.907  0.00  0.00     0.028 H 
ENDBRANCH  16  19
ENDBRANCH   1  16
TORSDOF 2
