REMARK  4 active torsions:
REMARK  status: ('A' for Active; 'I' for Inactive)
REMARK    1  A    between atoms: C1_1  and  O1_2 
REMARK    2  A    between atoms: O1_2  and  C2_3 
REMARK    3  A    between atoms: C2_3  and  C3_4 
REMARK    4  A    between atoms: C4_6  and  N4_10 
ROOT
ATOM      1  C3  <0> d          -0.720   3.026   0.025  0.00  0.00     0.189 A 
ATOM      2  N1  <0> d           0.614   3.028   0.013  0.00  0.00    -0.044 NA
ATOM      3  C4  <0> d           1.058   1.790   0.002  0.00  0.00     0.716 A 
ATOM      4  N2  <0> d          -0.011   0.966   0.007  0.00  0.00    -0.106 N 
ATOM      5  H1  <0> d           0.135  -0.124   0.004  0.00  0.00     0.208 HD
ATOM      6  N3  <0> d          -1.146   1.792   0.017  0.00  0.00    -0.141 NA
ENDROOT
BRANCH   1   7
ATOM      7  C2  <0> d          -1.595   4.253   0.040  0.00  0.00     0.077 C 
ATOM      8  H5  <0> d          -1.072   5.071   0.558  0.00  0.00     0.086 H 
ATOM      9  H6  <0> d          -2.534   4.027   0.566  0.00  0.00     0.086 H 
BRANCH   7  10
ATOM     10  O1  <0> d          -1.885   4.648  -1.302  0.00  0.00    -0.388 OA
BRANCH  10  11
ATOM     11  C1  <0> d          -2.713   5.809  -1.401  0.00  0.00     0.004 C 
ATOM     12  H2  <0> d          -2.888   6.045  -2.461  0.00  0.00     0.066 H 
ATOM     13  H3  <0> d          -2.213   6.658  -0.913  0.00  0.00     0.066 H 
ATOM     14  H4  <0> d          -3.675   5.615  -0.905  0.00  0.00     0.066 H 
ENDBRANCH  10  11
ENDBRANCH   7  10
ENDBRANCH   1   7
BRANCH   3  15
ATOM     15  N4  <0> d           2.386   1.401  -0.013  0.00  0.00    -0.231 N 
ATOM     16  H7  <0> d           2.646   0.332  -0.021  0.00  0.00     0.174 HD
ATOM     17  H8  <0> d           3.181   2.161  -0.017  0.00  0.00     0.174 HD
ENDBRANCH   3  15
TORSDOF 4
