REMARK  2 active torsions:
REMARK  status: ('A' for Active; 'I' for Inactive)
REMARK    1  A    between atoms: C1_1  and  N1_2 
REMARK    2  A    between atoms: C3_4  and  C5_7 
ROOT
ATOM      1  N1  <0> d          -0.698   1.558   1.213  0.00  0.00    -0.354 N 
ATOM      2  C2  <0> d          -0.118   1.829   2.421  0.00  0.00     0.009 A 
ATOM      3  C3  <0> d          -1.114   2.238   3.250  0.00  0.00     0.084 A 
ATOM      4  N2  <0> d          -2.266   2.211   2.550  0.00  0.00    -0.242 NA
ATOM      5  C4  <0> d          -2.020   1.812   1.334  0.00  0.00     0.066 A 
ATOM      6  H4  <0> d           0.929   1.736   2.668  0.00  0.00     0.115 H 
ATOM      7  H5  <0> d          -2.755   1.699   0.550  0.00  0.00     0.143 H 
ENDROOT
BRANCH   3   8
ATOM      8  C5  <0> d          -0.960   2.642   4.669  0.00  0.00    -0.006 A 
ATOM      9  C10 <0> d          -2.073   3.041   5.407  0.00  0.00    -0.071 A 
ATOM     10  C9  <0> d          -1.925   3.415   6.727  0.00  0.00    -0.082 A 
ATOM     11  H10 <0> d          -3.050   3.058   4.946  0.00  0.00     0.084 H 
ATOM     12  C8  <0> d          -0.675   3.394   7.318  0.00  0.00    -0.083 A 
ATOM     13  H9  <0> d          -2.787   3.725   7.299  0.00  0.00     0.083 H 
ATOM     14  C7  <0> d           0.433   2.998   6.591  0.00  0.00    -0.082 A 
ATOM     15  H8  <0> d          -0.563   3.687   8.352  0.00  0.00     0.083 H 
ATOM     16  C6  <0> d           0.296   2.617   5.271  0.00  0.00    -0.071 A 
ATOM     17  H7  <0> d           1.407   2.984   7.057  0.00  0.00     0.083 H 
ATOM     18  H6  <0> d           1.161   2.304   4.706  0.00  0.00     0.084 H 
ENDBRANCH   3   8
BRANCH   1  19
ATOM     19  C1  <0> d          -0.013   1.086   0.008  0.00  0.00    -0.014 C 
ATOM     20  H1  <0> d           0.002  -0.004   0.002  0.00  0.00     0.057 H 
ATOM     21  H2  <0> d           1.010   1.463   0.000  0.00  0.00     0.057 H 
ATOM     22  H3  <0> d          -0.540   1.447  -0.875  0.00  0.00     0.057 H 
ENDBRANCH   1  19
TORSDOF 2
