REMARK  3 active torsions:
REMARK  status: ('A' for Active; 'I' for Inactive)
REMARK    1  A    between atoms: C1_1  and  O1_2 
REMARK    2  A    between atoms: O1_2  and  C2_3 
REMARK    3  A    between atoms: C2_3  and  C3_5 
ROOT
ATOM      1  C3  <0> d          -1.229   3.215   0.031  0.00  0.00     0.154 A 
ATOM      2  C4  <0> d          -0.084   3.948   0.024  0.00  0.00    -0.044 A 
ATOM      3  C5  <0> d           1.165   3.297   0.009  0.00  0.00    -0.074 A 
ATOM      4  C6  <0> d           1.202   1.937   0.001  0.00  0.00    -0.010 A 
ATOM      5  C7  <0> d          -0.014   1.214   0.009  0.00  0.00     0.288 A 
ATOM      6  O3  <0> d           0.002  -0.004   0.002  0.00  0.00    -0.260 OA
ATOM      7  O4  <0> d          -1.187   1.868   0.018  0.00  0.00    -0.269 OA
ATOM      8  H4  <0> d          -0.132   5.027   0.031  0.00  0.00     0.088 H 
ATOM      9  H5  <0> d           2.081   3.870   0.003  0.00  0.00     0.083 H 
ATOM     10  H6  <0> d           2.148   1.416  -0.011  0.00  0.00     0.092 H 
ENDROOT
BRANCH   1  11
ATOM     11  C2  <0> d          -2.535   3.903   0.047  0.00  0.00     0.317 C 
ATOM     12  O2  <0> d          -2.582   5.117   0.054  0.00  0.00    -0.257 OA
BRANCH  11  13
ATOM     13  O1  <0> d          -3.675   3.184   0.054  0.00  0.00    -0.321 OA
BRANCH  13  14
ATOM     14  C1  <0> d          -4.923   3.928   0.070  0.00  0.00     0.013 C 
ATOM     15  H1  <0> d          -4.963   4.550   0.964  0.00  0.00     0.067 H 
ATOM     16  H2  <0> d          -4.980   4.560  -0.816  0.00  0.00     0.067 H 
ATOM     17  H3  <0> d          -5.761   3.231   0.074  0.00  0.00     0.067 H 
ENDBRANCH  13  14
ENDBRANCH  11  13
ENDBRANCH   1  11
TORSDOF 3
