REMARK  8 active torsions:
REMARK  status: ('A' for Active; 'I' for Inactive)
REMARK    1  A    between atoms: C1_1  and  C2_2 
REMARK    2  A    between atoms: C2_2  and  C3_3 
REMARK    3  A    between atoms: C3_3  and  C4_5 
REMARK    4  A    between atoms: C3_3  and  C5_6 
REMARK    5  A    between atoms: C5_6  and  C6_8 
REMARK    6  A    between atoms: C5_6  and  N1_12 
REMARK    7  A    between atoms: C6_8  and  O2_10 
REMARK    8  A    between atoms: O2_10  and  C7_11 
ROOT
ATOM      1  C3  <0> d           0.718  -0.497  -1.257  0.00  0.00    -0.019 C 
ATOM      2  H1  <0> d           1.710  -0.049  -1.310  0.00  0.00     0.043 H 
ENDROOT
BRANCH   1   3
ATOM      3  C2  <0> d           0.002  -0.004   0.002  0.00  0.00    -0.063 C 
ATOM      4  H6  <0> d           0.529  -0.365   0.885  0.00  0.00     0.033 H 
ATOM      5  H7  <0> d          -1.020  -0.381   0.010  0.00  0.00     0.033 H 
BRANCH   3   6
ATOM      6  C1  <0> d          -0.019   1.526   0.010  0.00  0.00    -0.076 C 
ATOM      7  H3  <0> d           1.004   1.903   0.003  0.00  0.00     0.027 H 
ATOM      8  H4  <0> d          -0.546   1.887  -0.873  0.00  0.00     0.027 H 
ATOM      9  H5  <0> d          -0.529   1.877   0.907  0.00  0.00     0.027 H 
ENDBRANCH   3   6
ENDBRANCH   1   3
BRANCH   1  10
ATOM     10  C4  <0> d          -0.089  -0.097  -2.493  0.00  0.00    -0.070 C 
ATOM     11  H8  <0> d          -1.081  -0.545  -2.440  0.00  0.00     0.028 H 
ATOM     12  H9  <0> d          -0.183   0.989  -2.530  0.00  0.00     0.028 H 
ATOM     13  H10 <0> d           0.421  -0.448  -3.390  0.00  0.00     0.028 H 
ENDBRANCH   1  10
BRANCH   1  14
ATOM     14  C5  <0> d           0.849  -2.021  -1.205  0.00  0.00     0.216 C 
ATOM     15  H2  <0> d           1.347  -2.312  -0.280  0.00  0.00     0.104 H 
BRANCH  14  16
ATOM     16  C6  <0> d           1.661  -2.496  -2.382  0.00  0.00     0.292 C 
ATOM     17  O1  <0> d           1.107  -2.951  -3.355  0.00  0.00    -0.263 OA
BRANCH  16  18
ATOM     18  O2  <0> d           3.001  -2.413  -2.351  0.00  0.00    -0.325 OA
BRANCH  18  19
ATOM     19  C7  <0> d           3.706  -2.881  -3.502  0.00  0.00     0.013 C 
ATOM     20  H11 <0> d           3.482  -3.936  -3.662  0.00  0.00     0.067 H 
ATOM     21  H12 <0> d           3.398  -2.308  -4.376  0.00  0.00     0.067 H 
ATOM     22  H13 <0> d           4.778  -2.758  -3.346  0.00  0.00     0.067 H 
ENDBRANCH  18  19
ENDBRANCH  16  18
ENDBRANCH  14  16
BRANCH  14  23
ATOM     23  N1  <0> d          -0.487  -2.629  -1.254  0.00  0.00     0.092 N 
ATOM     24  H14 <0> d          -1.029  -2.378  -0.441  0.00  0.00     0.313 HD
ATOM     25  H15 <0> d          -0.969  -2.375  -2.103  0.00  0.00     0.313 HD
ENDBRANCH  14  23
ENDBRANCH   1  14
TORSDOF 8
