REMARK  3 active torsions:
REMARK  status: ('A' for Active; 'I' for Inactive)
REMARK    1  A    between atoms: C1_1  and  O1_2 
REMARK    2  A    between atoms: O1_2  and  C2_3 
REMARK    3  A    between atoms: C5_6  and  N2_9 
ROOT
ATOM      1  C2  <0> d          -3.569   3.050   0.036  0.00  0.00     0.163 A 
ATOM      2  C3  <0> d          -3.619   1.662   0.029  0.00  0.00    -0.030 A 
ATOM      3  C4  <0> d          -2.436   0.945   0.019  0.00  0.00    -0.052 A 
ATOM      4  C5  <0> d          -1.233   1.649   0.017  0.00  0.00     0.043 A 
ATOM      5  C6  <0> d          -1.262   3.036   0.030  0.00  0.00     0.030 A 
ATOM      6  N1  <0> d          -2.410   3.686   0.034  0.00  0.00    -0.235 NA
ATOM      7  H4  <0> d          -4.569   1.149   0.031  0.00  0.00     0.090 H 
ATOM      8  H5  <0> d          -2.444  -0.135   0.013  0.00  0.00     0.087 H 
ATOM      9  H6  <0> d          -0.335   3.589   0.033  0.00  0.00     0.118 H 
ENDROOT
BRANCH   1  10
ATOM     10  O1  <0> d          -4.725   3.762   0.046  0.00  0.00    -0.339 OA
BRANCH  10  11
ATOM     11  C1  <0> d          -4.609   5.187   0.054  0.00  0.00     0.012 C 
ATOM     12  H1  <0> d          -5.604   5.632   0.061  0.00  0.00     0.067 H 
ATOM     13  H2  <0> d          -4.063   5.502   0.943  0.00  0.00     0.067 H 
ATOM     14  H3  <0> d          -4.072   5.512  -0.837  0.00  0.00     0.067 H 
ENDBRANCH  10  11
ENDBRANCH   1  10
BRANCH   4  15
ATOM     15  N2  <0> d          -0.011   0.966   0.007  0.00  0.00    -0.398 N 
ATOM     16  H7  <0> d           0.002  -0.004   0.002  0.00  0.00     0.156 HD
ATOM     17  H8  <0> d           0.822   1.462   0.002  0.00  0.00     0.156 HD
ENDBRANCH   4  15
TORSDOF 3
