REMARK  4 active torsions:
REMARK  status: ('A' for Active; 'I' for Inactive)
REMARK    1  A    between atoms: C1_1  and  C2_2 
REMARK    2  A    between atoms: C2_2  and  C9_15 
REMARK    3  A    between atoms: C7_9  and  O2_14 
REMARK    4  A    between atoms: C8_11  and  O1_13 
ROOT
ATOM      1  C2  <0> d          -2.265   1.571   0.710  0.00  0.00    -0.035 C 
ATOM      2  C3  <0> d          -0.790   1.612   1.253  0.00  0.00    -0.020 C 
ATOM      3  H1  <0> d          -0.559   1.099   2.199  0.00  0.00     0.045 H 
ATOM      4  C4  <0> d          -0.013   1.086   0.008  0.00  0.00    -0.058 C 
ATOM      5  C5  <0> d          -0.806   1.621  -1.206  0.00  0.00    -0.058 C 
ATOM      6  C6  <0> d          -1.991   2.420  -0.581  0.00  0.00    -0.020 C 
ATOM      7  H2  <0> d          -2.828   2.623  -1.265  0.00  0.00     0.045 H 
ATOM      8  C7  <0> d          -1.323   3.684   0.041  0.00  0.00     0.065 C 
ATOM      9  H3  <0> d          -0.725   4.283  -0.661  0.00  0.00     0.087 H 
ATOM     10  C8  <0> d          -0.527   3.149   1.256  0.00  0.00     0.065 C 
ATOM     11  H4  <0> d          -0.758   3.654   2.206  0.00  0.00     0.087 H 
ATOM     12  H8  <0> d           1.016   1.475   0.026  0.00  0.00     0.033 H 
ATOM     13  H9  <0> d           0.011  -0.014   0.028  0.00  0.00     0.033 H 
ATOM     14  H10 <0> d          -0.155   2.264  -1.815  0.00  0.00     0.033 H 
ATOM     15  H11 <0> d          -1.159   0.775  -1.815  0.00  0.00     0.033 H 
ENDROOT
BRANCH   1  16
ATOM     16  C1  <0> d          -3.245   2.266   1.657  0.00  0.00    -0.068 C 
ATOM     17  H5  <0> d          -3.406   1.637   2.544  0.00  0.00     0.028 H 
ATOM     18  H6  <0> d          -4.203   2.425   1.141  0.00  0.00     0.028 H 
ATOM     19  H7  <0> d          -2.829   3.237   1.966  0.00  0.00     0.028 H 
ENDBRANCH   1  16
BRANCH   1  20
ATOM     20  C9  <0> d          -2.715   0.147   0.375  0.00  0.00    -0.068 C 
ATOM     21  H14 <0> d          -1.987  -0.318  -0.305  0.00  0.00     0.028 H 
ATOM     22  H15 <0> d          -3.702   0.179  -0.110  0.00  0.00     0.028 H 
ATOM     23  H16 <0> d          -2.780  -0.444   1.301  0.00  0.00     0.028 H 
ENDBRANCH   1  20
BRANCH   8  24
ATOM     24  O2  <0> d          -2.321   4.614   0.469  0.00  0.00    -0.393 OA
ATOM     25  H13 <0> d          -2.022   5.566   0.933  0.00  0.00     0.210 HD
ENDBRANCH   8  24
BRANCH  10  26
ATOM     26  O1  <0> d           0.867   3.417   1.094  0.00  0.00    -0.393 OA
ATOM     27  H12 <0> d           1.229   4.455   1.073  0.00  0.00     0.210 HD
ENDBRANCH  10  26
TORSDOF 4
