REMARK  1 active torsions:
REMARK  status: ('A' for Active; 'I' for Inactive)
REMARK    1  A    between atoms: C1_1  and  N1_2 
ROOT
ATOM      1  N1  <0> d           0.082  -2.743  -0.013  0.00  0.00    -0.329 N 
ATOM      2  C2  <0> d           1.203  -1.984  -0.018  0.00  0.00     0.069 A 
ATOM      3  N2  <0> d           1.174  -0.682  -0.018  0.00  0.00    -0.224 NA
ATOM      4  C3  <0> d           0.002  -0.004   0.002  0.00  0.00     0.153 A 
ATOM      5  N3  <0> d          -0.016   1.313   0.009  0.00  0.00    -0.382 N 
ATOM      6  C4  <0> d          -1.251  -0.775   0.010  0.00  0.00     0.126 A 
ATOM      7  C5  <0> d          -1.161  -2.160   0.002  0.00  0.00     0.162 A 
ATOM      8  N4  <0> d          -2.440  -2.628   0.011  0.00  0.00    -0.224 NA
ATOM      9  C6  <0> d          -3.271  -1.548   0.024  0.00  0.00     0.067 A 
ATOM     10  N5  <0> d          -2.563  -0.454   0.024  0.00  0.00    -0.345 N 
ATOM     11  H4  <0> d           2.162  -2.479  -0.030  0.00  0.00     0.143 H 
ATOM     12  H5  <0> d          -0.976   1.850   0.026  0.00  0.00     0.157 HD
ATOM     13  H6  <0> d          -4.350  -1.591   0.034  0.00  0.00     0.143 H 
ATOM     14  H7  <0> d          -2.870   0.602   0.032  0.00  0.00     0.167 HD
ATOM     15  H8  <0> d           0.929   1.876  -0.001  0.00  0.00     0.157 HD
ENDROOT
BRANCH   1  16
ATOM     16  C1  <0> d           0.197  -4.204  -0.022  0.00  0.00    -0.012 C 
ATOM     17  H1  <0> d           1.259  -4.488  -0.033  0.00  0.00     0.057 H 
ATOM     18  H2  <0> d          -0.299  -4.605  -0.918  0.00  0.00     0.057 H 
ATOM     19  H3  <0> d          -0.284  -4.615   0.878  0.00  0.00     0.057 H 
ENDBRANCH   1  16
TORSDOF 1
