REMARK  4 active torsions:
REMARK  status: ('A' for Active; 'I' for Inactive)
REMARK    1  A    between atoms: C1_1  and  N1_2 
REMARK    2  A    between atoms: N1_2  and  C2_3 
REMARK    3  A    between atoms: N1_2  and  C3_4 
REMARK    4  A    between atoms: C3_4  and  C4_5 
ROOT
ATOM      1  C3  <0> d          -1.148  -0.693   0.111  0.00  0.00    -0.016 C 
ATOM      2  H7  <0> d          -1.129  -1.772   0.155  0.00  0.00     0.112 H 
ENDROOT
BRANCH   1   3
ATOM      3  N1  <0> d           0.004  -0.002   0.041  0.00  0.00    -0.398 N 
BRANCH   3   4
ATOM      4  C1  <0> d          -0.023   1.461  -0.030  0.00  0.00    -0.020 C 
ATOM      5  H1  <0> d           0.996   1.846   0.016  0.00  0.00     0.056 H 
ATOM      6  H2  <0> d          -0.486   1.771  -0.967  0.00  0.00     0.056 H 
ATOM      7  H3  <0> d          -0.598   1.855   0.807  0.00  0.00     0.056 H 
ENDBRANCH   3   4
BRANCH   3   8
ATOM      8  C2  <0> d           1.285  -0.712   0.036  0.00  0.00    -0.020 C 
ATOM      9  H4  <0> d           1.635  -0.838   1.061  0.00  0.00     0.056 H 
ATOM     10  H5  <0> d           1.156  -1.691  -0.426  0.00  0.00     0.056 H 
ATOM     11  H6  <0> d           2.018  -0.137  -0.530  0.00  0.00     0.056 H 
ENDBRANCH   3   8
ENDBRANCH   1   3
BRANCH   1  12
ATOM     12  C4  <0> d          -2.362  -0.019   0.126  0.00  0.00    -0.021 A 
ATOM     13  C8  <0> d          -3.693  -0.595   0.339  0.00  0.00    -0.072 A 
ATOM     14  C7  <0> d          -4.583   0.426   0.276  0.00  0.00    -0.082 A 
ATOM     15  H11 <0> d          -3.922  -1.635   0.514  0.00  0.00     0.084 H 
ATOM     16  C6  <0> d          -3.917   1.632   0.025  0.00  0.00    -0.082 A 
ATOM     17  H10 <0> d          -5.652   0.324   0.397  0.00  0.00     0.083 H 
ATOM     18  C5  <0> d          -2.582   1.416  -0.073  0.00  0.00    -0.072 A 
ATOM     19  H9  <0> d          -4.397   2.594  -0.075  0.00  0.00     0.083 H 
ATOM     20  H8  <0> d          -1.824   2.162  -0.261  0.00  0.00     0.084 H 
ENDBRANCH   1  12
TORSDOF 4
