REMARK  5 active torsions:
REMARK  status: ('A' for Active; 'I' for Inactive)
REMARK    1  A    between atoms: C1_1  and  C2_2 
REMARK    2  A    between atoms: C2_2  and  C3_3 
REMARK    3  A    between atoms: C3_3  and  C4_4 
REMARK    4  A    between atoms: C4_4  and  C5_5 
REMARK    5  A    between atoms: C5_5  and  N1_6 
REMARK       I    between atoms: N1_6  and  C6_7 
REMARK       I    between atoms: C6_7  and  N2_9 
ROOT
ATOM      1  C4  <0> d           3.571   2.196  -0.020  0.00  0.00    -0.050 C 
ATOM      2  H8  <0> d           3.497   2.827  -0.906  0.00  0.00     0.035 H 
ATOM      3  H9  <0> d           3.514   2.817   0.874  0.00  0.00     0.035 H 
ENDROOT
BRANCH   1   4
ATOM      4  C3  <0> d           4.907   1.449  -0.037  0.00  0.00    -0.064 C 
ATOM      5  H6  <0> d           4.981   0.819   0.849  0.00  0.00     0.033 H 
ATOM      6  H7  <0> d           4.964   0.828  -0.931  0.00  0.00     0.033 H 
BRANCH   4   7
ATOM      7  C2  <0> d           6.056   2.459  -0.043  0.00  0.00    -0.068 C 
ATOM      8  H4  <0> d           5.981   3.090  -0.928  0.00  0.00     0.032 H 
ATOM      9  H5  <0> d           5.998   3.080   0.851  0.00  0.00     0.032 H 
BRANCH   7  10
ATOM     10  C1  <0> d           7.391   1.712  -0.059  0.00  0.00    -0.077 C 
ATOM     11  H1  <0> d           7.466   1.082   0.827  0.00  0.00     0.027 H 
ATOM     12  H2  <0> d           7.449   1.091  -0.953  0.00  0.00     0.027 H 
ATOM     13  H3  <0> d           8.210   2.432  -0.063  0.00  0.00     0.027 H 
ENDBRANCH   7  10
ENDBRANCH   4   7
ENDBRANCH   1   4
BRANCH   1  14
ATOM     14  C5  <0> d           2.422   1.186  -0.015  0.00  0.00    -0.003 C 
ATOM     15  H10 <0> d           2.497   0.556   0.871  0.00  0.00     0.064 H 
ATOM     16  H11 <0> d           2.480   0.565  -0.909  0.00  0.00     0.064 H 
BRANCH  14  17
ATOM     17  N1  <0> d           1.143   1.901   0.001  0.00  0.00    -0.343 N 
ATOM     18  C6  <0> d          -0.014   1.212   0.009  0.00  0.00     0.313 C 
ATOM     19  O1  <0> d           0.002  -0.004   0.002  0.00  0.00    -0.248 OA
ATOM     20  N2  <0> d          -1.191   1.870   0.018  0.00  0.00    -0.352 N 
ATOM     21  H13 <0> d          -2.024   1.373   0.019  0.00  0.00     0.160 HD
ATOM     22  H14 <0> d          -1.204   2.840   0.023  0.00  0.00     0.160 HD
ATOM     23  H12 <0> d           1.130   2.871   0.007  0.00  0.00     0.164 HD
ENDBRANCH  14  17
ENDBRANCH   1  14
TORSDOF 5
