REMARK  0 active torsions:
REMARK  status: ('A' for Active; 'I' for Inactive)
ROOT
ATOM      1  C1  <0> d          -0.749   1.590   1.258  0.00  0.00    -0.043 C 
ATOM      2  C2  <0> d          -0.605   3.105   1.344  0.00  0.00     0.011 C 
ATOM      3  C3  <0> d          -1.096   3.799   0.119  0.00  0.00     0.230 C 
ATOM      4  O1  <0> d          -1.426   4.959   0.252  0.00  0.00    -0.273 OA
ATOM      5  N1  <0> d          -1.212   3.288  -1.100  0.00  0.00    -0.254 N 
ATOM      6  S1  <0> d          -0.912   1.698  -1.448  0.00  0.00     0.233 S 
ATOM      7  O2  <0> d          -0.053   1.728  -2.580  0.00  0.00    -0.206 OA
ATOM      8  O3  <0> d          -2.196   1.093  -1.524  0.00  0.00    -0.206 OA
ATOM      9  C4  <0> d          -0.013   1.086   0.008  0.00  0.00     0.047 C 
ATOM     10  H1  <0> d          -1.805   1.328   1.189  0.00  0.00     0.035 H 
ATOM     11  H2  <0> d          -0.315   1.131   2.146  0.00  0.00     0.035 H 
ATOM     12  H3  <0> d           0.447   3.350   1.490  0.00  0.00     0.047 H 
ATOM     13  H4  <0> d          -1.173   3.462   2.203  0.00  0.00     0.047 H 
ATOM     14  H5  <0> d          -1.485   3.874  -1.823  0.00  0.00     0.181 HD
ATOM     15  H6  <0> d           0.002  -0.004   0.002  0.00  0.00     0.058 H 
ATOM     16  H7  <0> d           1.008   1.469   0.000  0.00  0.00     0.058 H 
ENDROOT
TORSDOF 0
