REMARK  1 active torsions:
REMARK  status: ('A' for Active; 'I' for Inactive)
REMARK    1  A    between atoms: N1_6  and  C5_7 
ROOT
ATOM      1  C1  <0> d           2.506  -2.054  -1.175  0.00  0.00     0.006 C 
ATOM      2  C2  <0> d           2.970  -3.511  -1.114  0.00  0.00     0.031 C 
ATOM      3  O1  <0> d           1.826  -4.369  -1.077  0.00  0.00    -0.389 OA
ATOM      4  C3  <0> d           0.959  -4.124   0.033  0.00  0.00     0.031 C 
ATOM      5  C4  <0> d           0.474  -2.672  -0.016  0.00  0.00     0.006 C 
ATOM      6  N1  <0> d           1.637  -1.773  -0.022  0.00  0.00    -0.245 NA
ATOM      7  H1  <0> d           1.952  -1.886  -2.098  0.00  0.00     0.059 H 
ATOM      8  H2  <0> d           3.374  -1.394  -1.145  0.00  0.00     0.059 H 
ATOM      9  H3  <0> d           3.570  -3.666  -0.217  0.00  0.00     0.076 H 
ATOM     10  H4  <0> d           3.568  -3.740  -1.996  0.00  0.00     0.076 H 
ATOM     11  H5  <0> d           1.500  -4.296   0.963  0.00  0.00     0.076 H 
ATOM     12  H6  <0> d           0.102  -4.796  -0.020  0.00  0.00     0.076 H 
ATOM     13  H7  <0> d          -0.141  -2.465   0.859  0.00  0.00     0.059 H 
ATOM     14  H8  <0> d          -0.113  -2.514  -0.920  0.00  0.00     0.059 H 
ENDROOT
BRANCH   6  15
ATOM     15  C5  <0> d           1.240  -0.448  -0.012  0.00  0.00     0.247 A 
ATOM     16  N4  <0> d           0.002  -0.004   0.002  0.00  0.00    -0.094 NA
ATOM     17  N3  <0> d          -0.015   1.280   0.009  0.00  0.00    -0.020 NA
ATOM     18  N2  <0> d           1.187   1.744   0.000  0.00  0.00    -0.020 NA
ATOM     19  N5  <0> d           2.023   0.635  -0.014  0.00  0.00    -0.094 NA
ENDBRANCH   6  15
TORSDOF 1
