REMARK  2 active torsions:
REMARK  status: ('A' for Active; 'I' for Inactive)
REMARK    1  A    between atoms: C3_3  and  C7_8 
REMARK    2  A    between atoms: C5_5  and  N1_7 
ROOT
ATOM      1  C1  <0> d          -0.017   1.377   0.010  0.00  0.00    -0.080 A 
ATOM      2  C2  <0> d           1.167   2.088   0.002  0.00  0.00    -0.071 A 
ATOM      3  C3  <0> d           2.386   1.413  -0.013  0.00  0.00    -0.004 A 
ATOM      4  C4  <0> d           2.406   0.021  -0.021  0.00  0.00    -0.045 A 
ATOM      5  C5  <0> d           1.213  -0.686  -0.013  0.00  0.00     0.026 A 
ATOM      6  C6  <0> d           0.002  -0.004   0.002  0.00  0.00    -0.058 A 
ATOM      7  H2  <0> d          -0.960   1.903   0.026  0.00  0.00     0.083 H 
ATOM      8  H3  <0> d           1.149   3.168   0.008  0.00  0.00     0.084 H 
ATOM      9  H4  <0> d           3.349  -0.507  -0.033  0.00  0.00     0.088 H 
ATOM     10  H5  <0> d          -0.927  -0.555   0.008  0.00  0.00     0.086 H 
ENDROOT
BRANCH   3  11
ATOM     11  C7  <0> d           3.659   2.176  -0.022  0.00  0.00     0.088 A 
ATOM     12  N3  <0> d           4.867   1.664  -0.128  0.00  0.00    -0.175 NA
ATOM     13  N2  <0> d           5.790   2.718  -0.098  0.00  0.00    -0.289 N 
ATOM     14  C9  <0> d           5.105   3.873   0.039  0.00  0.00    -0.002 A 
ATOM     15  H1  <0> d           6.754   2.632  -0.160  0.00  0.00     0.188 HD
ATOM     16  C8  <0> d           3.788   3.574   0.089  0.00  0.00    -0.036 A 
ATOM     17  H9  <0> d           5.533   4.863   0.097  0.00  0.00     0.113 H 
ATOM     18  H8  <0> d           2.979   4.281   0.195  0.00  0.00     0.089 H 
ENDBRANCH   3  11
BRANCH   5  19
ATOM     19  N1  <0> d           1.228  -2.083  -0.021  0.00  0.00    -0.399 N 
ATOM     20  H6  <0> d           2.074  -2.559  -0.032  0.00  0.00     0.156 HD
ATOM     21  H7  <0> d           0.394  -2.577  -0.016  0.00  0.00     0.156 HD
ENDBRANCH   5  19
TORSDOF 2
