REMARK  1 active torsions:
REMARK  status: ('A' for Active; 'I' for Inactive)
REMARK    1  A    between atoms: C1_1  and  C2_2 
ROOT
ATOM      1  C2  <0> d           2.122   0.653  -0.642  0.00  0.00     0.045 C 
ATOM      2  H1  <0> d           2.223   0.791  -1.719  0.00  0.00     0.083 H 
ATOM      3  C3  <0> d           1.478   1.902  -0.002  0.00  0.00    -0.032 C 
ATOM      4  C4  <0> d          -0.018   1.509   0.010  0.00  0.00     0.018 C 
ATOM      5  C5  <0> d           0.002  -0.004   0.002  0.00  0.00     0.259 C 
ATOM      6  O1  <0> d          -0.937  -0.711   0.282  0.00  0.00    -0.265 OA
ATOM      7  O2  <0> d           1.213  -0.446  -0.360  0.00  0.00    -0.316 OA
ATOM      8  H5  <0> d           1.644   2.786  -0.617  0.00  0.00     0.037 H 
ATOM      9  H6  <0> d           1.849   2.057   1.011  0.00  0.00     0.037 H 
ATOM     10  H7  <0> d          -0.521   1.889  -0.879  0.00  0.00     0.048 H 
ATOM     11  H8  <0> d          -0.504   1.880   0.913  0.00  0.00     0.048 H 
ENDROOT
BRANCH   1  12
ATOM     12  C1  <0> d           3.491   0.381  -0.015  0.00  0.00    -0.052 C 
ATOM     13  H2  <0> d           3.915  -0.525  -0.446  0.00  0.00     0.030 H 
ATOM     14  H3  <0> d           4.155   1.223  -0.212  0.00  0.00     0.030 H 
ATOM     15  H4  <0> d           3.378   0.252   1.062  0.00  0.00     0.030 H 
ENDBRANCH   1  12
TORSDOF 1
