REMARK  0 active torsions:
REMARK  status: ('A' for Active; 'I' for Inactive)
ROOT
ATOM      1  C1  <0> d          -1.241   3.785   0.034  0.00  0.00    -0.058 A 
ATOM      2  C2  <0> d          -1.233   2.399   0.021  0.00  0.00    -0.042 A 
ATOM      3  C3  <0> d          -0.021   1.732   0.012  0.00  0.00     0.125 A 
ATOM      4  N1  <0> d           1.117   2.400   0.004  0.00  0.00    -0.247 NA
ATOM      5  C4  <0> d           1.147   3.718   0.011  0.00  0.00     0.025 A 
ATOM      6  C5  <0> d          -0.025   4.452   0.026  0.00  0.00     0.051 A 
ATOM      7 Cl1  <0> d           0.026   6.188   0.035  0.00  0.00    -0.083 Cl
ATOM      8 Cl2  <0> d           0.002  -0.004   0.002  0.00  0.00    -0.062 Cl
ATOM      9  H1  <0> d          -2.172   4.332   0.046  0.00  0.00     0.086 H 
ATOM     10  H2  <0> d          -2.162   1.847   0.022  0.00  0.00     0.088 H 
ATOM     11  H3  <0> d           2.098   4.230   0.004  0.00  0.00     0.117 H 
ENDROOT
TORSDOF 0
