REMARK  2 active torsions:
REMARK  status: ('A' for Active; 'I' for Inactive)
REMARK    1  A    between atoms: C1_1  and  C2_2 
REMARK    2  A    between atoms: C6_7  and  C7_9 
ROOT
ATOM      1  C2  <0> d          -0.718   1.572   1.248  0.00  0.00    -0.017 A 
ATOM      2  C3  <0> d          -0.882   2.893   1.525  0.00  0.00    -0.022 A 
ATOM      3  C4  <0> d          -1.535   3.361   2.662  0.00  0.00     0.173 A 
ATOM      4  O1  <0> d          -1.603   4.578   2.761  0.00  0.00    -0.288 OA
ATOM      5  C5  <0> d          -2.116   2.647   3.706  0.00  0.00    -0.022 A 
ATOM      6  C6  <0> d          -2.135   1.288   3.763  0.00  0.00    -0.017 A 
ATOM      7  S1  <0> d          -1.374   0.490   2.429  0.00  0.00    -0.100 SA
ATOM      8  H4  <0> d          -0.489   3.616   0.826  0.00  0.00     0.091 H 
ATOM      9  H5  <0> d          -2.576   3.200   4.511  0.00  0.00     0.091 H 
ENDROOT
BRANCH   1  10
ATOM     10  C1  <0> d          -0.013   1.086   0.008  0.00  0.00    -0.045 C 
ATOM     11  H1  <0> d           0.002  -0.004   0.002  0.00  0.00     0.034 H 
ATOM     12  H2  <0> d           1.010   1.463   0.000  0.00  0.00     0.034 H 
ATOM     13  H3  <0> d          -0.540   1.447  -0.875  0.00  0.00     0.034 H 
ENDBRANCH   1  10
BRANCH   6  14
ATOM     14  C7  <0> d          -2.770   0.534   4.903  0.00  0.00    -0.045 C 
ATOM     15  H6  <0> d          -2.664  -0.537   4.734  0.00  0.00     0.034 H 
ATOM     16  H7  <0> d          -2.278   0.806   5.837  0.00  0.00     0.034 H 
ATOM     17  H8  <0> d          -3.829   0.789   4.963  0.00  0.00     0.034 H 
ENDBRANCH   6  14
TORSDOF 2
