REMARK  3 active torsions:
REMARK  status: ('A' for Active; 'I' for Inactive)
REMARK    1  A    between atoms: C1_1  and  C2_2 
REMARK    2  A    between atoms: C2_2  and  O1_3 
REMARK    3  A    between atoms: O1_3  and  C3_4 
ROOT
ATOM      1  C3  <0> d          -0.016   1.347   0.009  0.00  0.00     0.170 A 
ATOM      2  C4  <0> d           1.191   2.071   0.002  0.00  0.00    -0.017 A 
ATOM      3  C5  <0> d           1.145   3.426   0.009  0.00  0.00    -0.014 A 
ATOM      4  N1  <0> d          -0.065   4.051   0.024  0.00  0.00    -0.317 N 
ATOM      5  H1  <0> d          -0.116   5.149   0.029  0.00  0.00     0.170 HD
ATOM      6  C6  <0> d          -1.201   3.329   0.030  0.00  0.00     0.348 A 
ATOM      7  O2  <0> d          -2.277   3.905   0.044  0.00  0.00    -0.245 OA
ATOM      8  N2  <0> d          -1.170   1.997   0.018  0.00  0.00    -0.170 NA
ATOM      9  H7  <0> d           2.139   1.555  -0.009  0.00  0.00     0.092 H 
ATOM     10  H8  <0> d           2.058   4.003   0.003  0.00  0.00     0.111 H 
ENDROOT
BRANCH   1  11
ATOM     11  O1  <0> d           0.002  -0.004   0.002  0.00  0.00    -0.335 OA
BRANCH  11  12
ATOM     12  C2  <0> d          -1.262  -0.670   0.011  0.00  0.00     0.024 C 
ATOM     13  H5  <0> d          -1.837  -0.377  -0.881  0.00  0.00     0.074 H 
ATOM     14  H6  <0> d          -1.820  -0.387   0.915  0.00  0.00     0.074 H 
BRANCH  12  15
ATOM     15  C1  <0> d          -1.041  -2.184   0.000  0.00  0.00    -0.056 C 
ATOM     16  H2  <0> d          -2.014  -2.697   0.007  0.00  0.00     0.030 H 
ATOM     17  H3  <0> d          -0.467  -2.477   0.891  0.00  0.00     0.030 H 
ATOM     18  H4  <0> d          -0.484  -2.467  -0.905  0.00  0.00     0.030 H 
ENDBRANCH  12  15
ENDBRANCH  11  12
ENDBRANCH   1  11
TORSDOF 3
