REMARK  0 active torsions:
REMARK  status: ('A' for Active; 'I' for Inactive)
ROOT
ATOM      1  C1  <0> d          -0.019   1.541   0.011  0.00  0.00    -0.039 C 
ATOM      2  C2  <0> d           1.486   1.889  -0.002  0.00  0.00    -0.018 C 
ATOM      3  C3  <0> d           2.178   0.605  -0.404  0.00  0.00     0.058 C 
ATOM      4  C4  <0> d           3.510   0.440  -0.500  0.00  0.00     0.048 C 
ATOM      5  C5  <0> d           4.248  -0.827  -0.900  0.00  0.00    -0.013 C 
ATOM      6  C6  <0> d           5.695  -0.514  -0.451  0.00  0.00     0.033 C 
ATOM      7  O1  <0> d           5.743   0.923  -0.479  0.00  0.00    -0.317 OA
ATOM      8  C7  <0> d           4.510   1.415  -0.255  0.00  0.00     0.291 C 
ATOM      9  O2  <0> d           4.283   2.552   0.114  0.00  0.00    -0.260 OA
ATOM     10  O3  <0> d           1.260  -0.348  -0.652  0.00  0.00    -0.355 OA
ATOM     11  C8  <0> d           0.002  -0.004   0.002  0.00  0.00     0.026 C 
ATOM     12  H1  <0> d          -0.514   1.927  -0.881  0.00  0.00     0.036 H 
ATOM     13  H2  <0> d          -0.497   1.918   0.915  0.00  0.00     0.036 H 
ATOM     14  H3  <0> d           1.688   2.673  -0.732  0.00  0.00     0.043 H 
ATOM     15  H4  <0> d           1.812   2.201   0.991  0.00  0.00     0.043 H 
ATOM     16  H5  <0> d           3.854  -1.692  -0.366  0.00  0.00     0.043 H 
ATOM     17  H6  <0> d           4.200  -0.982  -1.978  0.00  0.00     0.043 H 
ATOM     18  H7  <0> d           5.874  -0.885   0.558  0.00  0.00     0.075 H 
ATOM     19  H8  <0> d           6.415  -0.937  -1.151  0.00  0.00     0.075 H 
ATOM     20  H9  <0> d          -0.015  -0.391   1.021  0.00  0.00     0.075 H 
ATOM     21  H10 <0> d          -0.843  -0.393  -0.566  0.00  0.00     0.075 H 
ENDROOT
TORSDOF 0
