REMARK  2 active torsions:
REMARK  status: ('A' for Active; 'I' for Inactive)
REMARK    1  A    between atoms: C2_2  and  O3_9 
REMARK    2  A    between atoms: C3_4  and  O2_8 
ROOT
ATOM      1  C1  <0> d           1.872   3.523   1.318  0.00  0.00     0.046 C 
ATOM      2  C2  <0> d           1.171   3.103   0.007  0.00  0.00     0.082 C 
ATOM      3  H1  <0> d           0.125   3.407   0.019  0.00  0.00     0.090 H 
ATOM      4  C3  <0> d           1.286   1.562  -0.002  0.00  0.00     0.082 C 
ATOM      5  H2  <0> d           1.855   1.226  -0.869  0.00  0.00     0.090 H 
ATOM      6  C4  <0> d           2.043   1.234   1.304  0.00  0.00     0.046 C 
ATOM      7  O1  <0> d           1.789   2.361   2.171  0.00  0.00    -0.386 OA
ATOM      8  H3  <0> d           2.914   3.779   1.126  0.00  0.00     0.078 H 
ATOM      9  H4  <0> d           1.352   4.366   1.773  0.00  0.00     0.078 H 
ATOM     10  H5  <0> d           1.654   0.318   1.749  0.00  0.00     0.078 H 
ATOM     11  H6  <0> d           3.111   1.138   1.110  0.00  0.00     0.078 H 
ENDROOT
BRANCH   2  12
ATOM     12  O3  <0> d           1.842   3.662  -1.124  0.00  0.00    -0.391 OA
ATOM     13  H8  <0> d           1.801   4.627  -1.168  0.00  0.00     0.210 HD
ENDBRANCH   2  12
BRANCH   4  14
ATOM     14  O2  <0> d          -0.011   0.963   0.007  0.00  0.00    -0.391 OA
ATOM     15  H7  <0> d           0.002  -0.004   0.002  0.00  0.00     0.210 HD
ENDBRANCH   4  14
TORSDOF 2
