REMARK  2 active torsions:
REMARK  status: ('A' for Active; 'I' for Inactive)
REMARK    1  A    between atoms: C8_8  and  C9_11 
REMARK    2  A    between atoms: C9_11  and  O1_12 
ROOT
ATOM      1  C1  <0> d          -2.566  -2.718  -2.918  0.00  0.00    -0.082 A 
ATOM      2  C2  <0> d          -1.391  -2.645  -3.643  0.00  0.00    -0.081 A 
ATOM      3  C3  <0> d          -0.319  -1.927  -3.158  0.00  0.00    -0.057 A 
ATOM      4  C4  <0> d          -0.410  -1.269  -1.930  0.00  0.00     0.034 A 
ATOM      5  C5  <0> d          -1.592  -1.348  -1.210  0.00  0.00    -0.030 A 
ATOM      6  C6  <0> d          -2.664  -2.069  -1.701  0.00  0.00    -0.075 A 
ATOM      7  C7  <0> d          -1.431  -0.557   0.069  0.00  0.00    -0.018 A 
ATOM      8  C8  <0> d           0.002  -0.004   0.002  0.00  0.00     0.034 A 
ATOM      9  H1  <0> d           0.593  -0.378   0.838  0.00  0.00     0.076 H 
ATOM     10  N1  <0> d           0.546  -0.498  -1.266  0.00  0.00    -0.382 N 
ATOM     11  H2  <0> d          -3.404  -3.281  -3.300  0.00  0.00     0.083 H 
ATOM     12  H3  <0> d          -1.313  -3.151  -4.594  0.00  0.00     0.083 H 
ATOM     13  H4  <0> d           0.596  -1.873  -3.730  0.00  0.00     0.086 H 
ATOM     14  H5  <0> d          -3.581  -2.125  -1.133  0.00  0.00     0.084 H 
ATOM     15  H6  <0> d          -1.548  -1.208   0.935  0.00  0.00     0.043 H 
ATOM     16  H7  <0> d          -2.152   0.259   0.104  0.00  0.00     0.043 H 
ATOM     17  H8  <0> d           1.440  -0.317  -1.595  0.00  0.00     0.160 HD
ENDROOT
BRANCH   8  18
ATOM     18  C9  <0> d          -0.019   1.526   0.010  0.00  0.00     0.036 C 
ATOM     19  H9  <0> d          -0.546   1.887  -0.873  0.00  0.00     0.077 H 
ATOM     20  H10 <0> d          -0.529   1.877   0.907  0.00  0.00     0.077 H 
BRANCH  18  21
ATOM     21  O1  <0> d           1.322   2.020   0.000  0.00  0.00    -0.399 OA
ATOM     22  H11 <0> d           1.385   2.985   0.005  0.00  0.00     0.209 HD
ENDBRANCH  18  21
ENDBRANCH   8  18
TORSDOF 2
