REMARK  2 active torsions:
REMARK  status: ('A' for Active; 'I' for Inactive)
REMARK    1  A    between atoms: C3_3  and  C5_7 
REMARK    2  A    between atoms: C5_7  and  N1_8 
REMARK       I    between atoms: N1_8  and  C6_9 
REMARK       I    between atoms: C6_9  and  N2_11 
ROOT
ATOM      1  C1  <0> d          -0.811   1.623  -1.201  0.00  0.00    -0.043 C 
ATOM      2  C2  <0> d          -0.013   1.086   0.008  0.00  0.00    -0.037 C 
ATOM      3  C3  <0> d          -0.788   1.610   1.237  0.00  0.00     0.053 C 
ATOM      4  H1  <0> d          -1.490   0.856   1.593  0.00  0.00     0.085 H 
ATOM      5  O1  <0> d          -1.501   2.772   0.753  0.00  0.00    -0.384 OA
ATOM      6  C4  <0> d          -1.978   2.408  -0.561  0.00  0.00     0.020 C 
ATOM      7  H2  <0> d          -0.191   2.285  -1.804  0.00  0.00     0.036 H 
ATOM      8  H3  <0> d          -1.189   0.799  -1.806  0.00  0.00     0.036 H 
ATOM      9  H4  <0> d           0.002  -0.004   0.002  0.00  0.00     0.036 H 
ATOM     10  H5  <0> d           1.003   1.481   0.000  0.00  0.00     0.036 H 
ATOM     11  H6  <0> d          -2.199   3.302  -1.145  0.00  0.00     0.074 H 
ATOM     12  H7  <0> d          -2.863   1.777  -0.484  0.00  0.00     0.074 H 
ENDROOT
BRANCH   3  13
ATOM     13  C5  <0> d           0.184   2.003   2.352  0.00  0.00     0.021 C 
ATOM     14  H8  <0> d           0.831   1.158   2.585  0.00  0.00     0.068 H 
ATOM     15  H9  <0> d           0.792   2.846   2.023  0.00  0.00     0.068 H 
BRANCH  13  16
ATOM     16  N1  <0> d          -0.573   2.384   3.547  0.00  0.00    -0.341 N 
ATOM     17  C6  <0> d           0.079   2.770   4.662  0.00  0.00     0.313 C 
ATOM     18  O2  <0> d           1.294   2.802   4.676  0.00  0.00    -0.248 OA
ATOM     19  N2  <0> d          -0.617   3.119   5.762  0.00  0.00    -0.352 N 
ATOM     20  H11 <0> d          -1.587   3.093   5.751  0.00  0.00     0.160 HD
ATOM     21  H12 <0> d          -0.148   3.397   6.565  0.00  0.00     0.160 HD
ATOM     22  H10 <0> d          -1.542   2.357   3.536  0.00  0.00     0.164 HD
ENDBRANCH  13  16
ENDBRANCH   3  13
TORSDOF 2
