REMARK  5 active torsions:
REMARK  status: ('A' for Active; 'I' for Inactive)
REMARK    1  A    between atoms: C3_3  and  N2_11 
REMARK    2  A    between atoms: C4_4  and  O1_7 
REMARK    3  A    between atoms: O1_7  and  C6_8 
REMARK    4  A    between atoms: C6_8  and  C7_9 
REMARK    5  A    between atoms: C7_9  and  O2_10 
ROOT
ATOM      1  C1  <0> d           1.232  -0.648  -0.013  0.00  0.00    -0.064 A 
ATOM      2  C2  <0> d           0.002  -0.004   0.002  0.00  0.00    -0.052 A 
ATOM      3  C3  <0> d          -0.017   1.385   0.010  0.00  0.00     0.079 A 
ATOM      4  C4  <0> d           1.195   2.078   0.002  0.00  0.00     0.191 A 
ATOM      5  N1  <0> d           2.342   1.423  -0.013  0.00  0.00    -0.235 NA
ATOM      6  C5  <0> d           2.389   0.104  -0.020  0.00  0.00     0.005 A 
ATOM      7  H1  <0> d           1.282  -1.727  -0.020  0.00  0.00     0.085 H 
ATOM      8  H2  <0> d          -0.918  -0.570   0.007  0.00  0.00     0.087 H 
ATOM      9  H3  <0> d           3.347  -0.395  -0.032  0.00  0.00     0.114 H 
ENDROOT
BRANCH   4  10
ATOM     10  O1  <0> d           1.194   3.436   0.009  0.00  0.00    -0.331 OA
BRANCH  10  11
ATOM     11  C6  <0> d           2.467   4.085   0.000  0.00  0.00     0.047 C 
ATOM     12  H4  <0> d           3.038   3.785   0.891  0.00  0.00     0.078 H 
ATOM     13  H5  <0> d           3.020   3.795  -0.905  0.00  0.00     0.078 H 
BRANCH  11  14
ATOM     14  C7  <0> d           2.265   5.602   0.011  0.00  0.00     0.037 C 
ATOM     15  H6  <0> d           3.240   6.102  -0.086  0.00  0.00     0.077 H 
ATOM     16  H7  <0> d           1.619   5.891  -0.831  0.00  0.00     0.077 H 
BRANCH  14  17
ATOM     17  O2  <0> d           1.650   5.992   1.240  0.00  0.00    -0.399 OA
ATOM     18  H8  <0> d           1.425   7.052   1.430  0.00  0.00     0.209 HD
ENDBRANCH  14  17
ENDBRANCH  11  14
ENDBRANCH  10  11
ENDBRANCH   4  10
BRANCH   3  19
ATOM     19  N2  <0> d          -1.232   2.079   0.019  0.00  0.00    -0.396 N 
ATOM     20  H9  <0> d          -1.237   3.179   0.025  0.00  0.00     0.156 HD
ATOM     21  H10 <0> d          -2.182   1.525   0.021  0.00  0.00     0.156 HD
ENDBRANCH   3  19
TORSDOF 5
