REMARK  4 active torsions:
REMARK  status: ('A' for Active; 'I' for Inactive)
REMARK    1  A    between atoms: C1_1  and  O1_2 
REMARK    2  A    between atoms: O1_2  and  C2_3 
REMARK    3  A    between atoms: C2_3  and  C3_4 
REMARK    4  A    between atoms: C3_4  and  C4_5 
ROOT
ATOM      1  C4  <0> d          -0.018   1.468   0.010  0.00  0.00     0.017 C 
ATOM      2  C5  <0> d           0.002  -0.004   0.002  0.00  0.00     0.059 C 
ATOM      3  N1  <0> d           0.018  -1.140  -0.004  0.00  0.00    -0.197 NA
ATOM      4  H8  <0> d          -0.550   1.832  -0.881  0.00  0.00     0.055 H 
ATOM      5  H9  <0> d           1.014   1.849   0.002  0.00  0.00     0.055 H 
ENDROOT
BRANCH   1   6
ATOM      6  C3  <0> d          -0.734   1.961   1.269  0.00  0.00    -0.034 C 
ATOM      7  H6  <0> d          -0.202   1.597   2.160  0.00  0.00     0.037 H 
ATOM      8  H7  <0> d          -1.766   1.580   1.277  0.00  0.00     0.037 H 
BRANCH   6   9
ATOM      9  C2  <0> d          -0.755   3.491   1.277  0.00  0.00     0.020 C 
ATOM     10  H4  <0> d          -1.287   3.855   0.386  0.00  0.00     0.074 H 
ATOM     11  H5  <0> d           0.277   3.872   1.269  0.00  0.00     0.074 H 
BRANCH   9  12
ATOM     12  O1  <0> d          -1.424   3.952   2.453  0.00  0.00    -0.396 OA
BRANCH  12  13
ATOM     13  C1  <0> d          -1.498   5.375   2.559  0.00  0.00     0.004 C 
ATOM     14  H1  <0> d          -2.025   5.646   3.486  0.00  0.00     0.066 H 
ATOM     15  H2  <0> d          -2.046   5.779   1.695  0.00  0.00     0.066 H 
ATOM     16  H3  <0> d          -0.482   5.795   2.578  0.00  0.00     0.066 H 
ENDBRANCH  12  13
ENDBRANCH   9  12
ENDBRANCH   6   9
ENDBRANCH   1   6
TORSDOF 4
