REMARK  1 active torsions:
REMARK  status: ('A' for Active; 'I' for Inactive)
REMARK    1  A    between atoms: C1_1  and  C2_2 
ROOT
ATOM      1  C2  <0> d           1.174   1.785   0.000  0.00  0.00    -0.053 A 
ATOM      2  C3  <0> d          -0.013   1.076   0.008  0.00  0.00    -0.077 A 
ATOM      3  C4  <0> d          -1.218   1.752   0.017  0.00  0.00    -0.080 A 
ATOM      4  C5  <0> d          -1.240   3.131   0.031  0.00  0.00    -0.057 A 
ATOM      5  C6  <0> d          -0.046   3.854   0.023  0.00  0.00     0.034 A 
ATOM      6  C7  <0> d           1.157   3.166   0.008  0.00  0.00    -0.024 A 
ATOM      7  C8  <0> d           2.286   4.172   0.003  0.00  0.00    -0.024 A 
ATOM      8  C9  <0> d           1.585   5.540   0.017  0.00  0.00    -0.004 A 
ATOM      9  N1  <0> d           0.151   5.236   0.029  0.00  0.00    -0.389 N 
ATOM     10  H4  <0> d           0.002  -0.004   0.002  0.00  0.00     0.084 H 
ATOM     11  H5  <0> d          -2.146   1.199   0.018  0.00  0.00     0.083 H 
ATOM     12  H6  <0> d          -2.186   3.654   0.043  0.00  0.00     0.086 H 
ATOM     13  H7  <0> d           2.906   4.053   0.892  0.00  0.00     0.042 H 
ATOM     14  H8  <0> d           2.890   4.062  -0.898  0.00  0.00     0.042 H 
ATOM     15  H9  <0> d           1.860   6.098   0.912  0.00  0.00     0.064 H 
ATOM     16  H10 <0> d           1.845   6.108  -0.877  0.00  0.00     0.064 H 
ATOM     17  H11 <0> d          -0.557   5.899   0.039  0.00  0.00     0.159 HD
ENDROOT
BRANCH   1  18
ATOM     18  C1  <0> d           2.490   1.050  -0.017  0.00  0.00    -0.051 C 
ATOM     19  H1  <0> d           2.797   0.878  -1.048  0.00  0.00     0.033 H 
ATOM     20  H2  <0> d           3.246   1.646   0.493  0.00  0.00     0.033 H 
ATOM     21  H3  <0> d           2.377   0.093   0.493  0.00  0.00     0.033 H 
ENDBRANCH   1  18
TORSDOF 1
