REMARK  3 active torsions:
REMARK  status: ('A' for Active; 'I' for Inactive)
REMARK    1  A    between atoms: C1_1  and  O1_2 
REMARK    2  A    between atoms: O1_2  and  C2_3 
REMARK    3  A    between atoms: C5_9  and  N3_11 
ROOT
ATOM      1  C2  <0> d          -3.516   1.561   0.027  0.00  0.00     0.188 A 
ATOM      2  C3  <0> d          -3.575   2.944   0.035  0.00  0.00     0.035 A 
ATOM      3  C4  <0> d          -2.377   3.669   0.033  0.00  0.00     0.263 A 
ATOM      4  O2  <0> d          -2.390   4.890   0.040  0.00  0.00    -0.268 OA
ATOM      5  N1  <0> d          -1.208   2.995   0.030  0.00  0.00    -0.154 N 
ATOM      6  H1  <0> d          -0.369   3.481   0.032  0.00  0.00     0.187 HD
ATOM      7  C5  <0> d          -1.206   1.634   0.017  0.00  0.00     0.703 A 
ATOM      8  N2  <0> d          -2.329   0.947   0.018  0.00  0.00    -0.040 NA
ATOM      9  H5  <0> d          -4.527   3.454   0.043  0.00  0.00     0.099 H 
ENDROOT
BRANCH   1  10
ATOM     10  O1  <0> d          -4.657   0.833   0.028  0.00  0.00    -0.339 OA
BRANCH  10  11
ATOM     11  C1  <0> d          -4.519  -0.589   0.019  0.00  0.00     0.012 C 
ATOM     12  H2  <0> d          -3.968  -0.906   0.905  0.00  0.00     0.067 H 
ATOM     13  H3  <0> d          -5.507  -1.050   0.021  0.00  0.00     0.067 H 
ATOM     14  H4  <0> d          -3.977  -0.896  -0.875  0.00  0.00     0.067 H 
ENDBRANCH  10  11
ENDBRANCH   1  10
BRANCH   7  15
ATOM     15  N3  <0> d          -0.011   0.966   0.007  0.00  0.00    -0.233 N 
ATOM     16  H6  <0> d           0.002  -0.004   0.002  0.00  0.00     0.174 HD
ATOM     17  H7  <0> d           0.822   1.462   0.002  0.00  0.00     0.174 HD
ENDBRANCH   7  15
TORSDOF 3
