REMARK  3 active torsions:
REMARK  status: ('A' for Active; 'I' for Inactive)
REMARK    1  A    between atoms: C1_1  and  O1_2 
REMARK    2  A    between atoms: O1_2  and  C2_3 
REMARK    3  A    between atoms: C2_3  and  C7_9 
ROOT
ATOM      1  C2  <0> d           2.164   0.065   1.316  0.00  0.00     0.151 C 
ATOM      2  C3  <0> d           0.692  -0.357   1.337  0.00  0.00    -0.006 C 
ATOM      3  C4  <0> d          -0.008   0.198   0.093  0.00  0.00     0.023 C 
ATOM      4  O2  <0> d           0.132   1.620   0.066  0.00  0.00    -0.391 OA
ATOM      5  C5  <0> d           1.486   2.072  -0.002  0.00  0.00     0.023 C 
ATOM      6  C6  <0> d           2.245   1.592   1.237  0.00  0.00    -0.006 C 
ATOM      7  H4  <0> d           0.625  -1.456   1.339  0.00  0.00     0.041 H 
ATOM      8  H5  <0> d           0.209   0.041   2.241  0.00  0.00     0.041 H 
ATOM      9  H6  <0> d           0.450  -0.234  -0.809  0.00  0.00     0.074 H 
ATOM     10  H7  <0> d          -1.075  -0.066   0.125  0.00  0.00     0.074 H 
ATOM     11  H8  <0> d           1.963   1.666  -0.906  0.00  0.00     0.074 H 
ATOM     12  H9  <0> d           1.504   3.171  -0.041  0.00  0.00     0.074 H 
ATOM     13  H10 <0> d           1.794   2.030   2.140  0.00  0.00     0.041 H 
ATOM     14  H11 <0> d           3.299   1.901   1.167  0.00  0.00     0.041 H 
ENDROOT
BRANCH   1  15
ATOM     15  O1  <0> d           2.810  -0.508   0.176  0.00  0.00    -0.374 OA
BRANCH  15  16
ATOM     16  C1  <0> d           2.724  -1.933   0.115  0.00  0.00     0.006 C 
ATOM     17  H1  <0> d           3.242  -2.293  -0.786  0.00  0.00     0.066 H 
ATOM     18  H2  <0> d           1.667  -2.235   0.075  0.00  0.00     0.066 H 
ATOM     19  H3  <0> d           3.197  -2.367   1.008  0.00  0.00     0.066 H 
ENDBRANCH  15  16
ENDBRANCH   1  15
BRANCH   1  20
ATOM     20  C7  <0> d           2.843  -0.412   2.574  0.00  0.00     0.209 C 
ATOM     21  O3  <0> d           2.193  -0.616   3.571  0.00  0.00    -0.646 OA
ATOM     22  O4  <0> d           4.171  -0.610   2.586  0.00  0.00    -0.646 OA
ENDBRANCH   1  20
TORSDOF 3
