REMARK  7 active torsions:
REMARK  status: ('A' for Active; 'I' for Inactive)
REMARK    1  A    between atoms: C1_1  and  C2_2 
REMARK    2  A    between atoms: C2_2  and  C3_4 
REMARK    3  A    between atoms: C2_2  and  O2_9 
REMARK    4  A    between atoms: C3_4  and  C4_5 
REMARK    5  A    between atoms: C4_5  and  C5_6 
REMARK    6  A    between atoms: C4_5  and  C6_7 
REMARK    7  A    between atoms: C4_5  and  O1_8 
ROOT
ATOM      1  C3  <0> d          -0.013   1.086   0.008  0.00  0.00    -0.014 C 
ATOM      2  H5  <0> d           0.002  -0.004   0.002  0.00  0.00     0.041 H 
ATOM      3  H6  <0> d           1.010   1.463   0.000  0.00  0.00     0.041 H 
ENDROOT
BRANCH   1   4
ATOM      4  C2  <0> d          -0.729   1.579   1.267  0.00  0.00     0.035 C 
ATOM      5  H1  <0> d          -1.776   1.277   1.232  0.00  0.00     0.082 H 
BRANCH   4   6
ATOM      6  C1  <0> d          -0.064   0.971   2.503  0.00  0.00    -0.052 C 
ATOM      7  H2  <0> d           0.983   1.274   2.539  0.00  0.00     0.030 H 
ATOM      8  H3  <0> d          -0.574   1.323   3.400  0.00  0.00     0.030 H 
ATOM      9  H4  <0> d          -0.126  -0.116   2.452  0.00  0.00     0.030 H 
ENDBRANCH   4   6
BRANCH   4  10
ATOM     10  O2  <0> d          -0.647   3.004   1.334  0.00  0.00    -0.396 OA
ATOM     11  H14 <0> d           0.258   3.345   1.368  0.00  0.00     0.210 HD
ENDBRANCH   4  10
ENDBRANCH   1   4
BRANCH   1  12
ATOM     12  C4  <0> d          -0.753   1.593  -1.232  0.00  0.00     0.053 C 
BRANCH  12  13
ATOM     13  C5  <0> d          -0.111   0.998  -2.487  0.00  0.00    -0.048 C 
ATOM     14  H7  <0> d          -0.173  -0.089  -2.446  0.00  0.00     0.031 H 
ATOM     15  H8  <0> d          -0.639   1.359  -3.370  0.00  0.00     0.031 H 
ATOM     16  H9  <0> d           0.934   1.301  -2.539  0.00  0.00     0.031 H 
ENDBRANCH  12  13
BRANCH  12  17
ATOM     17  C6  <0> d          -2.221   1.167  -1.159  0.00  0.00    -0.048 C 
ATOM     18  H10 <0> d          -2.678   1.591  -0.264  0.00  0.00     0.031 H 
ATOM     19  H11 <0> d          -2.748   1.529  -2.042  0.00  0.00     0.031 H 
ATOM     20  H12 <0> d          -2.282   0.080  -1.118  0.00  0.00     0.031 H 
ENDBRANCH  12  17
BRANCH  12  21
ATOM     21  O1  <0> d          -0.672   3.018  -1.285  0.00  0.00    -0.391 OA
ATOM     22  H13 <0> d           0.232   3.360  -1.333  0.00  0.00     0.210 HD
ENDBRANCH  12  21
ENDBRANCH   1  12
TORSDOF 7
