REMARK  1 active torsions:
REMARK  status: ('A' for Active; 'I' for Inactive)
REMARK    1  A    between atoms: N2_4  and  C4_6 
ROOT
ATOM      1  C4  <0> d           1.704   3.175   0.003  0.00  0.00     0.094 C 
ATOM      2  C5  <0> d           2.622   3.397   1.132  0.00  0.00     0.081 C 
ATOM      3  N3  <0> d           3.330   3.569   2.004  0.00  0.00    -0.195 NA
ATOM      4  H4  <0> d           2.219   3.396  -0.932  0.00  0.00     0.089 H 
ATOM      5  H5  <0> d           0.838   3.829   0.104  0.00  0.00     0.089 H 
ENDROOT
BRANCH   1   6
ATOM      6  N2  <0> d           1.263   1.778  -0.001  0.00  0.00    -0.268 N 
ATOM      7  N1  <0> d           2.095   0.651  -0.015  0.00  0.00    -0.184 NA
ATOM      8  C2  <0> d           1.339  -0.416  -0.013  0.00  0.00     0.023 A 
ATOM      9  C1  <0> d           0.002  -0.004   0.002  0.00  0.00    -0.048 A 
ATOM     10  H2  <0> d           1.686  -1.439  -0.022  0.00  0.00     0.117 H 
ATOM     11  C3  <0> d          -0.016   1.349   0.009  0.00  0.00     0.001 A 
ATOM     12  H1  <0> d          -0.863  -0.651   0.007  0.00  0.00     0.087 H 
ATOM     13  H3  <0> d          -0.897   1.974   0.017  0.00  0.00     0.114 H 
ENDBRANCH   1   6
TORSDOF 1
