REMARK  2 active torsions:
REMARK  status: ('A' for Active; 'I' for Inactive)
REMARK    1  A    between atoms: C1_1  and  O1_2 
REMARK    2  A    between atoms: O1_2  and  C2_3 
ROOT
ATOM      1  C2  <0> d           2.383   1.427  -0.013  0.00  0.00     0.127 A 
ATOM      2  C3  <0> d           2.405   0.026  -0.021  0.00  0.00     0.081 A 
ATOM      3  C4  <0> d           1.201  -0.683  -0.013  0.00  0.00    -0.060 A 
ATOM      4  C5  <0> d           0.002  -0.004   0.002  0.00  0.00    -0.078 A 
ATOM      5  C6  <0> d          -0.017   1.381   0.010  0.00  0.00    -0.043 A 
ATOM      6  C7  <0> d           1.167   2.096   0.002  0.00  0.00     0.151 A 
ATOM      7  F1  <0> d           1.139   3.447   0.009  0.00  0.00    -0.203 F 
ATOM      8  C8  <0> d           3.654  -0.674  -0.036  0.00  0.00     0.102 C 
ATOM      9  N1  <0> d           4.644  -1.230  -0.048  0.00  0.00    -0.191 NA
ATOM     10  H4  <0> d           1.211  -1.763  -0.019  0.00  0.00     0.086 H 
ATOM     11  H5  <0> d          -0.927  -0.554   0.008  0.00  0.00     0.083 H 
ATOM     12  H6  <0> d          -0.961   1.905   0.017  0.00  0.00     0.088 H 
ENDROOT
BRANCH   1  13
ATOM     13  O1  <0> d           3.546   2.127  -0.020  0.00  0.00    -0.351 OA
BRANCH  13  14
ATOM     14  C1  <0> d           4.091   2.469  -1.296  0.00  0.00     0.011 C 
ATOM     15  H1  <0> d           5.026   3.030  -1.158  0.00  0.00     0.067 H 
ATOM     16  H2  <0> d           3.369   3.089  -1.849  0.00  0.00     0.067 H 
ATOM     17  H3  <0> d           4.295   1.550  -1.865  0.00  0.00     0.067 H 
ENDBRANCH  13  14
ENDBRANCH   1  13
TORSDOF 2
