REMARK  1 active torsions:
REMARK  status: ('A' for Active; 'I' for Inactive)
REMARK    1  A    between atoms: C1_1  and  C2_2 
ROOT
ATOM      1  C2  <0> d           1.135   1.807   0.001  0.00  0.00    -0.001 A 
ATOM      2  C3  <0> d          -0.013   1.076   0.008  0.00  0.00    -0.052 A 
ATOM      3  C4  <0> d          -1.194   1.784   0.017  0.00  0.00     0.011 A 
ATOM      4  N1  <0> d          -1.145   3.094   0.030  0.00  0.00    -0.224 NA
ATOM      5  S1  <0> d           0.530   3.431   0.015  0.00  0.00     0.005 SA
ATOM      6  H4  <0> d           0.002  -0.004   0.002  0.00  0.00     0.087 H 
ATOM      7  H5  <0> d          -2.143   1.270   0.019  0.00  0.00     0.115 H 
ENDROOT
BRANCH   1   8
ATOM      8  C1  <0> d           2.563   1.328  -0.015  0.00  0.00    -0.044 C 
ATOM      9  H1  <0> d           2.898   1.218  -1.046  0.00  0.00     0.034 H 
ATOM     10  H2  <0> d           3.196   2.054   0.497  0.00  0.00     0.034 H 
ATOM     11  H3  <0> d           2.630   0.366   0.493  0.00  0.00     0.034 H 
ENDBRANCH   1   8
TORSDOF 1
