REMARK  4 active torsions:
REMARK  status: ('A' for Active; 'I' for Inactive)
REMARK    1  A    between atoms: C1_1  and  C2_2 
REMARK    2  A    between atoms: C6_7  and  C7_8 
REMARK    3  A    between atoms: C7_8  and  C8_9 
REMARK    4  A    between atoms: C8_9  and  O1_10 
ROOT
ATOM      1  C2  <0> d           0.002  -0.004   0.002  0.00  0.00    -0.037 A 
ATOM      2  C3  <0> d          -0.017   1.383   0.010  0.00  0.00    -0.074 A 
ATOM      3  C4  <0> d           1.193   2.059   0.002  0.00  0.00    -0.066 A 
ATOM      4  C5  <0> d           2.370   1.334  -0.013  0.00  0.00     0.003 A 
ATOM      5  N1  <0> d           2.350   0.015  -0.020  0.00  0.00    -0.265 NA
ATOM      6  C6  <0> d           1.218  -0.661  -0.013  0.00  0.00     0.042 A 
ATOM      7  H4  <0> d          -0.952   1.923   0.017  0.00  0.00     0.084 H 
ATOM      8  H5  <0> d           1.216   3.139   0.007  0.00  0.00     0.085 H 
ATOM      9  H6  <0> d           3.317   1.853  -0.019  0.00  0.00     0.114 H 
ENDROOT
BRANCH   6  10
ATOM     10  C7  <0> d           1.250  -2.168  -0.021  0.00  0.00    -0.005 C 
ATOM     11  H7  <0> d           2.152  -2.514   0.482  0.00  0.00     0.045 H 
ATOM     12  H8  <0> d           0.373  -2.553   0.499  0.00  0.00     0.045 H 
BRANCH  10  13
ATOM     13  C8  <0> d           1.247  -2.670  -1.467  0.00  0.00     0.022 C 
ATOM     14  H9  <0> d           0.345  -2.323  -1.970  0.00  0.00     0.074 H 
ATOM     15  H10 <0> d           2.124  -2.284  -1.987  0.00  0.00     0.074 H 
BRANCH  13  16
ATOM     16  O1  <0> d           1.278  -4.098  -1.475  0.00  0.00    -0.400 OA
ATOM     17  H11 <0> d           1.278  -4.487  -2.360  0.00  0.00     0.209 HD
ENDBRANCH  13  16
ENDBRANCH  10  13
ENDBRANCH   6  10
BRANCH   1  18
ATOM     18  C1  <0> d          -1.287  -0.785   0.011  0.00  0.00    -0.049 C 
ATOM     19  H1  <0> d          -1.608  -0.967  -1.015  0.00  0.00     0.033 H 
ATOM     20  H2  <0> d          -1.132  -1.737   0.518  0.00  0.00     0.033 H 
ATOM     21  H3  <0> d          -2.054  -0.214   0.535  0.00  0.00     0.033 H 
ENDBRANCH   1  18
TORSDOF 4
