REMARK  0 active torsions:
REMARK  status: ('A' for Active; 'I' for Inactive)
ROOT
ATOM      1  C1  <0> d          -2.538   3.768   0.039  0.00  0.00     0.052 A 
ATOM      2  C2  <0> d          -1.203   3.323   0.026  0.00  0.00     0.111 A 
ATOM      3  C3  <0> d          -1.239   1.923   0.025  0.00  0.00     0.150 A 
ATOM      4  C4  <0> d          -0.014   1.215   0.017  0.00  0.00     0.298 A 
ATOM      5  O1  <0> d           0.002  -0.004   0.015  0.00  0.00    -0.263 OA
ATOM      6  N1  <0> d           1.136   1.923   0.007  0.00  0.00    -0.201 NA
ATOM      7  C5  <0> d           1.110   3.282   0.003  0.00  0.00     0.091 A 
ATOM      8  N2  <0> d          -0.003   3.955   0.017  0.00  0.00    -0.238 NA
ATOM      9  N3  <0> d          -2.555   1.558   0.032  0.00  0.00    -0.271 N 
ATOM     10  H1  <0> d          -2.830   0.492   0.037  0.00  0.00     0.189 HD
ATOM     11  N4  <0> d          -3.327   2.727   0.032  0.00  0.00    -0.184 NA
ATOM     12  H2  <0> d          -2.857   4.800   0.052  0.00  0.00     0.121 H 
ATOM     13  H3  <0> d           2.045   3.821  -0.009  0.00  0.00     0.146 H 
ENDROOT
TORSDOF 0
