REMARK  2 active torsions:
REMARK  status: ('A' for Active; 'I' for Inactive)
REMARK    1  A    between atoms: C3_5  and  N3_9 
REMARK    2  A    between atoms: C4_6  and  C5_7 
ROOT
ATOM      1  C1  <0> d           2.316   1.403  -0.001  0.00  0.00    -0.044 A 
ATOM      2  C2  <0> d           2.352   0.019   0.001  0.00  0.00     0.025 A 
ATOM      3  N1  <0> d           1.230  -0.674  -0.004  0.00  0.00    -0.161 NA
ATOM      4  N2  <0> d           0.074  -0.119  -0.010  0.00  0.00    -0.132 NA
ATOM      5  C3  <0> d          -0.078   1.199  -0.011  0.00  0.00     0.160 A 
ATOM      6  C4  <0> d           1.061   2.026  -0.007  0.00  0.00     0.089 A 
ATOM      7  H1  <0> d           3.226   1.984   0.003  0.00  0.00     0.087 H 
ATOM      8  H2  <0> d           3.302  -0.495   0.006  0.00  0.00     0.117 H 
ENDROOT
BRANCH   5   9
ATOM      9  N3  <0> d          -1.344   1.755  -0.024  0.00  0.00    -0.382 N 
ATOM     10  H3  <0> d          -2.123   1.185  -0.110  0.00  0.00     0.157 HD
ATOM     11  H4  <0> d          -1.452   2.716   0.055  0.00  0.00     0.157 HD
ENDBRANCH   5   9
BRANCH   6  12
ATOM     12  C5  <0> d           0.938   3.497  -0.009  0.00  0.00     0.213 C 
ATOM     13  O1  <0> d          -0.157   4.015   0.091  0.00  0.00    -0.644 OA
ATOM     14  O2  <0> d           2.039   4.265  -0.121  0.00  0.00    -0.644 OA
ENDBRANCH   6  12
TORSDOF 2
