REMARK  1 active torsions:
REMARK  status: ('A' for Active; 'I' for Inactive)
REMARK    1  A    between atoms: C1_1  and  C2_2 
ROOT
ATOM      1  C2  <0> d           0.002  -0.004   0.002  0.00  0.00     0.118 A 
ATOM      2  N1  <0> d          -1.070  -0.735   0.003  0.00  0.00    -0.257 NA
ATOM      3  C3  <0> d          -0.619  -2.124  -0.071  0.00  0.00     0.129 A 
ATOM      4  H1  <0> d          -0.931  -2.598  -1.002  0.00  0.00     0.097 H 
ATOM      5  C4  <0> d           0.898  -1.990   0.017  0.00  0.00     0.046 A 
ATOM      6  N2  <0> d           1.142  -0.737  -0.013  0.00  0.00    -0.240 NA
ATOM      7  C5  <0> d           1.791  -3.184   0.233  0.00  0.00    -0.025 C 
ATOM      8  C6  <0> d           1.285  -3.894   1.501  0.00  0.00    -0.054 C 
ATOM      9  C7  <0> d          -0.206  -4.204   1.391  0.00  0.00    -0.007 C 
ATOM     10  C8  <0> d          -1.027  -2.946   1.132  0.00  0.00     0.157 C 
ATOM     11  O1  <0> d          -1.936  -2.609   1.853  0.00  0.00    -0.295 OA
ATOM     12  H5  <0> d           1.726  -3.857  -0.621  0.00  0.00     0.042 H 
ATOM     13  H6  <0> d           2.821  -2.858   0.375  0.00  0.00     0.042 H 
ATOM     14  H7  <0> d           1.836  -4.825   1.634  0.00  0.00     0.034 H 
ATOM     15  H8  <0> d           1.455  -3.250   2.364  0.00  0.00     0.034 H 
ATOM     16  H9  <0> d          -0.369  -4.898   0.566  0.00  0.00     0.044 H 
ATOM     17  H10 <0> d          -0.545  -4.667   2.318  0.00  0.00     0.044 H 
ENDROOT
BRANCH   1  18
ATOM     18  C1  <0> d          -0.018   1.503   0.010  0.00  0.00    -0.020 C 
ATOM     19  H2  <0> d           1.004   1.880   0.003  0.00  0.00     0.037 H 
ATOM     20  H3  <0> d          -0.545   1.864  -0.873  0.00  0.00     0.037 H 
ATOM     21  H4  <0> d          -0.529   1.854   0.907  0.00  0.00     0.037 H 
ENDBRANCH   1  18
TORSDOF 1
