REMARK  1 active torsions:
REMARK  status: ('A' for Active; 'I' for Inactive)
REMARK    1  A    between atoms: C4_4  and  C7_8 
ROOT
ATOM      1  C7  <0> d           1.153   3.595   0.010  0.00  0.00     0.041 C 
ATOM      2  C8  <0> d           1.038   4.077   1.397  0.00  0.00     0.063 C 
ATOM      3  N1  <0> d           0.950   4.449   2.467  0.00  0.00    -0.197 NA
ATOM      4  H4  <0> d           2.075   3.974  -0.431  0.00  0.00     0.062 H 
ATOM      5  H5  <0> d           0.300   3.950  -0.569  0.00  0.00     0.062 H 
ENDROOT
BRANCH   1   6
ATOM      6  C4  <0> d           1.173   2.089   0.002  0.00  0.00    -0.004 A 
ATOM      7  C3  <0> d          -0.017   1.380   0.010  0.00  0.00     0.123 A 
ATOM      8  C2  <0> d           0.002  -0.004   0.002  0.00  0.00    -0.042 A 
ATOM      9  F2  <0> d          -1.196   2.040   0.019  0.00  0.00    -0.206 F 
ATOM     10  C1  <0> d           1.208  -0.679  -0.013  0.00  0.00    -0.043 A 
ATOM     11  H2  <0> d          -0.926  -0.557   0.008  0.00  0.00     0.088 H 
ATOM     12  C6  <0> d           2.397   0.030  -0.021  0.00  0.00     0.117 A 
ATOM     13  H1  <0> d           1.223  -1.759  -0.019  0.00  0.00     0.088 H 
ATOM     14  C5  <0> d           2.379   1.414  -0.013  0.00  0.00    -0.036 A 
ATOM     15  F1  <0> d           3.576  -0.630  -0.035  0.00  0.00    -0.206 F 
ATOM     16  H3  <0> d           3.307   1.967  -0.019  0.00  0.00     0.089 H 
ENDBRANCH   1   6
TORSDOF 1
