REMARK  1 active torsions:
REMARK  status: ('A' for Active; 'I' for Inactive)
REMARK    1  A    between atoms: C2_2  and  C5_8 
ROOT
ATOM      1  C1  <0> d          -0.017   1.386   0.010  0.00  0.00    -0.009 A 
ATOM      2  C2  <0> d           1.203   2.063   0.002  0.00  0.00     0.137 A 
ATOM      3  N1  <0> d           2.331   1.356  -0.013  0.00  0.00    -0.235 NA
ATOM      4  C3  <0> d           2.301   0.041  -0.020  0.00  0.00     0.089 A 
ATOM      5  N2  <0> d           1.166  -0.632  -0.013  0.00  0.00    -0.230 NA
ATOM      6  C4  <0> d           0.002  -0.004   0.002  0.00  0.00     0.129 A 
ATOM      7 Cl1  <0> d          -1.482  -0.904   0.012  0.00  0.00    -0.062 Cl
ATOM      8  H1  <0> d          -0.951   1.928   0.026  0.00  0.00     0.092 H 
ATOM      9  H2  <0> d           3.233  -0.505  -0.032  0.00  0.00     0.146 H 
ENDROOT
BRANCH   2  10
ATOM     10  C5  <0> d           1.243   3.546   0.009  0.00  0.00     0.229 C 
ATOM     11  O1  <0> d           0.201   4.185   0.022  0.00  0.00    -0.643 OA
ATOM     12  O2  <0> d           2.317   4.128   0.002  0.00  0.00    -0.643 OA
ENDBRANCH   2  10
TORSDOF 1
