REMARK  7 active torsions:
REMARK  status: ('A' for Active; 'I' for Inactive)
REMARK    1  A    between atoms: C1_1  and  C2_2 
REMARK    2  A    between atoms: C2_2  and  N1_3 
REMARK    3  A    between atoms: N1_3  and  C3_4 
REMARK       I    between atoms: N1_3  and  C5_6 
REMARK    4  A    between atoms: C3_4  and  C4_5 
REMARK    5  A    between atoms: C5_6  and  O2_8 
REMARK    6  A    between atoms: O2_8  and  C6_9 
REMARK    7  A    between atoms: C6_9  and  C7_10 
ROOT
ATOM      1  N1  <0> d           1.143   1.901   0.001  0.00  0.00    -0.329 N 
ATOM      2  C5  <0> d          -0.014   1.211   0.009  0.00  0.00     0.362 C 
ATOM      3  O1  <0> d           0.002  -0.004   0.002  0.00  0.00    -0.238 OA
ENDROOT
BRANCH   1   4
ATOM      4  C2  <0> d           1.124   3.365   0.009  0.00  0.00    -0.004 C 
ATOM      5  H4  <0> d           2.004   3.744  -0.511  0.00  0.00     0.064 H 
ATOM      6  H5  <0> d           0.224   3.719  -0.494  0.00  0.00     0.064 H 
BRANCH   4   7
ATOM      7  C1  <0> d           1.131   3.868   1.455  0.00  0.00    -0.061 C 
ATOM      8  H1  <0> d           1.116   4.957   1.461  0.00  0.00     0.029 H 
ATOM      9  H2  <0> d           0.251   3.490   1.975  0.00  0.00     0.029 H 
ATOM     10  H3  <0> d           2.030   3.514   1.958  0.00  0.00     0.029 H 
ENDBRANCH   4   7
ENDBRANCH   1   4
BRANCH   1  11
ATOM     11  C3  <0> d           2.422   1.185  -0.015  0.00  0.00    -0.004 C 
ATOM     12  H6  <0> d           3.178   1.782   0.495  0.00  0.00     0.064 H 
ATOM     13  H7  <0> d           2.309   0.229   0.495  0.00  0.00     0.064 H 
BRANCH  11  14
ATOM     14  C4  <0> d           2.853   0.944  -1.463  0.00  0.00    -0.061 C 
ATOM     15  H8  <0> d           2.097   0.348  -1.972  0.00  0.00     0.029 H 
ATOM     16  H9  <0> d           2.966   1.901  -1.972  0.00  0.00     0.029 H 
ATOM     17  H10 <0> d           3.804   0.412  -1.475  0.00  0.00     0.029 H 
ENDBRANCH  11  14
ENDBRANCH   1  11
BRANCH   2  18
ATOM     18  O2  <0> d          -1.189   1.868   0.018  0.00  0.00    -0.304 OA
BRANCH  18  19
ATOM     19  C6  <0> d          -2.396   1.061   0.019  0.00  0.00     0.027 C 
ATOM     20  H11 <0> d          -2.417   0.437  -0.874  0.00  0.00     0.074 H 
ATOM     21  H12 <0> d          -2.408   0.427   0.906  0.00  0.00     0.074 H 
BRANCH  19  22
ATOM     22  C7  <0> d          -3.622   1.976   0.030  0.00  0.00    -0.056 C 
ATOM     23  H13 <0> d          -3.602   2.601   0.923  0.00  0.00     0.030 H 
ATOM     24  H14 <0> d          -3.610   2.610  -0.857  0.00  0.00     0.030 H 
ATOM     25  H15 <0> d          -4.528   1.370   0.031  0.00  0.00     0.030 H 
ENDBRANCH  19  22
ENDBRANCH  18  19
ENDBRANCH   2  18
TORSDOF 7
