REMARK  2 active torsions:
REMARK  status: ('A' for Active; 'I' for Inactive)
REMARK    1  A    between atoms: N3_4  and  C2_6 
REMARK    2  A    between atoms: C2_6  and  C3_7 
ROOT
ATOM      1  C1  <0> d          -3.934  -0.341  -0.636  0.00  0.00     0.130 A 
ATOM      2  N1  <0> d          -3.917  -0.339   0.697  0.00  0.00    -0.122 NA
ATOM      3  N2  <0> d          -2.986   0.474   1.068  0.00  0.00    -0.047 NA
ATOM      4  N3  <0> d          -2.430   0.973   0.019  0.00  0.00    -0.159 N 
ATOM      5  N4  <0> d          -3.000   0.489  -1.031  0.00  0.00    -0.145 NA
ATOM      6  H1  <0> d          -4.594  -0.915  -1.270  0.00  0.00     0.152 H 
ENDROOT
BRANCH   4   7
ATOM      7  C2  <0> d          -1.329   1.940   0.019  0.00  0.00     0.116 C 
ATOM      8  H2  <0> d          -1.401   2.576  -0.875  0.00  0.00     0.086 H 
ATOM      9  H3  <0> d          -1.392   2.566   0.921  0.00  0.00     0.086 H 
BRANCH   7  10
ATOM     10  C3  <0> d          -0.014   1.204   0.009  0.00  0.00     0.195 C 
ATOM     11  O1  <0> d           0.002  -0.004   0.002  0.00  0.00    -0.647 OA
ATOM     12  O2  <0> d           1.139   1.891   0.001  0.00  0.00    -0.647 OA
ENDBRANCH   7  10
ENDBRANCH   4   7
TORSDOF 2
