REMARK  1 active torsions:
REMARK  status: ('A' for Active; 'I' for Inactive)
REMARK    1  A    between atoms: C7_7  and  N3_11 
ROOT
ATOM      1  C1  <0> d          -0.016   1.360   0.009  0.00  0.00    -0.082 A 
ATOM      2  C2  <0> d           1.168   2.091   0.002  0.00  0.00    -0.081 A 
ATOM      3  C3  <0> d           2.380   1.466  -0.013  0.00  0.00    -0.054 A 
ATOM      4  C4  <0> d           2.436   0.065  -0.021  0.00  0.00     0.072 A 
ATOM      5  C5  <0> d           1.229  -0.676  -0.013  0.00  0.00     0.038 A 
ATOM      6  C6  <0> d           0.002  -0.004   0.002  0.00  0.00    -0.067 A 
ATOM      7  C7  <0> d           1.313  -2.090  -0.021  0.00  0.00     0.135 A 
ATOM      8  N1  <0> d           2.518  -2.646  -0.035  0.00  0.00    -0.224 NA
ATOM      9  C8  <0> d           3.618  -1.911  -0.042  0.00  0.00     0.089 A 
ATOM     10  N2  <0> d           3.600  -0.599  -0.035  0.00  0.00    -0.241 NA
ATOM     11  H1  <0> d          -0.963   1.879   0.026  0.00  0.00     0.083 H 
ATOM     12  H2  <0> d           1.127   3.170   0.008  0.00  0.00     0.083 H 
ATOM     13  H3  <0> d           3.290   2.046  -0.019  0.00  0.00     0.087 H 
ATOM     14  H4  <0> d          -0.923  -0.561   0.008  0.00  0.00     0.085 H 
ATOM     15  H5  <0> d           4.574  -2.414  -0.053  0.00  0.00     0.146 H 
ENDROOT
BRANCH   7  16
ATOM     16  N3  <0> d           0.175  -2.867  -0.014  0.00  0.00    -0.383 N 
ATOM     17  H6  <0> d          -0.699  -2.447  -0.003  0.00  0.00     0.157 HD
ATOM     18  H7  <0> d           0.248  -3.834  -0.019  0.00  0.00     0.157 HD
ENDBRANCH   7  16
TORSDOF 1
