REMARK  0 active torsions:
REMARK  status: ('A' for Active; 'I' for Inactive)
ROOT
ATOM      1  C1  <0> d          -2.533  -0.952  -2.457  0.00  0.00     0.043 C 
ATOM      2  C2  <0> d          -2.245  -2.220  -1.615  0.00  0.00     0.043 C 
ATOM      3  O1  <0> d          -0.886  -2.019  -1.174  0.00  0.00    -0.353 OA
ATOM      4  C3  <0> d          -0.620  -0.616  -1.258  0.00  0.00     0.169 C 
ATOM      5  O2  <0> d          -1.793   0.060  -1.731  0.00  0.00    -0.353 OA
ATOM      6  C4  <0> d           0.669  -0.250  -2.003  0.00  0.00    -0.006 C 
ATOM      7  C5  <0> d           1.385  -0.287  -0.643  0.00  0.00    -0.025 C 
ATOM      8  H1  <0> d           1.859  -1.233  -0.381  0.00  0.00     0.047 H 
ATOM      9  C6  <0> d           0.002  -0.004   0.002  0.00  0.00     0.010 C 
ATOM     10  H2  <0> d          -0.221  -0.486   0.954  0.00  0.00     0.049 H 
ATOM     11  C7  <0> d          -0.019   1.541   0.011  0.00  0.00    -0.041 C 
ATOM     12  C8  <0> d           1.436   1.948  -0.001  0.00  0.00    -0.106 C 
ATOM     13  C9  <0> d           2.200   0.952  -0.357  0.00  0.00    -0.102 C 
ATOM     14  H3  <0> d          -2.149  -1.063  -3.472  0.00  0.00     0.077 H 
ATOM     15  H4  <0> d          -3.599  -0.724  -2.467  0.00  0.00     0.077 H 
ATOM     16  H5  <0> d          -2.322  -3.117  -2.229  0.00  0.00     0.077 H 
ATOM     17  H6  <0> d          -2.921  -2.277  -0.762  0.00  0.00     0.077 H 
ATOM     18  H7  <0> d           0.644   0.741  -2.456  0.00  0.00     0.042 H 
ATOM     19  H8  <0> d           1.007  -1.022  -2.695  0.00  0.00     0.042 H 
ATOM     20  H9  <0> d          -0.525   1.918  -0.878  0.00  0.00     0.039 H 
ATOM     21  H10 <0> d          -0.508   1.909   0.912  0.00  0.00     0.039 H 
ATOM     22  H11 <0> d           1.796   2.934   0.252  0.00  0.00     0.076 H 
ATOM     23  H12 <0> d           3.276   1.007  -0.438  0.00  0.00     0.076 H 
ENDROOT
TORSDOF 0
