REMARK  1 active torsions:
REMARK  status: ('A' for Active; 'I' for Inactive)
REMARK    1  A    between atoms: C6_6  and  N1_7 
ROOT
ATOM      1  C1  <0> d           3.272   2.928  -0.013  0.00  0.00    -0.055 A 
ATOM      2  C2  <0> d           1.917   2.928  -0.001  0.00  0.00    -0.048 A 
ATOM      3  C3  <0> d           1.216   1.655  -0.001  0.00  0.00     0.117 A 
ATOM      4  C4  <0> d           2.019   0.406  -0.015  0.00  0.00     0.119 A 
ATOM      5  C5  <0> d           3.420   0.506  -0.029  0.00  0.00    -0.025 A 
ATOM      6  C6  <0> d           4.013   1.732  -0.027  0.00  0.00     0.028 A 
ATOM      7  N2  <0> d           1.098  -0.528  -0.011  0.00  0.00    -0.103 NA
ATOM      8  O1  <0> d           0.002  -0.004   0.002  0.00  0.00    -0.106 OA
ATOM      9  N3  <0> d          -0.014   1.211   0.009  0.00  0.00    -0.103 NA
ATOM     10  H1  <0> d           3.797   3.872  -0.014  0.00  0.00     0.087 H 
ATOM     11  H2  <0> d           1.367   3.858   0.010  0.00  0.00     0.087 H 
ATOM     12  H3  <0> d           4.026  -0.388  -0.039  0.00  0.00     0.090 H 
ENDROOT
BRANCH   6  13
ATOM     13  N1  <0> d           5.404   1.805  -0.040  0.00  0.00    -0.399 N 
ATOM     14  H4  <0> d           5.845   2.669  -0.040  0.00  0.00     0.156 HD
ATOM     15  H5  <0> d           5.932   0.991  -0.050  0.00  0.00     0.156 HD
ENDBRANCH   6  13
TORSDOF 1
