REMARK  3 active torsions:
REMARK  status: ('A' for Active; 'I' for Inactive)
REMARK    1  A    between atoms: C1_1  and  N1_2 
REMARK    2  A    between atoms: C5_6  and  C6_7 
REMARK    3  A    between atoms: C6_7  and  C7_8 
ROOT
ATOM      1  N1  <0> d           2.073   0.729  -0.014  0.00  0.00    -0.364 N 
ATOM      2  C2  <0> d           1.294  -0.390  -0.012  0.00  0.00    -0.021 A 
ATOM      3  C3  <0> d           0.002  -0.004   0.002  0.00  0.00    -0.066 A 
ATOM      4  C4  <0> d          -0.017   1.405   0.010  0.00  0.00    -0.059 A 
ATOM      5  C5  <0> d           1.264   1.826  -0.000  0.00  0.00     0.020 A 
ATOM      6  H4  <0> d           1.650  -1.410  -0.022  0.00  0.00     0.111 H 
ATOM      7  H5  <0> d          -0.860  -0.655   0.006  0.00  0.00     0.085 H 
ATOM      8  H6  <0> d          -0.896   2.032   0.018  0.00  0.00     0.086 H 
ENDROOT
BRANCH   5   9
ATOM      9  C6  <0> d           1.722   3.261   0.002  0.00  0.00     0.054 C 
ATOM     10  H7  <0> d           2.716   3.327  -0.441  0.00  0.00     0.058 H 
ATOM     11  H8  <0> d           1.025   3.866  -0.577  0.00  0.00     0.058 H 
BRANCH   9  12
ATOM     12  C7  <0> d           1.771   3.771   1.420  0.00  0.00     0.178 C 
ATOM     13  O1  <0> d           1.465   3.043   2.334  0.00  0.00    -0.648 OA
ATOM     14  O2  <0> d           2.154   5.033   1.667  0.00  0.00    -0.648 OA
ENDBRANCH   9  12
ENDBRANCH   5   9
BRANCH   1  15
ATOM     15  C1  <0> d           3.538   0.749  -0.027  0.00  0.00    -0.015 C 
ATOM     16  H1  <0> d           3.892   0.758  -1.058  0.00  0.00     0.057 H 
ATOM     17  H2  <0> d           3.894   1.641   0.487  0.00  0.00     0.057 H 
ATOM     18  H3  <0> d           3.918  -0.139   0.479  0.00  0.00     0.057 H 
ENDBRANCH   1  15
TORSDOF 3
