REMARK  2 active torsions:
REMARK  status: ('A' for Active; 'I' for Inactive)
REMARK    1  A    between atoms: C2_2  and  C5_8 
REMARK    2  A    between atoms: C5_8  and  C6_9 
ROOT
ATOM      1  C1  <0> d          -0.017   1.412   0.010  0.00  0.00     0.007 A 
ATOM      2  C2  <0> d          -1.214   2.044   0.019  0.00  0.00     0.025 A 
ATOM      3  N1  <0> d          -2.356   1.303   0.020  0.00  0.00    -0.353 N 
ATOM      4  C3  <0> d          -2.302  -0.042   0.013  0.00  0.00     0.068 A 
ATOM      5  N2  <0> d          -1.162  -0.678   0.005  0.00  0.00    -0.205 NA
ATOM      6  C4  <0> d           0.002  -0.004   0.002  0.00  0.00     0.269 A 
ATOM      7  O1  <0> d           1.064  -0.607  -0.011  0.00  0.00    -0.266 OA
ATOM      8  H1  <0> d           0.904   1.976   0.004  0.00  0.00     0.095 H 
ATOM      9  H2  <0> d          -3.222  -0.607   0.015  0.00  0.00     0.143 H 
ATOM     10  H3  <0> d          -3.218   1.748   0.027  0.00  0.00     0.166 HD
ENDROOT
BRANCH   2  11
ATOM     11  C5  <0> d          -1.281   3.550   0.028  0.00  0.00     0.054 C 
ATOM     12  H4  <0> d          -2.135   3.871   0.623  0.00  0.00     0.058 H 
ATOM     13  H5  <0> d          -0.365   3.952   0.460  0.00  0.00     0.058 H 
BRANCH  11  14
ATOM     14  C6  <0> d          -1.434   4.054  -1.384  0.00  0.00     0.178 C 
ATOM     15  O2  <0> d          -1.483   3.264  -2.311  0.00  0.00    -0.648 OA
ATOM     16  O3  <0> d          -1.508   5.252  -1.599  0.00  0.00    -0.648 OA
ENDBRANCH  11  14
ENDBRANCH   2  11
TORSDOF 2
