REMARK  3 active torsions:
REMARK  status: ('A' for Active; 'I' for Inactive)
REMARK    1  A    between atoms: C1_1  and  C2_2 
REMARK    2  A    between atoms: C7_8  and  C8_10 
REMARK    3  A    between atoms: C8_10  and  C9_11 
ROOT
ATOM      1  C2  <0> d           0.742  -0.511   1.242  0.00  0.00    -0.054 C 
ATOM      2  H1  <0> d           0.757  -1.601   1.236  0.00  0.00     0.040 H 
ATOM      3  C3  <0> d           0.002  -0.004   0.002  0.00  0.00    -0.062 C 
ATOM      4  C4  <0> d          -0.019   1.526   0.010  0.00  0.00    -0.065 C 
ATOM      5  C5  <0> d           1.417   2.055  -0.000  0.00  0.00    -0.065 C 
ATOM      6  C6  <0> d           2.157   1.548   1.239  0.00  0.00    -0.061 C 
ATOM      7  C7  <0> d           2.178   0.019   1.231  0.00  0.00    -0.042 C 
ATOM      8  H2  <0> d           2.688  -0.333   0.334  0.00  0.00     0.041 H 
ATOM      9  H6  <0> d          -1.020  -0.381   0.010  0.00  0.00     0.033 H 
ATOM     10  H7  <0> d           0.512  -0.356  -0.895  0.00  0.00     0.033 H 
ATOM     11  H8  <0> d          -0.546   1.887  -0.873  0.00  0.00     0.033 H 
ATOM     12  H9  <0> d          -0.529   1.877   0.907  0.00  0.00     0.033 H 
ATOM     13  H10 <0> d           1.927   1.704  -0.897  0.00  0.00     0.033 H 
ATOM     14  H11 <0> d           1.402   3.145   0.006  0.00  0.00     0.033 H 
ATOM     15  H12 <0> d           1.647   1.900   2.136  0.00  0.00     0.033 H 
ATOM     16  H13 <0> d           3.179   1.926   1.231  0.00  0.00     0.033 H 
ENDROOT
BRANCH   7  17
ATOM     17  C8  <0> d           2.917  -0.488   2.470  0.00  0.00     0.019 C 
ATOM     18  H14 <0> d           2.461  -0.065   3.365  0.00  0.00     0.049 H 
ATOM     19  H15 <0> d           2.856  -1.576   2.511  0.00  0.00     0.049 H 
BRANCH  17  20
ATOM     20  C9  <0> d           4.363  -0.069   2.398  0.00  0.00     0.172 C 
ATOM     21  O1  <0> d           4.761   0.569   1.453  0.00  0.00    -0.648 OA
ATOM     22  O2  <0> d           5.209  -0.406   3.385  0.00  0.00    -0.648 OA
ENDBRANCH  17  20
ENDBRANCH   7  17
BRANCH   1  23
ATOM     23  C1  <0> d           0.026  -0.018   2.500  0.00  0.00    -0.073 C 
ATOM     24  H3  <0> d          -0.997  -0.395   2.508  0.00  0.00     0.028 H 
ATOM     25  H4  <0> d           0.553  -0.379   3.383  0.00  0.00     0.028 H 
ATOM     26  H5  <0> d           0.011   1.072   2.506  0.00  0.00     0.028 H 
ENDBRANCH   1  23
TORSDOF 3
