REMARK  5 active torsions:
REMARK  status: ('A' for Active; 'I' for Inactive)
REMARK    1  A    between atoms: C1_1  and  O1_2 
REMARK    2  A    between atoms: O1_2  and  C2_3 
REMARK    3  A    between atoms: C2_3  and  C3_5 
REMARK    4  A    between atoms: C3_5  and  C4_7 
REMARK    5  A    between atoms: C3_5  and  O3_11 
ROOT
ATOM      1  C3  <0> d          -1.244  -2.135   0.003  0.00  0.00     0.213 C 
ATOM      2  H1  <0> d          -0.661  -2.526   0.837  0.00  0.00     0.113 H 
ENDROOT
BRANCH   1   3
ATOM      3  C2  <0> d          -1.185  -0.630   0.010  0.00  0.00     0.296 C 
ATOM      4  O2  <0> d          -2.208   0.015   0.023  0.00  0.00    -0.262 OA
BRANCH   3   5
ATOM      5  O1  <0> d           0.002  -0.004   0.002  0.00  0.00    -0.324 OA
BRANCH   5   6
ATOM      6  C1  <0> d          -0.018   1.448   0.010  0.00  0.00     0.013 C 
ATOM      7  H2  <0> d           1.005   1.825   0.002  0.00  0.00     0.067 H 
ATOM      8  H3  <0> d          -0.545   1.809  -0.873  0.00  0.00     0.067 H 
ATOM      9  H4  <0> d          -0.528   1.799   0.907  0.00  0.00     0.067 H 
ENDBRANCH   5   6
ENDBRANCH   3   5
ENDBRANCH   1   3
BRANCH   1  10
ATOM     10  C4  <0> d          -0.667  -2.662  -1.313  0.00  0.00     0.422 C 
ATOM     11  F1  <0> d           0.663  -2.246  -1.439  0.00  0.00    -0.168 F 
ATOM     12  F2  <0> d          -0.721  -4.060  -1.320  0.00  0.00    -0.168 F 
ATOM     13  F3  <0> d          -1.415  -2.161  -2.384  0.00  0.00    -0.168 F 
ENDBRANCH   1  10
BRANCH   1  14
ATOM     14  O3  <0> d          -2.602  -2.560   0.131  0.00  0.00    -0.378 OA
ATOM     15  H5  <0> d          -3.180  -2.249  -0.579  0.00  0.00     0.211 HD
ENDBRANCH   1  14
TORSDOF 5
