REMARK  3 active torsions:
REMARK  status: ('A' for Active; 'I' for Inactive)
REMARK    1  A    between atoms: C1_1  and  C2_2 
REMARK    2  A    between atoms: C4_4  and  C10_11 
REMARK    3  A    between atoms: C6_6  and  C8_8 
ROOT
ATOM      1  C2  <0> d           1.177   1.782   0.000  0.00  0.00    -0.061 A 
ATOM      2  C3  <0> d          -0.013   1.076   0.008  0.00  0.00    -0.070 A 
ATOM      3  C4  <0> d          -1.217   1.748   0.017  0.00  0.00    -0.040 A 
ATOM      4  C5  <0> d          -1.234   3.144   0.030  0.00  0.00     0.056 A 
ATOM      5  C6  <0> d          -0.030   3.850   0.022  0.00  0.00    -0.040 A 
ATOM      6  C7  <0> d           1.167   3.166   0.007  0.00  0.00    -0.070 A 
ATOM      7  C9  <0> d          -2.481   3.848   0.045  0.00  0.00     0.100 C 
ATOM      8  N1  <0> d          -3.470   4.406   0.057  0.00  0.00    -0.191 NA
ATOM      9  H4  <0> d           0.002  -0.004   0.002  0.00  0.00     0.085 H 
ATOM     10  H5  <0> d           2.100   3.711   0.001  0.00  0.00     0.085 H 
ENDROOT
BRANCH   3  11
ATOM     11  C10 <0> d          -2.512   0.977   0.020  0.00  0.00    -0.050 C 
ATOM     12  H9  <0> d          -2.819   0.785   1.048  0.00  0.00     0.033 H 
ATOM     13  H10 <0> d          -3.282   1.558  -0.487  0.00  0.00     0.033 H 
ATOM     14  H11 <0> d          -2.371   0.029  -0.500  0.00  0.00     0.033 H 
ENDBRANCH   3  11
BRANCH   5  15
ATOM     15  C8  <0> d          -0.038   5.357   0.029  0.00  0.00    -0.050 C 
ATOM     16  H6  <0> d          -0.050   5.726  -0.997  0.00  0.00     0.033 H 
ATOM     17  H7  <0> d          -0.926   5.713   0.553  0.00  0.00     0.033 H 
ATOM     18  H8  <0> d           0.854   5.723   0.536  0.00  0.00     0.033 H 
ENDBRANCH   5  15
BRANCH   1  19
ATOM     19  C1  <0> d           2.489   1.041  -0.015  0.00  0.00    -0.051 C 
ATOM     20  H1  <0> d           2.796   0.868  -1.046  0.00  0.00     0.033 H 
ATOM     21  H2  <0> d           3.248   1.635   0.495  0.00  0.00     0.033 H 
ATOM     22  H3  <0> d           2.373   0.085   0.495  0.00  0.00     0.033 H 
ENDBRANCH   1  19
TORSDOF 3
