REMARK  4 active torsions:
REMARK  status: ('A' for Active; 'I' for Inactive)
REMARK    1  A    between atoms: C1_1  and  C2_2 
REMARK    2  A    between atoms: C2_2  and  C10_14 
REMARK    3  A    between atoms: C6_7  and  C9_12 
REMARK    4  A    between atoms: C9_12  and  O1_13 
ROOT
ATOM      1  C2  <0> d          -1.052   3.785   0.004  0.00  0.00    -0.040 C 
ATOM      2  C3  <0> d          -1.637   2.814  -1.036  0.00  0.00    -0.047 C 
ATOM      3  H1  <0> d          -2.040   3.295  -1.938  0.00  0.00     0.041 H 
ATOM      4  C4  <0> d          -0.729   1.620  -1.329  0.00  0.00    -0.061 C 
ATOM      5  C5  <0> d          -0.018   1.101  -0.086  0.00  0.00    -0.059 C 
ATOM      6  C6  <0> d          -0.693   1.523   1.211  0.00  0.00    -0.029 C 
ATOM      7  H2  <0> d          -1.357   0.695   1.535  0.00  0.00     0.043 H 
ATOM      8  C7  <0> d          -1.555   2.772   1.037  0.00  0.00    -0.041 C 
ATOM      9  H3  <0> d          -1.900   3.207   1.985  0.00  0.00     0.042 H 
ATOM     10  C8  <0> d          -2.695   2.478   0.032  0.00  0.00    -0.057 C 
ATOM     11  H7  <0> d           0.015   1.903  -2.087  0.00  0.00     0.033 H 
ATOM     12  H8  <0> d          -1.332   0.809  -1.764  0.00  0.00     0.033 H 
ATOM     13  H9  <0> d          -0.005  -0.004  -0.129  0.00  0.00     0.033 H 
ATOM     14  H10 <0> d           1.031   1.414  -0.089  0.00  0.00     0.033 H 
ATOM     15  H11 <0> d          -3.533   3.161   0.084  0.00  0.00     0.034 H 
ATOM     16  H12 <0> d          -3.001   1.429   0.028  0.00  0.00     0.034 H 
ENDROOT
BRANCH   1  17
ATOM     17  C1  <0> d           0.455   4.004  -0.081  0.00  0.00    -0.069 C 
ATOM     18  H4  <0> d           0.724   4.293  -1.096  0.00  0.00     0.028 H 
ATOM     19  H5  <0> d           0.747   4.794   0.611  0.00  0.00     0.028 H 
ATOM     20  H6  <0> d           0.971   3.081   0.184  0.00  0.00     0.028 H 
ENDBRANCH   1  17
BRANCH   1  21
ATOM     21  C10 <0> d          -1.801   5.131   0.057  0.00  0.00    -0.069 C 
ATOM     22  H16 <0> d          -2.873   4.955  -0.030  0.00  0.00     0.028 H 
ATOM     23  H17 <0> d          -1.590   5.627   1.004  0.00  0.00     0.028 H 
ATOM     24  H18 <0> d          -1.470   5.764  -0.766  0.00  0.00     0.028 H 
ENDBRANCH   1  21
BRANCH   6  25
ATOM     25  C9  <0> d           0.342   1.726   2.322  0.00  0.00     0.020 C 
ATOM     26  H13 <0> d           1.097   2.437   1.989  0.00  0.00     0.074 H 
ATOM     27  H14 <0> d          -0.153   2.111   3.213  0.00  0.00     0.074 H 
BRANCH  25  28
ATOM     28  O1  <0> d           0.965   0.476   2.626  0.00  0.00    -0.400 OA
ATOM     29  H15 <0> d           1.633   0.530   3.323  0.00  0.00     0.209 HD
ENDBRANCH  25  28
ENDBRANCH   6  25
TORSDOF 4
