REMARK  4 active torsions:
REMARK  status: ('A' for Active; 'I' for Inactive)
REMARK    1  A    between atoms: C1_1  and  C2_2 
REMARK    2  A    between atoms: C5_5  and  N1_10 
REMARK    3  A    between atoms: C6_6  and  C8_8 
REMARK    4  A    between atoms: C8_8  and  O1_9 
ROOT
ATOM      1  C2  <0> d          -1.237   3.134   0.029  0.00  0.00    -0.061 A 
ATOM      2  C3  <0> d          -1.217   1.751   0.017  0.00  0.00    -0.075 A 
ATOM      3  C4  <0> d          -0.013   1.076   0.008  0.00  0.00    -0.057 A 
ATOM      4  C5  <0> d           1.181   1.788   0.000  0.00  0.00     0.034 A 
ATOM      5  C6  <0> d           1.157   3.176   0.008  0.00  0.00    -0.008 A 
ATOM      6  C7  <0> d          -0.051   3.845   0.022  0.00  0.00    -0.067 A 
ATOM      7  H4  <0> d          -2.145   1.198   0.019  0.00  0.00     0.084 H 
ATOM      8  H5  <0> d           0.002  -0.004   0.002  0.00  0.00     0.086 H 
ATOM      9  H6  <0> d          -0.070   4.925   0.028  0.00  0.00     0.085 H 
ENDROOT
BRANCH   5  10
ATOM     10  C8  <0> d           2.449   3.953  -0.001  0.00  0.00     0.043 C 
ATOM     11  H7  <0> d           3.034   3.695   0.882  0.00  0.00     0.081 H 
ATOM     12  H8  <0> d           3.016   3.704  -0.898  0.00  0.00     0.081 H 
BRANCH  10  13
ATOM     13  O1  <0> d           2.163   5.353   0.009  0.00  0.00    -0.396 OA
ATOM     14  H9  <0> d           2.950   5.915   0.004  0.00  0.00     0.209 HD
ENDBRANCH  10  13
ENDBRANCH   5  10
BRANCH   4  15
ATOM     15  N1  <0> d           2.401   1.108  -0.015  0.00  0.00    -0.399 N 
ATOM     16  H10 <0> d           2.416   0.138  -0.020  0.00  0.00     0.156 HD
ATOM     17  H11 <0> d           3.233   1.606  -0.020  0.00  0.00     0.156 HD
ENDBRANCH   4  15
BRANCH   1  18
ATOM     18  C1  <0> d          -2.553   3.867   0.044  0.00  0.00    -0.051 C 
ATOM     19  H1  <0> d          -2.880   4.048  -0.980  0.00  0.00     0.033 H 
ATOM     20  H2  <0> d          -3.299   3.263   0.562  0.00  0.00     0.033 H 
ATOM     21  H3  <0> d          -2.433   4.819   0.561  0.00  0.00     0.033 H 
ENDBRANCH   1  18
TORSDOF 4
