REMARK  1 active torsions:
REMARK  status: ('A' for Active; 'I' for Inactive)
REMARK    1  A    between atoms: C5_6  and  O1_7 
ROOT
ATOM      1  C1  <0> d          -0.017   1.384   0.010  0.00  0.00    -0.028 A 
ATOM      2  C2  <0> d           1.207   2.063   0.002  0.00  0.00     0.064 A 
ATOM      3  C3  <0> d           2.390   1.322  -0.014  0.00  0.00     0.022 A 
ATOM      4  N1  <0> d           2.359   0.006  -0.021  0.00  0.00    -0.269 NA
ATOM      5  C4  <0> d           1.223  -0.665  -0.014  0.00  0.00     0.034 A 
ATOM      6  C5  <0> d           0.002  -0.004   0.002  0.00  0.00     0.084 A 
ATOM      7  C6  <0> d           1.246   3.495   0.009  0.00  0.00     0.101 C 
ATOM      8  N2  <0> d           1.276   4.630   0.014  0.00  0.00    -0.191 NA
ATOM      9  H1  <0> d          -0.951   1.926   0.026  0.00  0.00     0.090 H 
ATOM     10  H2  <0> d           3.341   1.834  -0.020  0.00  0.00     0.117 H 
ATOM     11  H3  <0> d           1.243  -1.745  -0.020  0.00  0.00     0.119 H 
ENDROOT
BRANCH   6  12
ATOM     12  O1  <0> d          -1.161  -0.708   0.010  0.00  0.00    -0.359 OA
ATOM     13  H4  <0> d          -1.506  -0.907  -0.871  0.00  0.00     0.217 HD
ENDBRANCH   6  12
TORSDOF 1
