REMARK  0 active torsions:
REMARK  status: ('A' for Active; 'I' for Inactive)
ROOT
ATOM      1  C1  <0> d          -1.218   1.746   0.017  0.00  0.00    -0.043 A 
ATOM      2  C2  <0> d          -0.013   1.076   0.008  0.00  0.00    -0.047 A 
ATOM      3  C3  <0> d           1.185   1.785   0.000  0.00  0.00     0.075 A 
ATOM      4  C4  <0> d           1.143   3.174   0.011  0.00  0.00    -0.020 A 
ATOM      5  C5  <0> d          -0.060   3.843   0.022  0.00  0.00    -0.037 A 
ATOM      6  C6  <0> d          -1.248   3.130   0.029  0.00  0.00     0.117 A 
ATOM      7  F1  <0> d          -2.431   3.783   0.040  0.00  0.00    -0.206 F 
ATOM      8  C7  <0> d           2.579   3.662   0.013  0.00  0.00    -0.018 C 
ATOM      9  C8  <0> d           3.352   2.380   0.407  0.00  0.00     0.030 C 
ATOM     10  O1  <0> d           2.469   1.331  -0.025  0.00  0.00    -0.350 OA
ATOM     11  H1  <0> d          -2.143   1.189   0.020  0.00  0.00     0.088 H 
ATOM     12  H2  <0> d           0.002  -0.004   0.002  0.00  0.00     0.087 H 
ATOM     13  H3  <0> d          -0.077   4.923   0.026  0.00  0.00     0.089 H 
ATOM     14  H4  <0> d           2.723   4.446   0.756  0.00  0.00     0.043 H 
ATOM     15  H5  <0> d           2.876   4.006  -0.977  0.00  0.00     0.043 H 
ATOM     16  H6  <0> d           3.504   2.337   1.485  0.00  0.00     0.075 H 
ATOM     17  H7  <0> d           4.304   2.326  -0.121  0.00  0.00     0.075 H 
ENDROOT
TORSDOF 0
