REMARK  6 active torsions:
REMARK  status: ('A' for Active; 'I' for Inactive)
REMARK    1  A    between atoms: C1_1  and  C2_2 
REMARK    2  A    between atoms: C2_2  and  C3_3 
REMARK    3  A    between atoms: C2_2  and  C4_4 
REMARK    4  A    between atoms: C4_4  and  C5_6 
REMARK    5  A    between atoms: C4_4  and  C6_7 
REMARK    6  A    between atoms: C6_7  and  C7_8 
ROOT
ATOM      1  C4  <0> d           0.011   1.072   2.506  0.00  0.00    -0.046 C 
ATOM      2  H1  <0> d           1.034   1.450   2.499  0.00  0.00     0.040 H 
ENDROOT
BRANCH   1   3
ATOM      3  C2  <0> d          -0.729   1.579   1.267  0.00  0.00    -0.058 C 
ATOM      4  H5  <0> d          -1.751   1.202   1.275  0.00  0.00     0.039 H 
BRANCH   3   5
ATOM      5  C1  <0> d          -0.013   1.086   0.008  0.00  0.00    -0.073 C 
ATOM      6  H2  <0> d           0.002  -0.004   0.002  0.00  0.00     0.028 H 
ATOM      7  H3  <0> d           1.010   1.463   0.000  0.00  0.00     0.028 H 
ATOM      8  H4  <0> d          -0.540   1.447  -0.875  0.00  0.00     0.028 H 
ENDBRANCH   3   5
BRANCH   3   9
ATOM      9  C3  <0> d          -0.750   3.109   1.275  0.00  0.00    -0.073 C 
ATOM     10  H6  <0> d          -1.277   3.470   0.392  0.00  0.00     0.028 H 
ATOM     11  H7  <0> d          -1.260   3.461   2.172  0.00  0.00     0.028 H 
ATOM     12  H8  <0> d           0.273   3.486   1.268  0.00  0.00     0.028 H 
ENDBRANCH   3   9
ENDBRANCH   1   3
BRANCH   1  13
ATOM     13  C5  <0> d          -0.705   1.566   3.765  0.00  0.00    -0.072 C 
ATOM     14  H9  <0> d          -1.728   1.188   3.773  0.00  0.00     0.028 H 
ATOM     15  H10 <0> d          -0.178   1.205   4.648  0.00  0.00     0.028 H 
ATOM     16  H11 <0> d          -0.720   2.656   3.771  0.00  0.00     0.028 H 
ENDBRANCH   1  13
BRANCH   1  17
ATOM     17  C6  <0> d           0.032  -0.457   2.498  0.00  0.00     0.019 C 
ATOM     18  H12 <0> d          -0.986  -0.835   2.595  0.00  0.00     0.049 H 
ATOM     19  H13 <0> d           0.462  -0.810   1.560  0.00  0.00     0.049 H 
BRANCH  17  20
ATOM     20  C7  <0> d           0.865  -0.955   3.651  0.00  0.00     0.172 C 
ATOM     21  O1  <0> d           1.388  -0.167   4.403  0.00  0.00    -0.648 OA
ATOM     22  O2  <0> d           1.025  -2.274   3.844  0.00  0.00    -0.648 OA
ENDBRANCH  17  20
ENDBRANCH   1  17
TORSDOF 6
