REMARK  1 active torsions:
REMARK  status: ('A' for Active; 'I' for Inactive)
REMARK    1  A    between atoms: C4_4  and  C8_10 
REMARK       I    between atoms: C8_10  and  N1_12 
ROOT
ATOM      1  C1  <0> d          -0.013   1.086   0.008  0.00  0.00    -0.065 C 
ATOM      2  C2  <0> d          -0.760   1.593   1.210  0.00  0.00    -0.064 C 
ATOM      3  C3  <0> d          -1.669   0.475   1.781  0.00  0.00    -0.047 C 
ATOM      4  C4  <0> d          -2.300  -0.348   0.632  0.00  0.00     0.081 C 
ATOM      5  H1  <0> d          -1.620  -0.982   0.264  0.00  0.00     0.066 H 
ATOM      6  C5  <0> d          -2.788   0.418  -0.535  0.00  0.00     0.140 C 
ATOM      7  O1  <0> d          -3.926   0.818  -0.576  0.00  0.00    -0.297 OA
ATOM      8  C6  <0> d          -1.814   0.697  -1.703  0.00  0.00    -0.009 C 
ATOM      9  C7  <0> d          -0.793   1.612  -1.189  0.00  0.00    -0.059 C 
ATOM     10  H2  <0> d           0.002  -0.004   0.002  0.00  0.00     0.033 H 
ATOM     11  H3  <0> d           1.004   1.478   0.000  0.00  0.00     0.033 H 
ATOM     12  H4  <0> d          -0.048   1.910   1.971  0.00  0.00     0.033 H 
ATOM     13  H5  <0> d          -1.378   2.442   0.919  0.00  0.00     0.033 H 
ATOM     14  H6  <0> d          -2.461   0.925   2.380  0.00  0.00     0.034 H 
ATOM     15  H7  <0> d          -1.071  -0.183   2.411  0.00  0.00     0.034 H 
ATOM     16  H8  <0> d          -2.315   1.107  -2.465  0.00  0.00     0.044 H 
ATOM     17  H9  <0> d          -1.349  -0.232  -2.034  0.00  0.00     0.044 H 
ATOM     18  H10 <0> d          -1.279   2.544  -0.901  0.00  0.00     0.033 H 
ATOM     19  H11 <0> d          -0.089   1.826  -1.993  0.00  0.00     0.033 H 
ENDROOT
BRANCH   4  20
ATOM     20  C8  <0> d          -3.459  -1.127   1.197  0.00  0.00     0.226 C 
ATOM     21  O2  <0> d          -3.816  -0.939   2.341  0.00  0.00    -0.273 OA
ATOM     22  N1  <0> d          -4.099  -2.034   0.432  0.00  0.00    -0.369 N 
ATOM     23  H12 <0> d          -3.813  -2.184  -0.483  0.00  0.00     0.159 HD
ATOM     24  H13 <0> d          -4.845  -2.535   0.795  0.00  0.00     0.159 HD
ENDBRANCH   4  20
TORSDOF 1
