REMARK  5 active torsions:
REMARK  status: ('A' for Active; 'I' for Inactive)
REMARK    1  A    between atoms: C1_1  and  C2_2 
REMARK    2  A    between atoms: C2_2  and  C3_3 
REMARK    3  A    between atoms: C3_3  and  C4_5 
REMARK    4  A    between atoms: C3_3  and  O2_7 
REMARK    5  A    between atoms: O2_7  and  C5_8 
ROOT
ATOM      1  C3  <0> d          -0.729   1.579   1.267  0.00  0.00     0.121 C 
ATOM      2  H1  <0> d          -0.822   2.665   1.230  0.00  0.00     0.100 H 
ENDROOT
BRANCH   1   3
ATOM      3  C2  <0> d          -0.013   1.086   0.008  0.00  0.00    -0.035 C 
ATOM      4  H5  <0> d           0.002  -0.004   0.002  0.00  0.00     0.036 H 
ATOM      5  H6  <0> d           1.010   1.463   0.000  0.00  0.00     0.036 H 
BRANCH   3   6
ATOM      6  C1  <0> d          -0.753   1.593  -1.232  0.00  0.00    -0.074 C 
ATOM      7  H2  <0> d          -1.775   1.215  -1.224  0.00  0.00     0.027 H 
ATOM      8  H3  <0> d          -0.767   2.683  -1.226  0.00  0.00     0.027 H 
ATOM      9  H4  <0> d          -0.242   1.241  -2.128  0.00  0.00     0.027 H 
ENDBRANCH   3   6
ENDBRANCH   1   3
BRANCH   1  10
ATOM     10  C4  <0> d           0.067   1.185   2.485  0.00  0.00     0.203 C 
ATOM     11  O1  <0> d          -0.396   0.401   3.280  0.00  0.00    -0.646 OA
ATOM     12  O3  <0> d           1.288   1.703   2.685  0.00  0.00    -0.646 OA
ENDBRANCH   1  10
BRANCH   1  13
ATOM     13  O2  <0> d          -2.030   0.991   1.336  0.00  0.00    -0.380 OA
BRANCH  13  14
ATOM     14  C5  <0> d          -3.001   1.806   1.995  0.00  0.00     0.005 C 
ATOM     15  H7  <0> d          -2.680   1.998   3.019  0.00  0.00     0.066 H 
ATOM     16  H8  <0> d          -3.104   2.752   1.463  0.00  0.00     0.066 H 
ATOM     17  H9  <0> d          -3.961   1.290   2.006  0.00  0.00     0.066 H 
ENDBRANCH  13  14
ENDBRANCH   1  13
TORSDOF 5
