REMARK  0 active torsions:
REMARK  status: ('A' for Active; 'I' for Inactive)
ROOT
ATOM      1  C1  <0> d           2.420   0.040  -0.021  0.00  0.00    -0.019 A 
ATOM      2  C2  <0> d           1.225  -0.684  -0.013  0.00  0.00     0.086 A 
ATOM      3  C3  <0> d           0.002  -0.004   0.002  0.00  0.00     0.140 A 
ATOM      4  C4  <0> d          -0.017   1.378   0.010  0.00  0.00    -0.004 A 
ATOM      5  C5  <0> d           1.171   2.089   0.002  0.00  0.00     0.157 A 
ATOM      6  C6  <0> d           2.388   1.419  -0.013  0.00  0.00     0.156 A 
ATOM      7  F1  <0> d           3.543   2.120  -0.021  0.00  0.00    -0.203 F 
ATOM      8  F2  <0> d           1.147   3.440   0.010  0.00  0.00    -0.203 F 
ATOM      9  F3  <0> d          -1.158  -0.697   0.009  0.00  0.00    -0.204 F 
ATOM     10  C7  <0> d           1.251  -2.116  -0.021  0.00  0.00     0.102 C 
ATOM     11  N1  <0> d           1.272  -3.251  -0.027  0.00  0.00    -0.191 NA
ATOM     12  H1  <0> d           3.367  -0.479  -0.033  0.00  0.00     0.090 H 
ATOM     13  H2  <0> d          -0.960   1.904   0.017  0.00  0.00     0.093 H 
ENDROOT
TORSDOF 0
