REMARK  2 active torsions:
REMARK  status: ('A' for Active; 'I' for Inactive)
REMARK    1  A    between atoms: C1_1  and  C2_2 
REMARK    2  A    between atoms: C2_2  and  C3_4 
ROOT
ATOM      1  C3  <0> d          -0.000  -0.750  -1.307  0.00  0.00     0.194 A 
ATOM      2  H1  <0> d           1.020  -0.915  -1.655  0.00  0.00     0.128 H 
ATOM      3  N1  <0> d          -0.716  -2.032  -1.173  0.00  0.00    -0.244 NA
ATOM      4  C4  <0> d          -1.711  -1.953  -1.995  0.00  0.00     0.105 A 
ATOM      5  N2  <0> d          -1.719  -0.761  -2.649  0.00  0.00    -0.146 NA
ATOM      6  N3  <0> d          -0.782  -0.020  -2.319  0.00  0.00    -0.156 NA
ATOM      7  H5  <0> d          -2.442  -2.734  -2.144  0.00  0.00     0.148 H 
ENDROOT
BRANCH   1   8
ATOM      8  C2  <0> d           0.002  -0.004   0.002  0.00  0.00     0.170 C 
ATOM      9  O1  <0> d           0.020  -0.613   1.044  0.00  0.00    -0.294 OA
BRANCH   8  10
ATOM     10  C1  <0> d          -0.018   1.503   0.010  0.00  0.00    -0.017 C 
ATOM     11  H2  <0> d           1.004   1.880   0.003  0.00  0.00     0.037 H 
ATOM     12  H3  <0> d          -0.545   1.864  -0.873  0.00  0.00     0.037 H 
ATOM     13  H4  <0> d          -0.529   1.854   0.907  0.00  0.00     0.037 H 
ENDBRANCH   8  10
ENDBRANCH   1   8
TORSDOF 2
