REMARK  1 active torsions:
REMARK  status: ('A' for Active; 'I' for Inactive)
REMARK    1  A    between atoms: C3_3  and  C4_7 
ROOT
ATOM      1  C1  <0> d           3.785   1.079   2.755  0.00  0.00     0.043 A 
ATOM      2  C2  <0> d           3.410   1.282   1.408  0.00  0.00     0.088 A 
ATOM      3  C3  <0> d           2.132   0.783   1.261  0.00  0.00     0.054 A 
ATOM      4  N1  <0> d           1.746   0.307   2.457  0.00  0.00    -0.281 N 
ATOM      5  H1  <0> d           0.861  -0.112   2.662  0.00  0.00     0.189 HD
ATOM      6  N2  <0> d           2.791   0.496   3.368  0.00  0.00    -0.185 NA
ATOM      7  C7  <0> d           4.208   1.891   0.387  0.00  0.00     0.103 C 
ATOM      8  N3  <0> d           4.840   2.374  -0.424  0.00  0.00    -0.191 NA
ATOM      9  H2  <0> d           4.729   1.357   3.200  0.00  0.00     0.119 H 
ENDROOT
BRANCH   3  10
ATOM     10  C4  <0> d           1.317   0.779  -0.006  0.00  0.00    -0.011 A 
ATOM     11  C6  <0> d           0.002  -0.004   0.002  0.00  0.00    -0.056 A 
ATOM     12  C5  <0> d          -0.019   1.526   0.010  0.00  0.00    -0.056 A 
ATOM     13  H6  <0> d          -0.273  -0.516   0.924  0.00  0.00     0.034 H 
ATOM     14  H7  <0> d          -0.291  -0.506  -0.920  0.00  0.00     0.034 H 
ATOM     15  H4  <0> d          -0.325   2.030  -0.906  0.00  0.00     0.034 H 
ATOM     16  H5  <0> d          -0.307   2.020   0.938  0.00  0.00     0.034 H 
ATOM     17  H3  <0> d           1.889   0.792  -0.934  0.00  0.00     0.049 H 
ENDBRANCH   3  10
TORSDOF 1
