REMARK  4 active torsions:
REMARK  status: ('A' for Active; 'I' for Inactive)
REMARK    1  A    between atoms: C1_1  and  C2_2 
REMARK    2  A    between atoms: C1_1  and  O2_10 
REMARK    3  A    between atoms: C3_6  and  C4_8 
REMARK    4  A    between atoms: C4_8  and  O1_9 
ROOT
ATOM      1  C2  <0> d           0.002  -0.004   0.002  0.00  0.00     0.145 A 
ATOM      2  N1  <0> d           1.101  -0.779  -0.007  0.00  0.00    -0.261 N 
ATOM      3  H1  <0> d           2.023  -0.479  -0.010  0.00  0.00     0.190 HD
ATOM      4  N2  <0> d           0.647  -2.108  -0.012  0.00  0.00    -0.155 NA
ATOM      5  C3  <0> d          -0.659  -2.062  -0.005  0.00  0.00     0.171 A 
ATOM      6  N3  <0> d          -1.046  -0.787   0.008  0.00  0.00    -0.212 NA
ENDROOT
BRANCH   1   7
ATOM      7  C1  <0> d          -0.018   1.503   0.010  0.00  0.00     0.072 C 
ATOM      8  H2  <0> d          -0.545   1.864  -0.873  0.00  0.00     0.086 H 
ATOM      9  H3  <0> d          -0.529   1.854   0.907  0.00  0.00     0.086 H 
BRANCH   7  10
ATOM     10  O2  <0> d           1.322   1.997   0.000  0.00  0.00    -0.393 OA
ATOM     11  H7  <0> d           1.385   2.962   0.005  0.00  0.00     0.209 HD
ENDBRANCH   7  10
ENDBRANCH   1   7
BRANCH   5  12
ATOM     12  C4  <0> d          -1.577  -3.256  -0.008  0.00  0.00     0.074 C 
ATOM     13  H4  <0> d          -2.507  -2.999  -0.516  0.00  0.00     0.086 H 
ATOM     14  H5  <0> d          -1.096  -4.084  -0.528  0.00  0.00     0.086 H 
BRANCH  12  15
ATOM     15  O1  <0> d          -1.862  -3.641   1.339  0.00  0.00    -0.393 OA
ATOM     16  H6  <0> d          -2.449  -4.405   1.413  0.00  0.00     0.209 HD
ENDBRANCH  12  15
ENDBRANCH   5  12
TORSDOF 4
