REMARK  4 active torsions:
REMARK  status: ('A' for Active; 'I' for Inactive)
REMARK    1  A    between atoms: C3_3  and  C8_9 
REMARK    2  A    between atoms: C5_5  and  C7_7 
REMARK    3  A    between atoms: C7_7  and  O1_8 
REMARK    4  A    between atoms: C8_9  and  O2_10 
ROOT
ATOM      1  C1  <0> d          -0.013   1.076   0.008  0.00  0.00    -0.082 A 
ATOM      2  C2  <0> d          -1.219   1.751   0.017  0.00  0.00    -0.075 A 
ATOM      3  C3  <0> d          -1.238   3.133   0.029  0.00  0.00    -0.034 A 
ATOM      4  C4  <0> d          -0.050   3.840   0.023  0.00  0.00    -0.067 A 
ATOM      5  C5  <0> d           1.156   3.165   0.008  0.00  0.00    -0.034 A 
ATOM      6  C6  <0> d           1.175   1.783   0.000  0.00  0.00    -0.075 A 
ATOM      7  H1  <0> d           0.002  -0.004   0.002  0.00  0.00     0.083 H 
ATOM      8  H2  <0> d          -2.147   1.198   0.019  0.00  0.00     0.084 H 
ATOM      9  H3  <0> d          -0.065   4.920   0.029  0.00  0.00     0.085 H 
ATOM     10  H4  <0> d           2.118   1.256  -0.011  0.00  0.00     0.084 H 
ENDROOT
BRANCH   3  11
ATOM     11  C8  <0> d          -2.553   3.869   0.046  0.00  0.00     0.040 C 
ATOM     12  H8  <0> d          -3.300   3.266   0.563  0.00  0.00     0.081 H 
ATOM     13  H9  <0> d          -2.431   4.819   0.565  0.00  0.00     0.081 H 
BRANCH  11  14
ATOM     14  O2  <0> d          -2.981   4.109  -1.296  0.00  0.00    -0.396 OA
ATOM     15  H10 <0> d          -3.823   4.580  -1.362  0.00  0.00     0.209 HD
ENDBRANCH  11  14
ENDBRANCH   3  11
BRANCH   5  16
ATOM     16  C7  <0> d           2.451   3.937   0.001  0.00  0.00     0.040 C 
ATOM     17  H5  <0> d           2.312   4.884   0.521  0.00  0.00     0.081 H 
ATOM     18  H6  <0> d           3.223   3.355   0.505  0.00  0.00     0.081 H 
BRANCH  16  19
ATOM     19  O1  <0> d           2.848   4.188  -1.349  0.00  0.00    -0.396 OA
ATOM     20  H7  <0> d           3.676   4.681  -1.430  0.00  0.00     0.209 HD
ENDBRANCH  16  19
ENDBRANCH   5  16
TORSDOF 4
