REMARK  3 active torsions:
REMARK  status: ('A' for Active; 'I' for Inactive)
REMARK    1  A    between atoms: C1_1  and  C2_2 
REMARK    2  A    between atoms: C3_5  and  S1_7 
REMARK    3  A    between atoms: S1_7  and  C4_8 
ROOT
ATOM      1  C2  <0> d           0.002  -0.004   0.002  0.00  0.00     0.166 A 
ATOM      2  N1  <0> d           0.008  -0.767  -1.052  0.00  0.00    -0.126 NA
ATOM      3  N2  <0> d           0.026  -2.001  -0.690  0.00  0.00    -0.115 NA
ATOM      4  C3  <0> d           0.033  -2.069   0.620  0.00  0.00     0.230 A 
ATOM      5  O1  <0> d           0.023  -0.806   1.085  0.00  0.00    -0.269 OA
ENDROOT
BRANCH   4   6
ATOM      6  S1  <0> d           0.057  -3.540   1.590  0.00  0.00    -0.087 SA
BRANCH   6   7
ATOM      7  C4  <0> d           0.070  -4.875   0.362  0.00  0.00    -0.027 C 
ATOM      8  H4  <0> d          -0.823  -4.807  -0.259  0.00  0.00     0.042 H 
ATOM      9  H5  <0> d           0.957  -4.783  -0.266  0.00  0.00     0.042 H 
ATOM     10  H6  <0> d           0.086  -5.838   0.872  0.00  0.00     0.042 H 
ENDBRANCH   6   7
ENDBRANCH   4   6
BRANCH   1  11
ATOM     11  C1  <0> d          -0.018   1.503   0.010  0.00  0.00    -0.013 C 
ATOM     12  H1  <0> d           1.004   1.880   0.003  0.00  0.00     0.038 H 
ATOM     13  H2  <0> d          -0.545   1.864  -0.873  0.00  0.00     0.038 H 
ATOM     14  H3  <0> d          -0.529   1.854   0.907  0.00  0.00     0.038 H 
ENDBRANCH   1  11
TORSDOF 3
