REMARK  0 active torsions:
REMARK  status: ('A' for Active; 'I' for Inactive)
ROOT
ATOM      1  C1  <0> d          -0.017   1.406   0.010  0.00  0.00    -0.008 A 
ATOM      2  C2  <0> d          -1.234   2.033   0.019  0.00  0.00    -0.026 A 
ATOM      3  C3  <0> d          -2.391   1.247   0.017  0.00  0.00     0.061 A 
ATOM      4  N1  <0> d          -2.292  -0.060   0.016  0.00  0.00    -0.176 NA
ATOM      5  N2  <0> d          -1.167  -0.673   0.010  0.00  0.00    -0.243 N 
ATOM      6  C4  <0> d           0.002  -0.004   0.002  0.00  0.00     0.261 A 
ATOM      7  O1  <0> d           1.062  -0.609  -0.017  0.00  0.00    -0.267 OA
ATOM      8  C5  <0> d          -3.770   1.855   0.011  0.00  0.00    -0.023 C 
ATOM      9  C6  <0> d          -3.711   3.316   0.452  0.00  0.00    -0.060 C 
ATOM     10  C7  <0> d          -2.652   4.039  -0.388  0.00  0.00    -0.061 C 
ATOM     11  C8  <0> d          -1.272   3.535   0.034  0.00  0.00    -0.039 C 
ATOM     12  H1  <0> d           0.901   1.975   0.004  0.00  0.00     0.093 H 
ATOM     13  H2  <0> d          -1.157  -1.643   0.011  0.00  0.00     0.192 HD
ATOM     14  H3  <0> d          -4.184   1.798  -0.996  0.00  0.00     0.042 H 
ATOM     15  H4  <0> d          -4.412   1.298   0.693  0.00  0.00     0.042 H 
ATOM     16  H5  <0> d          -4.683   3.785   0.297  0.00  0.00     0.033 H 
ATOM     17  H6  <0> d          -3.440   3.369   1.506  0.00  0.00     0.033 H 
ATOM     18  H7  <0> d          -2.813   3.823  -1.445  0.00  0.00     0.033 H 
ATOM     19  H8  <0> d          -2.718   5.113  -0.216  0.00  0.00     0.033 H 
ATOM     20  H9  <0> d          -1.050   3.892   1.040  0.00  0.00     0.040 H 
ATOM     21  H10 <0> d          -0.521   3.921  -0.655  0.00  0.00     0.040 H 
ENDROOT
TORSDOF 0
