REMARK  5 active torsions:
REMARK  status: ('A' for Active; 'I' for Inactive)
REMARK    1  A    between atoms: C1_1  and  O1_2 
REMARK    2  A    between atoms: O1_2  and  C2_3 
REMARK    3  A    between atoms: C5_6  and  O3_11 
REMARK    4  A    between atoms: C7_8  and  O2_9 
REMARK    5  A    between atoms: O2_9  and  C8_10 
ROOT
ATOM      1  C2  <0> d           1.178   1.784   0.000  0.00  0.00     0.101 A 
ATOM      2  C3  <0> d          -0.013   1.076   0.008  0.00  0.00    -0.045 A 
ATOM      3  C4  <0> d          -1.219   1.750   0.017  0.00  0.00    -0.048 A 
ATOM      4  C5  <0> d          -1.241   3.137   0.031  0.00  0.00     0.068 A 
ATOM      5  C6  <0> d          -0.051   3.850   0.023  0.00  0.00    -0.016 A 
ATOM      6  C7  <0> d           1.159   3.175   0.008  0.00  0.00     0.104 A 
ATOM      7  H4  <0> d           0.002  -0.004   0.002  0.00  0.00     0.088 H 
ATOM      8  H5  <0> d          -2.146   1.196   0.019  0.00  0.00     0.087 H 
ATOM      9  H6  <0> d          -0.068   4.929   0.029  0.00  0.00     0.092 H 
ENDROOT
BRANCH   1  10
ATOM     10  O1  <0> d           2.365   1.120  -0.015  0.00  0.00    -0.353 OA
BRANCH  10  11
ATOM     11  C1  <0> d           2.310  -0.308  -0.023  0.00  0.00     0.010 C 
ATOM     12  H1  <0> d           3.322  -0.711  -0.035  0.00  0.00     0.066 H 
ATOM     13  H2  <0> d           1.791  -0.656   0.871  0.00  0.00     0.066 H 
ATOM     14  H3  <0> d           1.774  -0.646  -0.909  0.00  0.00     0.066 H 
ENDBRANCH  10  11
ENDBRANCH   1  10
BRANCH   6  15
ATOM     15  O2  <0> d           2.326   3.872   0.001  0.00  0.00    -0.353 OA
BRANCH  15  16
ATOM     16  C8  <0> d           2.231   5.298   0.010  0.00  0.00     0.010 C 
ATOM     17  H7  <0> d           1.686   5.631  -0.874  0.00  0.00     0.066 H 
ATOM     18  H8  <0> d           1.702   5.622   0.906  0.00  0.00     0.066 H 
ATOM     19  H9  <0> d           3.232   5.729   0.003  0.00  0.00     0.066 H 
ENDBRANCH  15  16
ENDBRANCH   6  15
BRANCH   4  20
ATOM     20  O3  <0> d          -2.429   3.798   0.045  0.00  0.00    -0.361 OA
ATOM     21  H10 <0> d          -2.781   3.994  -0.834  0.00  0.00     0.217 HD
ENDBRANCH   4  20
TORSDOF 5
