REMARK  3 active torsions:
REMARK  status: ('A' for Active; 'I' for Inactive)
REMARK    1  A    between atoms: C1_1  and  C2_2 
REMARK    2  A    between atoms: C4_5  and  N3_9 
REMARK    3  A    between atoms: C5_7  and  C6_8 
ROOT
ATOM      1  C2  <0> d           0.002  -0.004   0.002  0.00  0.00    -0.019 A 
ATOM      2  C3  <0> d           0.023  -0.719   1.190  0.00  0.00     0.029 A 
ATOM      3  N1  <0> d           0.040  -2.040   1.147  0.00  0.00    -0.075 NA
ATOM      4  C4  <0> d           0.037  -2.681  -0.013  0.00  0.00     0.720 A 
ATOM      5  N2  <0> d           0.017  -2.028  -1.165  0.00  0.00    -0.068 NA
ATOM      6  C5  <0> d          -0.005  -0.706  -1.193  0.00  0.00     0.057 A 
ATOM      7  H4  <0> d           0.025  -0.202   2.138  0.00  0.00     0.116 H 
ENDROOT
BRANCH   1   8
ATOM      8  C1  <0> d          -0.018   1.503   0.010  0.00  0.00    -0.048 C 
ATOM      9  H1  <0> d           1.004   1.880   0.003  0.00  0.00     0.033 H 
ATOM     10  H2  <0> d          -0.545   1.864  -0.873  0.00  0.00     0.033 H 
ATOM     11  H3  <0> d          -0.529   1.854   0.907  0.00  0.00     0.033 H 
ENDBRANCH   1   8
BRANCH   6  12
ATOM     12  C6  <0> d          -0.034   0.029  -2.509  0.00  0.00    -0.034 C 
ATOM     13  H5  <0> d           0.987   0.220  -2.840  0.00  0.00     0.035 H 
ATOM     14  H6  <0> d          -0.550  -0.578  -3.252  0.00  0.00     0.035 H 
ATOM     15  H7  <0> d          -0.559   0.976  -2.384  0.00  0.00     0.035 H 
ENDBRANCH   6  12
BRANCH   4  16
ATOM     16  N3  <0> d           0.056  -4.065  -0.020  0.00  0.00    -0.231 N 
ATOM     17  H8  <0> d           0.070  -4.554   0.817  0.00  0.00     0.174 HD
ATOM     18  H9  <0> d           0.054  -4.545  -0.863  0.00  0.00     0.174 HD
ENDBRANCH   4  16
TORSDOF 3
