REMARK  5 active torsions:
REMARK  status: ('A' for Active; 'I' for Inactive)
REMARK    1  A    between atoms: C1_1  and  O1_2 
REMARK    2  A    between atoms: O1_2  and  C2_3 
REMARK    3  A    between atoms: C5_6  and  O3_11 
REMARK    4  A    between atoms: C6_7  and  C8_9 
REMARK    5  A    between atoms: C8_9  and  O2_10 
ROOT
ATOM      1  C2  <0> d           0.040  -2.772  -0.013  0.00  0.00     0.069 A 
ATOM      2  C3  <0> d           0.042  -2.085   1.192  0.00  0.00    -0.048 A 
ATOM      3  C4  <0> d           0.023  -0.704   1.200  0.00  0.00    -0.048 A 
ATOM      4  C5  <0> d           0.002  -0.004   0.002  0.00  0.00     0.074 A 
ATOM      5  C6  <0> d          -0.006  -0.691  -1.203  0.00  0.00     0.001 A 
ATOM      6  C7  <0> d           0.018  -2.072  -1.210  0.00  0.00    -0.040 A 
ATOM      7  H4  <0> d           0.058  -2.630   2.124  0.00  0.00     0.087 H 
ATOM      8  H5  <0> d           0.024  -0.169   2.138  0.00  0.00     0.087 H 
ATOM      9  H6  <0> d           0.016  -2.607  -2.148  0.00  0.00     0.088 H 
ENDROOT
BRANCH   1  10
ATOM     10  O1  <0> d           0.058  -4.132  -0.021  0.00  0.00    -0.356 OA
BRANCH  10  11
ATOM     11  C1  <0> d           0.079  -4.787   1.249  0.00  0.00     0.010 C 
ATOM     12  H1  <0> d           0.970  -4.485   1.799  0.00  0.00     0.066 H 
ATOM     13  H2  <0> d          -0.809  -4.510   1.816  0.00  0.00     0.066 H 
ATOM     14  H3  <0> d           0.092  -5.867   1.100  0.00  0.00     0.066 H 
ENDBRANCH  10  11
ENDBRANCH   1  10
BRANCH   5  15
ATOM     15  C8  <0> d          -0.035   0.069  -2.503  0.00  0.00     0.043 C 
ATOM     16  H7  <0> d          -0.934   0.684  -2.545  0.00  0.00     0.081 H 
ATOM     17  H8  <0> d           0.846   0.708  -2.570  0.00  0.00     0.081 H 
BRANCH  15  18
ATOM     18  O2  <0> d          -0.038  -0.853  -3.595  0.00  0.00    -0.396 OA
ATOM     19  H9  <0> d          -0.056  -0.433  -4.465  0.00  0.00     0.209 HD
ENDBRANCH  15  18
ENDBRANCH   5  15
BRANCH   4  20
ATOM     20  O3  <0> d          -0.016   1.356   0.009  0.00  0.00    -0.360 OA
ATOM     21  H10 <0> d           0.862   1.761   0.003  0.00  0.00     0.217 HD
ENDBRANCH   4  20
TORSDOF 5
