REMARK  5 active torsions:
REMARK  status: ('A' for Active; 'I' for Inactive)
REMARK    1  A    between atoms: C1_1  and  C2_2 
REMARK    2  A    between atoms: C2_2  and  C3_3 
REMARK       I    between atoms: C3_3  and  N1_5 
REMARK    3  A    between atoms: N1_5  and  C4_6 
REMARK    4  A    between atoms: C4_6  and  C5_8 
REMARK    5  A    between atoms: C4_6  and  C6_9 
ROOT
ATOM      1  C3  <0> d           1.147   1.655  -0.000  0.00  0.00     0.217 C 
ATOM      2  O1  <0> d           1.130   2.868   0.007  0.00  0.00    -0.274 OA
ATOM      3  N1  <0> d          -0.011   0.966   0.007  0.00  0.00    -0.347 N 
ATOM      4  H7  <0> d           0.002  -0.004   0.002  0.00  0.00     0.163 HD
ENDROOT
BRANCH   3   5
ATOM      5  C4  <0> d          -1.290   1.681   0.017  0.00  0.00     0.092 C 
ATOM      6  H1  <0> d          -1.198   2.596  -0.568  0.00  0.00     0.089 H 
BRANCH   5   7
ATOM      7  C5  <0> d          -1.667   2.032   1.458  0.00  0.00    -0.048 C 
ATOM      8  H8  <0> d          -1.758   1.117   2.043  0.00  0.00     0.030 H 
ATOM      9  H9  <0> d          -0.893   2.665   1.892  0.00  0.00     0.030 H 
ATOM     10  H10 <0> d          -2.618   2.564   1.465  0.00  0.00     0.030 H 
ENDBRANCH   5   7
BRANCH   5  11
ATOM     11  C6  <0> d          -2.360   0.806  -0.583  0.00  0.00     0.196 C 
ATOM     12  O2  <0> d          -2.083  -0.302  -0.978  0.00  0.00    -0.646 OA
ATOM     13  O3  <0> d          -3.620   1.256  -0.678  0.00  0.00    -0.646 OA
ENDBRANCH   5  11
ENDBRANCH   3   5
BRANCH   1  14
ATOM     14  C2  <0> d           2.462   0.920  -0.017  0.00  0.00     0.006 C 
ATOM     15  H5  <0> d           2.537   0.289   0.869  0.00  0.00     0.046 H 
ATOM     16  H6  <0> d           2.520   0.299  -0.910  0.00  0.00     0.046 H 
BRANCH  14  17
ATOM     17  C1  <0> d           3.611   1.930  -0.022  0.00  0.00    -0.068 C 
ATOM     18  H2  <0> d           4.562   1.398  -0.034  0.00  0.00     0.028 H 
ATOM     19  H3  <0> d           3.537   2.560  -0.908  0.00  0.00     0.028 H 
ATOM     20  H4  <0> d           3.554   2.551   0.872  0.00  0.00     0.028 H 
ENDBRANCH  14  17
ENDBRANCH   1  14
TORSDOF 5
