REMARK  2 active torsions:
REMARK  status: ('A' for Active; 'I' for Inactive)
REMARK    1  A    between atoms: C1_1  and  N1_2 
REMARK    2  A    between atoms: N1_2  and  C2_3 
ROOT
ATOM      1  C2  <0> d          -0.762   1.505  -1.072  0.00  0.00     0.137 A 
ATOM      2  C3  <0> d          -0.989   2.873  -1.211  0.00  0.00     0.213 A 
ATOM      3  N2  <0> d          -1.698   3.307  -2.248  0.00  0.00    -0.296 N 
ATOM      4  C4  <0> d          -2.195   2.459  -3.133  0.00  0.00     0.260 A 
ATOM      5  N3  <0> d          -2.006   1.154  -3.031  0.00  0.00    -0.296 N 
ATOM      6  C5  <0> d          -1.303   0.644  -2.026  0.00  0.00     0.213 A 
ATOM      7  O1  <0> d          -1.114  -0.696  -1.929  0.00  0.00    -0.169 OA
ATOM      8  O2  <0> d          -2.918   2.941  -4.173  0.00  0.00    -0.151 OA
ATOM      9  O3  <0> d          -0.488   3.750  -0.305  0.00  0.00    -0.169 OA
ATOM     10  H5  <0> d          -2.433   0.476  -3.785  0.00  0.00     0.171 HD
ATOM     11  H6  <0> d          -1.879   4.384  -2.379  0.00  0.00     0.171 HD
ENDROOT
BRANCH   1  12
ATOM     12  N1  <0> d          -0.012   1.005   0.008  0.00  0.00    -0.387 N 
ATOM     13  H4  <0> d          -0.317   0.302   0.797  0.00  0.00     0.159 HD
BRANCH  12  14
ATOM     14  C1  <0> d           1.353   1.550  -0.003  0.00  0.00    -0.021 C 
ATOM     15  H1  <0> d           1.916   1.143   0.850  0.00  0.00     0.056 H 
ATOM     16  H2  <0> d           1.310   2.646   0.075  0.00  0.00     0.056 H 
ATOM     17  H3  <0> d           1.853   1.268  -0.941  0.00  0.00     0.056 H 
ENDBRANCH  12  14
ENDBRANCH   1  12
TORSDOF 2
