REMARK  5 active torsions:
REMARK  status: ('A' for Active; 'I' for Inactive)
REMARK    1  A    between atoms: C1_1  and  C2_2 
REMARK    2  A    between atoms: C2_2  and  C3_3 
REMARK    3  A    between atoms: C2_2  and  C4_4 
REMARK    4  A    between atoms: C7_7  and  C10_10 
REMARK    5  A    between atoms: C10_10  and  O1_11 
ROOT
ATOM      1  C4  <0> d          -2.012   2.463   3.523  0.00  0.00    -0.055 A 
ATOM      2  C5  <0> d          -2.366   1.254   2.955  0.00  0.00    -0.076 A 
ATOM      3  C6  <0> d          -1.719   0.808   1.818  0.00  0.00    -0.074 A 
ATOM      4  C7  <0> d          -0.718   1.572   1.248  0.00  0.00    -0.035 A 
ATOM      5  C8  <0> d          -0.360   2.779   1.819  0.00  0.00    -0.074 A 
ATOM      6  C9  <0> d          -1.010   3.227   2.953  0.00  0.00    -0.076 A 
ATOM      7  H8  <0> d          -3.149   0.657   3.400  0.00  0.00     0.084 H 
ATOM      8  H9  <0> d          -1.996  -0.137   1.374  0.00  0.00     0.084 H 
ATOM      9  H10 <0> d           0.425   3.373   1.376  0.00  0.00     0.084 H 
ATOM     10  H11 <0> d          -0.733   4.172   3.397  0.00  0.00     0.084 H 
ENDROOT
BRANCH   1  11
ATOM     11  C2  <0> d          -2.718   2.950   4.762  0.00  0.00    -0.036 C 
ATOM     12  H4  <0> d          -3.471   2.220   5.061  0.00  0.00     0.046 H 
BRANCH  11  13
ATOM     13  C1  <0> d          -1.702   3.127   5.892  0.00  0.00    -0.069 C 
ATOM     14  H1  <0> d          -2.212   3.479   6.788  0.00  0.00     0.028 H 
ATOM     15  H2  <0> d          -1.219   2.172   6.100  0.00  0.00     0.028 H 
ATOM     16  H3  <0> d          -0.949   3.856   5.593  0.00  0.00     0.028 H 
ENDBRANCH  11  13
BRANCH  11  17
ATOM     17  C3  <0> d          -3.395   4.290   4.470  0.00  0.00    -0.069 C 
ATOM     18  H5  <0> d          -4.119   4.164   3.665  0.00  0.00     0.028 H 
ATOM     19  H6  <0> d          -3.905   4.642   5.367  0.00  0.00     0.028 H 
ATOM     20  H7  <0> d          -2.642   5.020   4.171  0.00  0.00     0.028 H 
ENDBRANCH  11  17
ENDBRANCH   1  11
BRANCH   4  21
ATOM     21  C10 <0> d          -0.013   1.086   0.008  0.00  0.00     0.040 C 
ATOM     22  H12 <0> d           0.002  -0.004   0.002  0.00  0.00     0.081 H 
ATOM     23  H13 <0> d           1.010   1.463   0.000  0.00  0.00     0.081 H 
BRANCH  21  24
ATOM     24  O1  <0> d          -0.704   1.559  -1.150  0.00  0.00    -0.396 OA
ATOM     25  H14 <0> d          -0.304   1.284  -1.986  0.00  0.00     0.209 HD
ENDBRANCH  21  24
ENDBRANCH   4  21
TORSDOF 5
