REMARK  5 active torsions:
REMARK  status: ('A' for Active; 'I' for Inactive)
REMARK    1  A    between atoms: C1_1  and  C2_2 
REMARK    2  A    between atoms: C5_5  and  C8_8 
REMARK    3  A    between atoms: C5_5  and  C9_10 
REMARK    4  A    between atoms: C8_8  and  O1_9 
REMARK    5  A    between atoms: C9_10  and  O2_11 
ROOT
ATOM      1  C2  <0> d           1.615   2.918   2.016  0.00  0.00    -0.087 C 
ATOM      2  C3  <0> d           0.647   3.631   1.536  0.00  0.00    -0.100 C 
ATOM      3  C4  <0> d          -0.743   3.109   1.284  0.00  0.00    -0.039 C 
ATOM      4  C5  <0> d          -0.729   1.579   1.267  0.00  0.00     0.006 C 
ATOM      5  C6  <0> d           0.016   1.082   2.512  0.00  0.00    -0.051 C 
ATOM      6  C7  <0> d           1.491   1.468   2.380  0.00  0.00    -0.044 C 
ATOM      7  H4  <0> d           0.848   4.666   1.301  0.00  0.00     0.077 H 
ATOM      8  H5  <0> d          -1.104   3.478   0.325  0.00  0.00     0.040 H 
ATOM      9  H6  <0> d          -1.407   3.455   2.076  0.00  0.00     0.040 H 
ATOM     10  H7  <0> d          -0.407   1.548   3.402  0.00  0.00     0.034 H 
ATOM     11  H8  <0> d          -0.074  -0.002   2.584  0.00  0.00     0.034 H 
ATOM     12  H9  <0> d           1.997   1.289   3.329  0.00  0.00     0.039 H 
ATOM     13  H10 <0> d           1.956   0.860   1.605  0.00  0.00     0.039 H 
ENDROOT
BRANCH   4  14
ATOM     14  C8  <0> d          -0.013   1.086   0.008  0.00  0.00     0.026 C 
ATOM     15  H11 <0> d           0.002  -0.004   0.002  0.00  0.00     0.075 H 
ATOM     16  H12 <0> d           1.010   1.463   0.000  0.00  0.00     0.075 H 
BRANCH  14  17
ATOM     17  O1  <0> d          -0.704   1.559  -1.150  0.00  0.00    -0.400 OA
ATOM     18  H13 <0> d          -0.304   1.284  -1.986  0.00  0.00     0.209 HD
ENDBRANCH  14  17
ENDBRANCH   4  14
BRANCH   4  19
ATOM     19  C9  <0> d          -2.165   1.052   1.282  0.00  0.00     0.026 C 
ATOM     20  H14 <0> d          -2.152  -0.038   1.277  0.00  0.00     0.075 H 
ATOM     21  H15 <0> d          -2.672   1.405   2.179  0.00  0.00     0.075 H 
BRANCH  19  22
ATOM     22  O2  <0> d          -2.858   1.525   0.125  0.00  0.00    -0.400 OA
ATOM     23  H16 <0> d          -3.777   1.229   0.069  0.00  0.00     0.209 HD
ENDBRANCH  19  22
ENDBRANCH   4  19
BRANCH   1  24
ATOM     24  C1  <0> d           2.950   3.587   2.222  0.00  0.00    -0.055 C 
ATOM     25  H1  <0> d           3.551   3.485   1.318  0.00  0.00     0.033 H 
ATOM     26  H2  <0> d           2.797   4.644   2.439  0.00  0.00     0.033 H 
ATOM     27  H3  <0> d           3.467   3.115   3.057  0.00  0.00     0.033 H 
ENDBRANCH   1  24
TORSDOF 5
