REMARK  6 active torsions:
REMARK  status: ('A' for Active; 'I' for Inactive)
REMARK    1  A    between atoms: C1_1  and  C2_2 
REMARK    2  A    between atoms: C2_2  and  C3_3 
REMARK    3  A    between atoms: C3_3  and  C4_4 
REMARK    4  A    between atoms: C5_5  and  C10_12 
REMARK    5  A    between atoms: C6_6  and  C9_11 
REMARK    6  A    between atoms: C7_9  and  C8_10 
ROOT
ATOM      1  C4  <0> d          -1.413  -2.041   0.005  0.00  0.00    -0.028 A 
ATOM      2  C5  <0> d          -1.407  -2.868  -1.136  0.00  0.00    -0.032 A 
ATOM      3  C6  <0> d          -1.387  -4.146  -0.706  0.00  0.00     0.012 A 
ATOM      4  N1  <0> d          -1.380  -4.138   0.657  0.00  0.00    -0.363 N 
ATOM      5  H1  <0> d          -1.366  -4.923   1.227  0.00  0.00     0.165 HD
ATOM      6  C7  <0> d          -1.391  -2.844   1.087  0.00  0.00     0.012 A 
ENDROOT
BRANCH   1   7
ATOM      7  C3  <0> d          -1.433  -0.534   0.013  0.00  0.00    -0.039 C 
ATOM      8  H7  <0> d          -1.944  -0.182   0.910  0.00  0.00     0.040 H 
ATOM      9  H8  <0> d          -1.960  -0.173  -0.870  0.00  0.00     0.040 H 
BRANCH   7  10
ATOM     10  C2  <0> d           0.002  -0.004   0.002  0.00  0.00    -0.065 C 
ATOM     11  H5  <0> d           0.512  -0.356  -0.895  0.00  0.00     0.032 H 
ATOM     12  H6  <0> d           0.529  -0.365   0.885  0.00  0.00     0.032 H 
BRANCH  10  13
ATOM     13  C1  <0> d          -0.019   1.526   0.010  0.00  0.00    -0.076 C 
ATOM     14  H2  <0> d           1.004   1.903   0.003  0.00  0.00     0.027 H 
ATOM     15  H3  <0> d          -0.546   1.887  -0.873  0.00  0.00     0.027 H 
ATOM     16  H4  <0> d          -0.529   1.877   0.907  0.00  0.00     0.027 H 
ENDBRANCH  10  13
ENDBRANCH   7  10
ENDBRANCH   1   7
BRANCH   6  17
ATOM     17  C8  <0> d          -1.383  -2.391   2.524  0.00  0.00    -0.037 C 
ATOM     18  H9  <0> d          -2.409  -2.296   2.881  0.00  0.00     0.035 H 
ATOM     19  H10 <0> d          -0.853  -3.123   3.133  0.00  0.00     0.035 H 
ATOM     20  H11 <0> d          -0.882  -1.426   2.598  0.00  0.00     0.035 H 
ENDBRANCH   6  17
BRANCH   2  21
ATOM     21  C10 <0> d          -1.421  -2.409  -2.571  0.00  0.00    -0.049 C 
ATOM     22  H15 <0> d          -0.396  -2.284  -2.922  0.00  0.00     0.033 H 
ATOM     23  H16 <0> d          -1.927  -3.154  -3.186  0.00  0.00     0.033 H 
ATOM     24  H17 <0> d          -1.948  -1.458  -2.643  0.00  0.00     0.033 H 
ENDBRANCH   2  21
BRANCH   3  25
ATOM     25  C9  <0> d          -1.374  -5.372  -1.583  0.00  0.00    -0.037 C 
ATOM     26  H12 <0> d          -0.343  -5.654  -1.799  0.00  0.00     0.035 H 
ATOM     27  H13 <0> d          -1.874  -6.192  -1.067  0.00  0.00     0.035 H 
ATOM     28  H14 <0> d          -1.896  -5.158  -2.515  0.00  0.00     0.035 H 
ENDBRANCH   3  25
TORSDOF 6
