REMARK  1 active torsions:
REMARK  status: ('A' for Active; 'I' for Inactive)
REMARK    1  A    between atoms: C1_1  and  C2_2 
ROOT
ATOM      1  C2  <0> d           0.002  -0.004   0.002  0.00  0.00    -0.031 A 
ATOM      2  C3  <0> d           1.304  -0.356  -0.010  0.00  0.00    -0.016 A 
ATOM      3  N1  <0> d           2.078   0.773  -0.011  0.00  0.00    -0.368 N 
ATOM      4  H1  <0> d           3.048   0.780  -0.017  0.00  0.00     0.165 HD
ATOM      5  C4  <0> d           1.308   1.866  -0.000  0.00  0.00     0.023 A 
ATOM      6  C5  <0> d          -0.018   1.448   0.010  0.00  0.00     0.039 A 
ATOM      7  C6  <0> d          -1.133   2.400   0.031  0.00  0.00     0.162 C 
ATOM      8  O1  <0> d          -2.283   2.061  -0.156  0.00  0.00    -0.292 OA
ATOM      9  C7  <0> d          -0.742   3.845   0.303  0.00  0.00    -0.005 C 
ATOM     10  C8  <0> d           0.525   4.164  -0.496  0.00  0.00    -0.054 C 
ATOM     11  C9  <0> d           1.704   3.320  -0.003  0.00  0.00    -0.025 C 
ATOM     12  H5  <0> d           1.678  -1.370  -0.019  0.00  0.00     0.112 H 
ATOM     13  H6  <0> d          -0.570   3.966   1.281  0.00  0.00     0.044 H 
ATOM     14  H7  <0> d          -1.548   4.510  -0.007  0.00  0.00     0.044 H 
ATOM     15  H8  <0> d           0.767   5.220  -0.381  0.00  0.00     0.034 H 
ATOM     16  H9  <0> d           0.348   3.950  -1.550  0.00  0.00     0.034 H 
ATOM     17  H10 <0> d           1.973   3.626   1.009  0.00  0.00     0.042 H 
ATOM     18  H11 <0> d           2.558   3.463  -0.665  0.00  0.00     0.042 H 
ENDROOT
BRANCH   1  19
ATOM     19  C1  <0> d          -1.188  -0.928   0.006  0.00  0.00    -0.049 C 
ATOM     20  H2  <0> d          -1.483  -1.145  -1.020  0.00  0.00     0.033 H 
ATOM     21  H3  <0> d          -0.926  -1.857   0.513  0.00  0.00     0.033 H 
ATOM     22  H4  <0> d          -2.017  -0.451   0.529  0.00  0.00     0.033 H 
ENDBRANCH   1  19
TORSDOF 1
