REMARK  8 active torsions:
REMARK  status: ('A' for Active; 'I' for Inactive)
REMARK    1  A    between atoms: C1_1  and  C2_2 
REMARK    2  A    between atoms: C2_2  and  O1_3 
REMARK    3  A    between atoms: O1_3  and  C3_4 
REMARK    4  A    between atoms: C3_4  and  C4_6 
REMARK    5  A    between atoms: C4_6  and  C5_8 
REMARK    6  A    between atoms: C4_6  and  O4_12 
REMARK    7  A    between atoms: C5_8  and  C6_10 
REMARK    8  A    between atoms: C5_8  and  O3_11 
ROOT
ATOM      1  C4  <0> d           2.064   1.114   1.238  0.00  0.00     0.143 C 
ATOM      2  H1  <0> d           3.055   1.588   1.289  0.00  0.00     0.102 H 
ENDROOT
BRANCH   1   3
ATOM      3  C3  <0> d           1.264   1.432   2.474  0.00  0.00     0.290 C 
ATOM      4  O2  <0> d           0.850   0.538   3.174  0.00  0.00    -0.262 OA
BRANCH   3   5
ATOM      5  O1  <0> d           1.010   2.710   2.799  0.00  0.00    -0.320 OA
BRANCH   5   6
ATOM      6  C2  <0> d           0.233   2.942   4.004  0.00  0.00     0.026 C 
ATOM      7  H6  <0> d           0.763   2.516   4.869  0.00  0.00     0.074 H 
ATOM      8  H7  <0> d          -0.751   2.461   3.904  0.00  0.00     0.074 H 
BRANCH   6   9
ATOM      9  C1  <0> d           0.048   4.447   4.209  0.00  0.00    -0.056 C 
ATOM     10  H3  <0> d          -0.540   4.622   5.122  0.00  0.00     0.030 H 
ATOM     11  H4  <0> d          -0.482   4.872   3.344  0.00  0.00     0.030 H 
ATOM     12  H5  <0> d           1.032   4.927   4.309  0.00  0.00     0.030 H 
ENDBRANCH   6   9
ENDBRANCH   5   6
ENDBRANCH   3   5
ENDBRANCH   1   3
BRANCH   1  13
ATOM     13  C5  <0> d           1.286   1.562  -0.002  0.00  0.00     0.066 C 
ATOM     14  H2  <0> d           1.115   2.648   0.006  0.00  0.00     0.087 H 
BRANCH  13  15
ATOM     15  C6  <0> d           2.040   1.127  -1.261  0.00  0.00    -0.050 C 
ATOM     16  H8  <0> d           1.481   1.449  -2.152  0.00  0.00     0.031 H 
ATOM     17  H9  <0> d           2.141   0.032  -1.268  0.00  0.00     0.031 H 
ATOM     18  H10 <0> d           3.038   1.588  -1.268  0.00  0.00     0.031 H 
ENDBRANCH  13  15
BRANCH  13  19
ATOM     19  O3  <0> d          -0.011   0.963   0.007  0.00  0.00    -0.393 OA
ATOM     20  H11 <0> d          -0.718   1.169  -0.810  0.00  0.00     0.210 HD
ENDBRANCH  13  19
ENDBRANCH   1  13
BRANCH   1  21
ATOM     21  O4  <0> d           2.297  -0.294   1.171  0.00  0.00    -0.383 OA
ATOM     22  H12 <0> d           2.868  -0.718   0.331  0.00  0.00     0.210 HD
ENDBRANCH   1  21
TORSDOF 8
