REMARK  6 active torsions:
REMARK  status: ('A' for Active; 'I' for Inactive)
REMARK    1  A    between atoms: C1_1  and  C2_2 
REMARK    2  A    between atoms: C2_2  and  C3_3 
REMARK    3  A    between atoms: C3_3  and  C4_4 
REMARK    4  A    between atoms: C3_3  and  C5_5 
REMARK    5  A    between atoms: C3_3  and  O2_7 
REMARK    6  A    between atoms: O2_7  and  C6_8 
ROOT
ATOM      1  C3  <0> d          -2.037   1.106   1.292  0.00  0.00     0.144 C 
ENDROOT
BRANCH   1   2
ATOM      2  C2  <0> d          -2.075  -0.423   1.321  0.00  0.00    -0.030 C 
ATOM      3  H4  <0> d          -3.111  -0.761   1.314  0.00  0.00     0.037 H 
ATOM      4  H5  <0> d          -1.559  -0.816   0.445  0.00  0.00     0.037 H 
BRANCH   2   5
ATOM      5  C1  <0> d          -1.383  -0.927   2.589  0.00  0.00    -0.073 C 
ATOM      6  H1  <0> d          -1.410  -2.016   2.610  0.00  0.00     0.027 H 
ATOM      7  H2  <0> d          -0.346  -0.589   2.596  0.00  0.00     0.027 H 
ATOM      8  H3  <0> d          -1.899  -0.534   3.465  0.00  0.00     0.027 H 
ENDBRANCH   2   5
ENDBRANCH   1   2
BRANCH   1   9
ATOM      9  C4  <0> d          -2.650   1.656   2.581  0.00  0.00    -0.038 C 
ATOM     10  H6  <0> d          -2.623   2.745   2.561  0.00  0.00     0.032 H 
ATOM     11  H7  <0> d          -3.684   1.320   2.664  0.00  0.00     0.032 H 
ATOM     12  H8  <0> d          -2.081   1.294   3.438  0.00  0.00     0.032 H 
ENDBRANCH   1   9
BRANCH   1  13
ATOM     13  C5  <0> d          -2.824   1.606   0.108  0.00  0.00     0.208 C 
ATOM     14  O1  <0> d          -3.705   0.926  -0.362  0.00  0.00    -0.646 OA
ATOM     15  O3  <0> d          -2.546   2.806  -0.424  0.00  0.00    -0.646 OA
ENDBRANCH   1  13
BRANCH   1  16
ATOM     16  O2  <0> d          -0.682   1.547   1.184  0.00  0.00    -0.374 OA
BRANCH  16  17
ATOM     17  C6  <0> d          -0.013   1.086   0.008  0.00  0.00     0.006 C 
ATOM     18  H9  <0> d           0.002  -0.004   0.002  0.00  0.00     0.066 H 
ATOM     19  H10 <0> d           1.010   1.463   0.000  0.00  0.00     0.066 H 
ATOM     20  H11 <0> d          -0.540   1.447  -0.875  0.00  0.00     0.066 H 
ENDBRANCH  16  17
ENDBRANCH   1  16
TORSDOF 6
