REMARK  8 active torsions:
REMARK  status: ('A' for Active; 'I' for Inactive)
REMARK    1  A    between atoms: C1_1  and  C2_2 
REMARK    2  A    between atoms: C2_2  and  O1_3 
REMARK    3  A    between atoms: O1_3  and  C3_4 
REMARK    4  A    between atoms: C3_4  and  C4_6 
REMARK    5  A    between atoms: C4_6  and  C5_7 
REMARK    6  A    between atoms: C5_7  and  C6_8 
REMARK    7  A    between atoms: C6_8  and  C7_9 
REMARK    8  A    between atoms: C7_9  and  C8_10 
ROOT
ATOM      1  C5  <0> d          -3.518   2.092  -1.152  0.00  0.00    -0.056 C 
ATOM      2  H8  <0> d          -4.042   1.885  -0.219  0.00  0.00     0.033 H 
ATOM      3  H9  <0> d          -3.335   3.163  -1.236  0.00  0.00     0.033 H 
ENDROOT
BRANCH   1   4
ATOM      4  C4  <0> d          -4.372   1.625  -2.332  0.00  0.00     0.016 C 
ATOM      5  H6  <0> d          -3.848   1.832  -3.264  0.00  0.00     0.048 H 
ATOM      6  H7  <0> d          -4.554   0.554  -2.247  0.00  0.00     0.048 H 
BRANCH   4   7
ATOM      7  C3  <0> d          -5.687   2.361  -2.321  0.00  0.00     0.258 C 
ATOM      8  O2  <0> d          -5.918   3.175  -1.459  0.00  0.00    -0.265 OA
BRANCH   7   9
ATOM      9  O1  <0> d          -6.603   2.112  -3.271  0.00  0.00    -0.322 OA
BRANCH   9  10
ATOM     10  C2  <0> d          -7.847   2.857  -3.199  0.00  0.00     0.025 C 
ATOM     11  H4  <0> d          -8.343   2.646  -2.251  0.00  0.00     0.074 H 
ATOM     12  H5  <0> d          -7.636   3.924  -3.268  0.00  0.00     0.074 H 
BRANCH  10  13
ATOM     13  C1  <0> d          -8.759   2.441  -4.355  0.00  0.00    -0.056 C 
ATOM     14  H1  <0> d          -8.263   2.652  -5.302  0.00  0.00     0.030 H 
ATOM     15  H2  <0> d          -8.970   1.374  -4.285  0.00  0.00     0.030 H 
ATOM     16  H3  <0> d          -9.693   3.001  -4.300  0.00  0.00     0.030 H 
ENDBRANCH  10  13
ENDBRANCH   9  10
ENDBRANCH   7   9
ENDBRANCH   4   7
ENDBRANCH   1   4
BRANCH   1  17
ATOM     17  C6  <0> d          -2.182   1.345  -1.162  0.00  0.00    -0.062 C 
ATOM     18  H10 <0> d          -1.658   1.552  -2.095  0.00  0.00     0.033 H 
ATOM     19  H11 <0> d          -2.365   0.274  -1.077  0.00  0.00     0.033 H 
BRANCH  17  20
ATOM     20  C7  <0> d          -1.328   1.812   0.018  0.00  0.00    -0.051 C 
ATOM     21  H12 <0> d          -1.853   1.605   0.951  0.00  0.00     0.038 H 
ATOM     22  H13 <0> d          -1.145   2.883  -0.066  0.00  0.00     0.038 H 
BRANCH  20  23
ATOM     23  C8  <0> d          -0.013   1.076   0.008  0.00  0.00    -0.112 C 
ATOM     24  C9  <0> d           1.113   1.746   0.001  0.00  0.00    -0.125 C 
ATOM     25  H15 <0> d           2.055   1.219  -0.011  0.00  0.00     0.066 H 
ATOM     26  H16 <0> d           1.098   2.826   0.007  0.00  0.00     0.066 H 
ATOM     27  H14 <0> d           0.002  -0.004   0.002  0.00  0.00     0.075 H 
ENDBRANCH  20  23
ENDBRANCH  17  20
ENDBRANCH   1  17
TORSDOF 8
