REMARK  2 active torsions:
REMARK  status: ('A' for Active; 'I' for Inactive)
REMARK    1  A    between atoms: C1_1  and  O1_2 
REMARK    2  A    between atoms: O1_2  and  C2_3 
ROOT
ATOM      1  C2  <0> d           1.100   2.028   0.002  0.00  0.00     0.166 A 
ATOM      2  C3  <0> d           2.349   1.410  -0.013  0.00  0.00    -0.031 A 
ATOM      3  C4  <0> d           2.425   0.043  -0.021  0.00  0.00    -0.065 A 
ATOM      4  C5  <0> d           1.232  -0.686  -0.013  0.00  0.00     0.011 A 
ATOM      5  C6  <0> d           0.907  -2.115  -0.018  0.00  0.00    -0.054 A 
ATOM      6  C7  <0> d          -0.431  -2.210  -0.006  0.00  0.00    -0.020 A 
ATOM      7  N1  <0> d          -0.987  -0.957   0.006  0.00  0.00    -0.350 N 
ATOM      8  H1  <0> d          -1.939  -0.771   0.016  0.00  0.00     0.166 HD
ATOM      9  C8  <0> d           0.002  -0.004   0.002  0.00  0.00     0.140 A 
ATOM     10  N2  <0> d          -0.016   1.324   0.009  0.00  0.00    -0.206 NA
ATOM     11  H5  <0> d           3.250   2.005  -0.018  0.00  0.00     0.090 H 
ATOM     12  H6  <0> d           3.381  -0.459  -0.032  0.00  0.00     0.085 H 
ATOM     13  H7  <0> d           1.611  -2.934  -0.029  0.00  0.00     0.087 H 
ATOM     14  H8  <0> d          -0.987  -3.135  -0.005  0.00  0.00     0.111 H 
ENDROOT
BRANCH   1  15
ATOM     15  O1  <0> d           1.030   3.383   0.010  0.00  0.00    -0.339 OA
BRANCH  15  16
ATOM     16  C1  <0> d          -0.274   3.965   0.026  0.00  0.00     0.012 C 
ATOM     17  H2  <0> d          -0.824   3.649  -0.861  0.00  0.00     0.067 H 
ATOM     18  H3  <0> d          -0.807   3.639   0.919  0.00  0.00     0.067 H 
ATOM     19  H4  <0> d          -0.188   5.052   0.031  0.00  0.00     0.067 H 
ENDBRANCH  15  16
ENDBRANCH   1  15
TORSDOF 2
