REMARK  5 active torsions:
REMARK  status: ('A' for Active; 'I' for Inactive)
REMARK    1  A    between atoms: C1_1  and  C2_2 
REMARK    2  A    between atoms: C2_2  and  C3_3 
REMARK    3  A    between atoms: C2_2  and  O1_4 
REMARK    4  A    between atoms: O1_4  and  C4_5 
REMARK    5  A    between atoms: C5_6  and  N2_11 
ROOT
ATOM      1  C4  <0> d           1.184   2.058   0.002  0.00  0.00     0.191 A 
ATOM      2  C5  <0> d           1.231   3.452   0.009  0.00  0.00     0.079 A 
ATOM      3  C6  <0> d           2.469   4.084   0.001  0.00  0.00    -0.052 A 
ATOM      4  C7  <0> d           3.612   3.297  -0.014  0.00  0.00    -0.064 A 
ATOM      5  C8  <0> d           3.487   1.922  -0.020  0.00  0.00     0.005 A 
ATOM      6  N1  <0> d           2.298   1.348  -0.007  0.00  0.00    -0.235 NA
ATOM      7  H8  <0> d           2.539   5.162   0.006  0.00  0.00     0.087 H 
ATOM      8  H9  <0> d           4.590   3.755  -0.020  0.00  0.00     0.085 H 
ATOM      9  H10 <0> d           4.375   1.308  -0.032  0.00  0.00     0.114 H 
ENDROOT
BRANCH   1  10
ATOM     10  O1  <0> d          -0.017   1.425   0.010  0.00  0.00    -0.328 OA
BRANCH  10  11
ATOM     11  C2  <0> d           0.002  -0.004   0.002  0.00  0.00     0.040 C 
ATOM     12  H4  <0> d           0.928  -0.294   0.521  0.00  0.00     0.083 H 
BRANCH  11  13
ATOM     13  C1  <0> d          -1.233  -0.535   0.732  0.00  0.00    -0.052 C 
ATOM     14  H1  <0> d          -1.228  -0.174   1.771  0.00  0.00     0.030 H 
ATOM     15  H2  <0> d          -1.218  -1.635   0.726  0.00  0.00     0.030 H 
ATOM     16  H3  <0> d          -2.141  -0.178   0.224  0.00  0.00     0.030 H 
ENDBRANCH  11  13
BRANCH  11  17
ATOM     17  C3  <0> d          -0.005  -0.506  -1.443  0.00  0.00    -0.052 C 
ATOM     18  H5  <0> d           0.883  -0.125  -1.968  0.00  0.00     0.030 H 
ATOM     19  H6  <0> d          -0.913  -0.149  -1.951  0.00  0.00     0.030 H 
ATOM     20  H7  <0> d           0.010  -1.606  -1.449  0.00  0.00     0.030 H 
ENDBRANCH  11  17
ENDBRANCH  10  11
ENDBRANCH   1  10
BRANCH   2  21
ATOM     21  N2  <0> d           0.051   4.204   0.023  0.00  0.00    -0.396 N 
ATOM     22  H11 <0> d           0.098   5.303   0.029  0.00  0.00     0.156 HD
ATOM     23  H12 <0> d          -0.925   3.695   0.029  0.00  0.00     0.156 HD
ENDBRANCH   2  21
TORSDOF 5
