REMARK  2 active torsions:
REMARK  status: ('A' for Active; 'I' for Inactive)
REMARK    1  A    between atoms: C2_2  and  N2_9 
REMARK    2  A    between atoms: C3_3  and  C4_6 
ROOT
ATOM      1  C1  <0> d          -0.021   1.671   0.011  0.00  0.00     0.001 A 
ATOM      2  C2  <0> d           1.298   2.004   0.000  0.00  0.00     0.070 A 
ATOM      3  C3  <0> d           2.161   0.903  -0.014  0.00  0.00     0.168 A 
ATOM      4  N1  <0> d           1.591  -0.288  -0.015  0.00  0.00    -0.203 NA
ATOM      5  S1  <0> d           0.002  -0.004   0.002  0.00  0.00     0.002 SA
ATOM      6  H1  <0> d          -0.877   2.329   0.027  0.00  0.00     0.100 H 
ENDROOT
BRANCH   2   7
ATOM      7  N2  <0> d           1.751   3.330   0.003  0.00  0.00    -0.397 N 
ATOM      8  H2  <0> d           1.113   4.061   0.013  0.00  0.00     0.156 HD
ATOM      9  H3  <0> d           2.703   3.517  -0.006  0.00  0.00     0.156 HD
ENDBRANCH   2   7
BRANCH   3  10
ATOM     10  C4  <0> d           3.622   1.064  -0.027  0.00  0.00     0.232 C 
ATOM     11  O1  <0> d           4.114   2.184  -0.026  0.00  0.00    -0.643 OA
ATOM     12  O2  <0> d           4.346   0.077  -0.040  0.00  0.00    -0.643 OA
ENDBRANCH   3  10
TORSDOF 2
