REMARK  2 active torsions:
REMARK  status: ('A' for Active; 'I' for Inactive)
REMARK    1  A    between atoms: C3_3  and  C6_9 
REMARK    2  A    between atoms: C6_9  and  O2_10 
ROOT
ATOM      1  C1  <0> d           1.234  -0.673  -0.013  0.00  0.00    -0.067 A 
ATOM      2  C2  <0> d           0.002  -0.004   0.002  0.00  0.00    -0.068 A 
ATOM      3  C3  <0> d          -0.016   1.360   0.009  0.00  0.00     0.033 A 
ATOM      4  C4  <0> d           1.200   2.064   0.002  0.00  0.00     0.253 A 
ATOM      5  O1  <0> d           1.198   3.285   0.008  0.00  0.00    -0.268 OA
ATOM      6  N1  <0> d           2.367   1.393  -0.013  0.00  0.00    -0.333 N 
ATOM      7  H1  <0> d           3.203   1.885  -0.017  0.00  0.00     0.168 HD
ATOM      8  C5  <0> d           2.387   0.036  -0.021  0.00  0.00    -0.020 A 
ATOM      9  H2  <0> d           1.263  -1.752  -0.019  0.00  0.00     0.085 H 
ATOM     10  H3  <0> d          -0.922  -0.563   0.008  0.00  0.00     0.084 H 
ATOM     11  H4  <0> d           3.334  -0.484  -0.032  0.00  0.00     0.111 H 
ENDROOT
BRANCH   3  12
ATOM     12  C6  <0> d          -1.327   2.103   0.020  0.00  0.00     0.046 C 
ATOM     13  H5  <0> d          -1.385   2.725   0.913  0.00  0.00     0.081 H 
ATOM     14  H6  <0> d          -1.394   2.735  -0.867  0.00  0.00     0.081 H 
BRANCH  12  15
ATOM     15  O2  <0> d          -2.406   1.167   0.020  0.00  0.00    -0.396 OA
ATOM     16  H7  <0> d          -3.282   1.576   0.026  0.00  0.00     0.209 HD
ENDBRANCH  12  15
ENDBRANCH   3  12
TORSDOF 2
