REMARK  2 active torsions:
REMARK  status: ('A' for Active; 'I' for Inactive)
REMARK    1  A    between atoms: C1_1  and  O1_2 
REMARK    2  A    between atoms: O1_2  and  C2_3 
ROOT
ATOM      1  C2  <0> d           0.652  -0.570  -1.138  0.00  0.00     0.134 C 
ATOM      2  H1  <0> d           0.274  -0.115  -2.053  0.00  0.00     0.129 H 
ATOM      3  C3  <0> d           0.437  -2.105  -1.172  0.00  0.00    -0.014 C 
ATOM      4  C4  <0> d           1.672  -2.558  -2.000  0.00  0.00    -0.008 C 
ATOM      5  C5  <0> d           2.744  -1.540  -1.566  0.00  0.00     0.167 C 
ATOM      6  O2  <0> d           2.075  -0.390  -1.042  0.00  0.00    -0.325 OA
ATOM      7  C6  <0> d           3.602  -1.145  -2.783  0.00  0.00    -0.011 C 
ATOM      8  C7  <0> d           5.024  -1.052  -2.163  0.00  0.00    -0.040 C 
ATOM      9  C8  <0> d           4.952  -2.169  -1.091  0.00  0.00     0.023 C 
ATOM     10  O3  <0> d           3.606  -2.119  -0.587  0.00  0.00    -0.355 OA
ATOM     11  H5  <0> d           0.461  -2.527  -0.168  0.00  0.00     0.040 H 
ATOM     12  H6  <0> d          -0.492  -2.360  -1.682  0.00  0.00     0.040 H 
ATOM     13  H7  <0> d           1.969  -3.572  -1.731  0.00  0.00     0.041 H 
ATOM     14  H8  <0> d           1.473  -2.481  -3.068  0.00  0.00     0.041 H 
ATOM     15  H9  <0> d           3.563  -1.915  -3.552  0.00  0.00     0.041 H 
ATOM     16  H10 <0> d           3.289  -0.180  -3.182  0.00  0.00     0.041 H 
ATOM     17  H11 <0> d           5.791  -1.270  -2.906  0.00  0.00     0.036 H 
ATOM     18  H12 <0> d           5.190  -0.078  -1.704  0.00  0.00     0.036 H 
ATOM     19  H13 <0> d           5.151  -3.141  -1.543  0.00  0.00     0.074 H 
ATOM     20  H14 <0> d           5.664  -1.971  -0.290  0.00  0.00     0.074 H 
ENDROOT
BRANCH   1  21
ATOM     21  O1  <0> d           0.002  -0.004   0.002  0.00  0.00    -0.366 OA
BRANCH  21  22
ATOM     22  C1  <0> d          -0.017   1.425   0.010  0.00  0.00     0.007 C 
ATOM     23  H2  <0> d           1.005   1.802   0.002  0.00  0.00     0.066 H 
ATOM     24  H3  <0> d          -0.544   1.786  -0.873  0.00  0.00     0.066 H 
ATOM     25  H4  <0> d          -0.527   1.776   0.907  0.00  0.00     0.066 H 
ENDBRANCH  21  22
ENDBRANCH   1  21
TORSDOF 2
