REMARK  2 active torsions:
REMARK  status: ('A' for Active; 'I' for Inactive)
REMARK    1  A    between atoms: C5_6  and  C7_9 
REMARK    2  A    between atoms: C7_9  and  C8_10 
ROOT
ATOM      1  C8  <0> d          -1.205   2.974   3.844  0.00  0.00     0.015 C 
ATOM      2  C9  <0> d          -2.083   3.209   5.001  0.00  0.00     0.059 C 
ATOM      3  N1  <0> d          -2.762   3.390   5.894  0.00  0.00    -0.197 NA
ATOM      4  H12 <0> d          -0.893   1.929   3.830  0.00  0.00     0.054 H 
ATOM      5  H13 <0> d          -0.326   3.614   3.919  0.00  0.00     0.054 H 
ENDROOT
BRANCH   1   6
ATOM      6  C7  <0> d          -1.962   3.297   2.554  0.00  0.00    -0.044 C 
ATOM      7  H10 <0> d          -2.274   4.341   2.567  0.00  0.00     0.035 H 
ATOM      8  H11 <0> d          -2.841   2.657   2.479  0.00  0.00     0.035 H 
BRANCH   6   9
ATOM      9  C5  <0> d          -1.049   3.053   1.351  0.00  0.00     0.005 C 
ATOM     10  C4  <0> d          -0.728   1.577   1.247  0.00  0.00     0.131 C 
ATOM     11  C3  <0> d          -0.013   1.086   0.008  0.00  0.00    -0.009 C 
ATOM     12  O1  <0> d          -1.040   0.812   2.127  0.00  0.00    -0.298 OA
ATOM     13  C2  <0> d          -0.761   1.597  -1.227  0.00  0.00    -0.059 C 
ATOM     14  H6  <0> d           0.004   0.086  -0.002  0.00  0.00     0.044 H 
ATOM     15  H7  <0> d           1.009   1.466   0.000  0.00  0.00     0.044 H 
ATOM     16  C1  <0> d          -0.902   3.118  -1.143  0.00  0.00    -0.064 C 
ATOM     17  H4  <0> d          -0.203   1.333  -2.126  0.00  0.00     0.033 H 
ATOM     18  H5  <0> d          -1.751   1.142  -1.267  0.00  0.00     0.033 H 
ATOM     19  C6  <0> d          -1.760   3.493   0.067  0.00  0.00    -0.055 C 
ATOM     20  H2  <0> d           0.085   3.568  -1.040  0.00  0.00     0.033 H 
ATOM     21  H3  <0> d          -1.376   3.489  -2.052  0.00  0.00     0.033 H 
ATOM     22  H8  <0> d          -1.909   4.572   0.086  0.00  0.00     0.034 H 
ATOM     23  H9  <0> d          -2.726   2.993  -0.003  0.00  0.00     0.034 H 
ATOM     24  H1  <0> d          -0.201   3.571   1.466  0.00  0.00     0.051 H 
ENDBRANCH   6   9
ENDBRANCH   1   6
TORSDOF 2
