REMARK  4 active torsions:
REMARK  status: ('A' for Active; 'I' for Inactive)
REMARK    1  A    between atoms: C1_1  and  C2_2 
REMARK    2  A    between atoms: C2_2  and  O1_3 
REMARK    3  A    between atoms: O1_3  and  C3_4 
REMARK    4  A    between atoms: C3_4  and  C4_6 
ROOT
ATOM      1  C4  <0> d          -1.495   3.883   2.581  0.00  0.00     0.030 C 
ATOM      2  C5  <0> d          -3.027   3.928   2.451  0.00  0.00    -0.053 C 
ATOM      3  C6  <0> d          -2.967   5.295   3.153  0.00  0.00    -0.063 C 
ATOM      4  C7  <0> d          -1.531   5.420   2.616  0.00  0.00    -0.053 C 
ATOM      5  H6  <0> d          -1.148   3.433   3.511  0.00  0.00     0.055 H 
ATOM      6  H7  <0> d          -3.376   3.981   1.420  0.00  0.00     0.034 H 
ATOM      7  H8  <0> d          -3.538   3.161   3.033  0.00  0.00     0.034 H 
ATOM      8  H9  <0> d          -3.023   5.232   4.239  0.00  0.00     0.033 H 
ATOM      9  H10 <0> d          -3.655   6.031   2.735  0.00  0.00     0.033 H 
ATOM     10  H11 <0> d          -0.834   5.856   3.332  0.00  0.00     0.034 H 
ATOM     11  H12 <0> d          -1.472   5.880   1.630  0.00  0.00     0.034 H 
ENDROOT
BRANCH   1  12
ATOM     12  C3  <0> d          -0.803   3.323   1.365  0.00  0.00     0.263 C 
ATOM     13  O2  <0> d          -0.342   4.069   0.535  0.00  0.00    -0.265 OA
BRANCH  12  14
ATOM     14  O1  <0> d          -0.698   1.994   1.205  0.00  0.00    -0.322 OA
BRANCH  14  15
ATOM     15  C2  <0> d          -0.019   1.526   0.010  0.00  0.00     0.025 C 
ATOM     16  H4  <0> d           1.004   1.903   0.003  0.00  0.00     0.074 H 
ATOM     17  H5  <0> d          -0.546   1.887  -0.873  0.00  0.00     0.074 H 
BRANCH  15  18
ATOM     18  C1  <0> d           0.002  -0.004   0.002  0.00  0.00    -0.056 C 
ATOM     19  H1  <0> d           0.512  -0.356  -0.895  0.00  0.00     0.030 H 
ATOM     20  H2  <0> d           0.529  -0.365   0.885  0.00  0.00     0.030 H 
ATOM     21  H3  <0> d          -1.020  -0.381   0.010  0.00  0.00     0.030 H 
ENDBRANCH  15  18
ENDBRANCH  14  15
ENDBRANCH  12  14
ENDBRANCH   1  12
TORSDOF 4
