REMARK  0 active torsions:
REMARK  status: ('A' for Active; 'I' for Inactive)
ROOT
ATOM      1  C1  <0> d          -2.391   1.325   0.033  0.00  0.00    -0.065 A 
ATOM      2  C2  <0> d          -1.215   2.065   0.030  0.00  0.00    -0.071 A 
ATOM      3  C3  <0> d          -0.017   1.387   0.010  0.00  0.00    -0.003 A 
ATOM      4  C4  <0> d           0.002  -0.004   0.002  0.00  0.00     0.136 A 
ATOM      5  N1  <0> d          -1.148  -0.671   0.010  0.00  0.00    -0.243 NA
ATOM      6  C5  <0> d          -2.312  -0.054   0.025  0.00  0.00     0.004 A 
ATOM      7  N2  <0> d           1.315  -0.464  -0.013  0.00  0.00    -0.311 N 
ATOM      8  C6  <0> d           2.209   0.538  -0.016  0.00  0.00     0.227 A 
ATOM      9  O1  <0> d           3.417   0.427  -0.028  0.00  0.00    -0.273 OA
ATOM     10  C7  <0> d           1.425   1.834  -0.002  0.00  0.00     0.037 A 
ATOM     11  H1  <0> d          -3.352   1.819   0.046  0.00  0.00     0.085 H 
ATOM     12  H2  <0> d          -1.240   3.145   0.036  0.00  0.00     0.084 H 
ATOM     13  H3  <0> d          -3.221  -0.637   0.030  0.00  0.00     0.114 H 
ATOM     14  H4  <0> d           1.557  -1.403  -0.020  0.00  0.00     0.170 HD
ATOM     15  H5  <0> d           1.637   2.419  -0.897  0.00  0.00     0.054 H 
ATOM     16  H6  <0> d           1.654   2.409   0.895  0.00  0.00     0.054 H 
ENDROOT
TORSDOF 0
