REMARK  4 active torsions:
REMARK  status: ('A' for Active; 'I' for Inactive)
REMARK    1  A    between atoms: C1_1  and  N1_2 
REMARK    2  A    between atoms: N1_2  and  C2_3 
REMARK    3  A    between atoms: N1_2  and  C3_4 
REMARK    4  A    between atoms: C3_4  and  C5_8 
ROOT
ATOM      1  C3  <0> d          -0.013   1.086   0.008  0.00  0.00     0.261 C 
ATOM      2  H1  <0> d           0.014  -0.014   0.025  0.00  0.00     0.123 H 
ATOM      3  C4  <0> d           1.368   1.595  -0.002  0.00  0.00     0.102 C 
ATOM      4  N2  <0> d           2.434   1.988  -0.011  0.00  0.00    -0.195 NA
ENDROOT
BRANCH   1   5
ATOM      5  N1  <0> d          -0.700   1.560   1.217  0.00  0.00     0.104 N 
BRANCH   5   6
ATOM      6  C1  <0> d          -2.111   1.148   1.216  0.00  0.00     0.097 C 
ATOM      7  H2  <0> d          -2.598   1.511   0.298  0.00  0.00     0.071 H 
ATOM      8  H3  <0> d          -2.618   1.575   2.094  0.00  0.00     0.071 H 
ATOM      9  H4  <0> d          -2.172   0.051   1.254  0.00  0.00     0.071 H 
ENDBRANCH   5   6
BRANCH   5  10
ATOM     10  C2  <0> d          -0.016   1.091   2.429  0.00  0.00     0.097 C 
ATOM     11  H5  <0> d           1.036   1.412   2.404  0.00  0.00     0.071 H 
ATOM     12  H6  <0> d          -0.063  -0.007   2.476  0.00  0.00     0.071 H 
ATOM     13  H7  <0> d          -0.509   1.517   3.316  0.00  0.00     0.071 H 
ENDBRANCH   5  10
ENDBRANCH   1   5
BRANCH   1  14
ATOM     14  C5  <0> d          -0.742   1.585  -1.213  0.00  0.00     0.099 A 
ATOM     15  O1  <0> d          -1.282   2.806  -1.361  0.00  0.00    -0.324 OA
ATOM     16  C8  <0> d          -1.849   2.900  -2.574  0.00  0.00     0.019 A 
ATOM     17  C7  <0> d          -1.675   1.732  -3.217  0.00  0.00    -0.059 A 
ATOM     18  H10 <0> d          -2.358   3.768  -2.968  0.00  0.00     0.123 H 
ATOM     19  C6  <0> d          -0.957   0.885  -2.341  0.00  0.00    -0.049 A 
ATOM     20  H9  <0> d          -2.015   1.488  -4.213  0.00  0.00     0.086 H 
ATOM     21  H8  <0> d          -0.643  -0.129  -2.540  0.00  0.00     0.087 H 
ENDBRANCH   1  14
TORSDOF 4
