REMARK  4 active torsions:
REMARK  status: ('A' for Active; 'I' for Inactive)
REMARK    1  A    between atoms: C1_1  and  N1_2 
REMARK    2  A    between atoms: N1_2  and  C2_3 
REMARK    3  A    between atoms: N1_2  and  C5_6 
REMARK    4  A    between atoms: C2_3  and  C3_4 
ROOT
ATOM      1  C3  <0> d          -0.725   1.573  -1.185  0.00  0.00    -0.098 C 
ATOM      2  C4  <0> d          -1.292   1.962  -2.136  0.00  0.00    -0.152 C 
ATOM      3  H6  <0> d          -1.825   2.327  -3.027  0.00  0.00     0.166 H 
ENDROOT
BRANCH   1   4
ATOM      4  C2  <0> d          -0.013   1.086   0.008  0.00  0.00     0.049 C 
ATOM      5  H4  <0> d           1.019   1.466   0.000  0.00  0.00     0.083 H 
ATOM      6  H5  <0> d           0.002  -0.014   0.002  0.00  0.00     0.083 H 
BRANCH   4   7
ATOM      7  N1  <0> d          -0.698   1.558   1.213  0.00  0.00    -0.375 N 
BRANCH   7   8
ATOM      8  C1  <0> d          -0.323   2.840   1.815  0.00  0.00    -0.018 C 
ATOM      9  H1  <0> d          -0.943   3.023   2.705  0.00  0.00     0.056 H 
ATOM     10  H2  <0> d          -0.481   3.648   1.085  0.00  0.00     0.056 H 
ATOM     11  H3  <0> d           0.737   2.812   2.106  0.00  0.00     0.056 H 
ENDBRANCH   7   8
BRANCH   7  12
ATOM     12  C5  <0> d          -1.710   0.786   1.789  0.00  0.00     0.030 A 
ATOM     13  C10 <0> d          -2.361   1.233   2.932  0.00  0.00    -0.057 A 
ATOM     14  C9  <0> d          -3.362   0.468   3.498  0.00  0.00    -0.081 A 
ATOM     15  H11 <0> d          -2.086   2.178   3.377  0.00  0.00     0.086 H 
ATOM     16  C8  <0> d          -3.715  -0.742   2.929  0.00  0.00    -0.083 A 
ATOM     17  H10 <0> d          -3.868   0.814   4.387  0.00  0.00     0.083 H 
ATOM     18  C7  <0> d          -3.069  -1.190   1.791  0.00  0.00    -0.081 A 
ATOM     19  H9  <0> d          -4.498  -1.339   3.374  0.00  0.00     0.083 H 
ATOM     20  C6  <0> d          -2.071  -0.427   1.217  0.00  0.00    -0.057 A 
ATOM     21  H8  <0> d          -3.348  -2.135   1.349  0.00  0.00     0.083 H 
ATOM     22  H7  <0> d          -1.570  -0.775   0.326  0.00  0.00     0.086 H 
ENDBRANCH   7  12
ENDBRANCH   4   7
ENDBRANCH   1   4
TORSDOF 4
