REMARK  6 active torsions:
REMARK  status: ('A' for Active; 'I' for Inactive)
REMARK    1  A    between atoms: C1_1  and  C2_2 
REMARK    2  A    between atoms: C2_2  and  C3_3 
REMARK    3  A    between atoms: C2_2  and  C4_4 
REMARK    4  A    between atoms: C2_2  and  N1_5 
REMARK       I    between atoms: N1_5  and  C5_6 
REMARK    5  A    between atoms: C5_6  and  O2_8 
REMARK    6  A    between atoms: O2_8  and  C6_9 
ROOT
ATOM      1  C2  <0> d          -1.290   1.681   0.017  0.00  0.00     0.024 C 
ENDROOT
BRANCH   1   2
ATOM      2  C1  <0> d          -1.389   2.566  -1.227  0.00  0.00    -0.053 C 
ATOM      3  H1  <0> d          -1.327   1.945  -2.120  0.00  0.00     0.030 H 
ATOM      4  H2  <0> d          -2.340   3.098  -1.219  0.00  0.00     0.030 H 
ATOM      5  H3  <0> d          -0.570   3.286  -1.227  0.00  0.00     0.030 H 
ENDBRANCH   1   2
BRANCH   1   6
ATOM      6  C3  <0> d          -2.439   0.671   0.017  0.00  0.00    -0.053 C 
ATOM      7  H4  <0> d          -2.369   0.040   0.903  0.00  0.00     0.030 H 
ATOM      8  H5  <0> d          -3.390   1.203   0.025  0.00  0.00     0.030 H 
ATOM      9  H6  <0> d          -2.377   0.050  -0.876  0.00  0.00     0.030 H 
ENDBRANCH   1   6
BRANCH   1  10
ATOM     10  C4  <0> d          -1.377   2.553   1.272  0.00  0.00    -0.053 C 
ATOM     11  H7  <0> d          -0.558   3.272   1.272  0.00  0.00     0.030 H 
ATOM     12  H8  <0> d          -2.328   3.085   1.279  0.00  0.00     0.030 H 
ATOM     13  H9  <0> d          -1.306   1.922   2.158  0.00  0.00     0.030 H 
ENDBRANCH   1  10
BRANCH   1  14
ATOM     14  N1  <0> d          -0.011   0.966   0.007  0.00  0.00    -0.329 N 
ATOM     15  C5  <0> d           1.147   1.655  -0.000  0.00  0.00     0.360 C 
ATOM     16  O1  <0> d           1.130   2.870   0.007  0.00  0.00    -0.239 OA
ATOM     17  H10 <0> d           0.002  -0.004   0.002  0.00  0.00     0.165 HD
BRANCH  15  18
ATOM     18  O2  <0> d           2.322   0.998  -0.015  0.00  0.00    -0.309 OA
BRANCH  18  19
ATOM     19  C6  <0> d           3.529   1.806  -0.022  0.00  0.00     0.015 C 
ATOM     20  H11 <0> d           3.537   2.439  -0.909  0.00  0.00     0.067 H 
ATOM     21  H12 <0> d           3.554   2.430   0.871  0.00  0.00     0.067 H 
ATOM     22  H13 <0> d           4.402   1.153  -0.034  0.00  0.00     0.067 H 
ENDBRANCH  18  19
ENDBRANCH  15  18
ENDBRANCH   1  14
TORSDOF 6
