REMARK  4 active torsions:
REMARK  status: ('A' for Active; 'I' for Inactive)
REMARK    1  A    between atoms: C1_1  and  C2_2 
REMARK    2  A    between atoms: C1_1  and  O4_14 
REMARK    3  A    between atoms: C4_6  and  O3_12 
REMARK    4  A    between atoms: C5_8  and  O2_11 
ROOT
ATOM      1  C2  <0> d           0.002  -0.004   0.002  0.00  0.00     0.094 C 
ATOM      2  H1  <0> d           0.612  -0.379   0.824  0.00  0.00     0.091 H 
ATOM      3  C3  <0> d          -1.435  -0.562   0.100  0.00  0.00     0.135 C 
ATOM      4  H2  <0> d          -2.155   0.171  -0.265  0.00  0.00     0.100 H 
ATOM      5  C4  <0> d          -1.418  -1.807  -0.815  0.00  0.00     0.114 C 
ATOM      6  H3  <0> d          -1.640  -2.706  -0.241  0.00  0.00     0.095 H 
ATOM      7  C5  <0> d           0.028  -1.854  -1.358  0.00  0.00     0.156 C 
ATOM      8  H4  <0> d           0.642  -2.514  -0.745  0.00  0.00     0.133 H 
ATOM      9  O1  <0> d           0.505  -0.493  -1.260  0.00  0.00    -0.348 OA
ATOM     10  F1  <0> d          -1.732  -0.923   1.418  0.00  0.00    -0.244 F 
ENDROOT
BRANCH   1  11
ATOM     11  C1  <0> d          -0.019   1.526   0.010  0.00  0.00     0.043 C 
ATOM     12  H5  <0> d          -0.546   1.887  -0.873  0.00  0.00     0.078 H 
ATOM     13  H6  <0> d          -0.529   1.877   0.907  0.00  0.00     0.078 H 
BRANCH  11  14
ATOM     14  O4  <0> d           1.322   2.020   0.000  0.00  0.00    -0.398 OA
ATOM     15  H9  <0> d           1.385   2.985   0.005  0.00  0.00     0.209 HD
ENDBRANCH  11  14
ENDBRANCH   1  11
BRANCH   7  16
ATOM     16  O2  <0> d           0.035  -2.290  -2.718  0.00  0.00    -0.369 OA
ATOM     17  H7  <0> d           0.917  -2.339  -3.111  0.00  0.00     0.212 HD
ENDBRANCH   7  16
BRANCH   5  18
ATOM     18  O3  <0> d          -2.352  -1.655  -1.885  0.00  0.00    -0.388 OA
ATOM     19  H8  <0> d          -2.383  -2.408  -2.491  0.00  0.00     0.210 HD
ENDBRANCH   5  18
TORSDOF 4
