REMARK  1 active torsions:
REMARK  status: ('A' for Active; 'I' for Inactive)
REMARK    1  A    between atoms: C6_6  and  O1_7 
ROOT
ATOM      1  C1  <0> d          -3.192   3.648   0.052  0.00  0.00    -0.050 A 
ATOM      2  C2  <0> d          -1.864   4.035   0.042  0.00  0.00    -0.072 A 
ATOM      3  C3  <0> d          -0.870   3.083   0.027  0.00  0.00    -0.022 A 
ATOM      4  C4  <0> d          -1.180   1.728   0.017  0.00  0.00     0.044 A 
ATOM      5  C5  <0> d          -2.518   1.341   0.033  0.00  0.00    -0.025 A 
ATOM      6  C6  <0> d          -3.517   2.299   0.048  0.00  0.00     0.067 A 
ATOM      7  N1  <0> d          -0.011   0.966   0.007  0.00  0.00    -0.326 N 
ATOM      8  C7  <0> d           1.094   1.730   0.001  0.00  0.00     0.226 A 
ATOM      9  O2  <0> d           2.241   1.337  -0.012  0.00  0.00    -0.273 OA
ATOM     10  C8  <0> d           0.639   3.173   0.013  0.00  0.00     0.035 A 
ATOM     11  H1  <0> d          -3.974   4.394   0.064  0.00  0.00     0.087 H 
ATOM     12  H2  <0> d          -1.607   5.084   0.045  0.00  0.00     0.084 H 
ATOM     13  H3  <0> d          -2.776   0.292   0.030  0.00  0.00     0.091 H 
ATOM     14  H5  <0> d           0.002  -0.004   0.002  0.00  0.00     0.169 HD
ATOM     15  H6  <0> d           0.999   3.680   0.908  0.00  0.00     0.054 H 
ATOM     16  H7  <0> d           0.982   3.690  -0.883  0.00  0.00     0.054 H 
ENDROOT
BRANCH   6  17
ATOM     17  O1  <0> d          -4.821   1.917   0.059  0.00  0.00    -0.361 OA
ATOM     18  H4  <0> d          -5.207   1.811  -0.821  0.00  0.00     0.217 HD
ENDBRANCH   6  17
TORSDOF 1
