REMARK  2 active torsions:
REMARK  status: ('A' for Active; 'I' for Inactive)
REMARK    1  A    between atoms: C4_5  and  C6_7 
REMARK    2  A    between atoms: C6_7  and  C7_8 
ROOT
ATOM      1  C7  <0> d          -1.083   5.766  -1.139  0.00  0.00     0.020 C 
ATOM      2  C8  <0> d          -1.166   7.236  -1.130  0.00  0.00     0.059 C 
ATOM      3  N2  <0> d          -1.230   8.370  -1.124  0.00  0.00    -0.197 NA
ATOM      4  H7  <0> d          -0.638   5.433  -2.076  0.00  0.00     0.055 H 
ATOM      5  H8  <0> d          -2.084   5.345  -1.042  0.00  0.00     0.055 H 
ENDROOT
BRANCH   1   6
ATOM      6  C6  <0> d          -0.217   5.298   0.032  0.00  0.00    -0.013 C 
ATOM      7  H5  <0> d          -0.662   5.631   0.970  0.00  0.00     0.043 H 
ATOM      8  H6  <0> d           0.784   5.719  -0.065  0.00  0.00     0.043 H 
BRANCH   6   9
ATOM      9  C4  <0> d          -0.132   3.793   0.024  0.00  0.00     0.035 A 
ATOM     10  N1  <0> d          -1.239   3.078   0.030  0.00  0.00    -0.266 NA
ATOM     11  C3  <0> d          -1.214   1.759   0.017  0.00  0.00     0.002 A 
ATOM     12  C2  <0> d          -0.013   1.076   0.008  0.00  0.00    -0.066 A 
ATOM     13  H3  <0> d          -2.142   1.207   0.018  0.00  0.00     0.114 H 
ATOM     14  C1  <0> d           1.174   1.794   0.001  0.00  0.00    -0.080 A 
ATOM     15  H2  <0> d           0.002  -0.004   0.002  0.00  0.00     0.085 H 
ATOM     16  C5  <0> d           1.107   3.179   0.009  0.00  0.00    -0.059 A 
ATOM     17  H1  <0> d           2.127   1.287  -0.011  0.00  0.00     0.083 H 
ATOM     18  H4  <0> d           2.010   3.770   0.004  0.00  0.00     0.086 H 
ENDBRANCH   6   9
ENDBRANCH   1   6
TORSDOF 2
