REMARK  3 active torsions:
REMARK  status: ('A' for Active; 'I' for Inactive)
REMARK    1  A    between atoms: C1_1  and  C2_2 
REMARK    2  A    between atoms: C2_2  and  C3_3 
REMARK    3  A    between atoms: C7_7  and  C9_9 
REMARK       I    between atoms: C9_9  and  N1_11 
ROOT
ATOM      1  C3  <0> d          -0.718   1.572   1.248  0.00  0.00    -0.058 A 
ATOM      2  C4  <0> d          -0.358   2.780   1.818  0.00  0.00    -0.077 A 
ATOM      3  C5  <0> d          -1.004   3.236   2.953  0.00  0.00    -0.082 A 
ATOM      4  C6  <0> d          -2.005   2.482   3.531  0.00  0.00    -0.068 A 
ATOM      5  C7  <0> d          -2.369   1.260   2.964  0.00  0.00     0.032 A 
ATOM      6  C8  <0> d          -1.717   0.808   1.815  0.00  0.00    -0.062 A 
ATOM      7  H6  <0> d           0.428   3.372   1.372  0.00  0.00     0.084 H 
ATOM      8  H7  <0> d          -0.721   4.182   3.391  0.00  0.00     0.083 H 
ATOM      9  H8  <0> d          -2.506   2.837   4.419  0.00  0.00     0.085 H 
ATOM     10  H9  <0> d          -1.994  -0.136   1.371  0.00  0.00     0.085 H 
ENDROOT
BRANCH   1  11
ATOM     11  C2  <0> d          -0.013   1.086   0.008  0.00  0.00    -0.044 C 
ATOM     12  H4  <0> d           0.002  -0.004   0.002  0.00  0.00     0.039 H 
ATOM     13  H5  <0> d           1.010   1.463   0.000  0.00  0.00     0.039 H 
BRANCH  11  14
ATOM     14  C1  <0> d          -0.753   1.593  -1.232  0.00  0.00    -0.073 C 
ATOM     15  H1  <0> d          -0.767   2.683  -1.226  0.00  0.00     0.028 H 
ATOM     16  H2  <0> d          -0.242   1.241  -2.128  0.00  0.00     0.028 H 
ATOM     17  H3  <0> d          -1.775   1.215  -1.224  0.00  0.00     0.028 H 
ENDBRANCH  11  14
ENDBRANCH   1  11
BRANCH   5  18
ATOM     18  C9  <0> d          -3.440   0.447   3.578  0.00  0.00     0.249 C 
ATOM     19  O1  <0> d          -3.755  -0.618   3.082  0.00  0.00    -0.268 OA
ATOM     20  N1  <0> d          -4.068   0.885   4.687  0.00  0.00    -0.366 N 
ATOM     21  H10 <0> d          -3.817   1.735   5.082  0.00  0.00     0.159 HD
ATOM     22  H11 <0> d          -4.771   0.352   5.090  0.00  0.00     0.159 HD
ENDBRANCH   5  18
TORSDOF 3
