REMARK  1 active torsions:
REMARK  status: ('A' for Active; 'I' for Inactive)
REMARK    1  A    between atoms: C3_3  and  O1_8 
ROOT
ATOM      1  C1  <0> d           2.392   0.013  -0.020  0.00  0.00    -0.076 A 
ATOM      2  C2  <0> d           2.339   1.396  -0.013  0.00  0.00    -0.032 A 
ATOM      3  C3  <0> d           1.101   2.025   0.002  0.00  0.00     0.163 A 
ATOM      4  N1  <0> d          -0.016   1.316   0.009  0.00  0.00    -0.213 NA
ATOM      5  C4  <0> d           0.002  -0.004   0.002  0.00  0.00     0.128 A 
ATOM      6  C5  <0> d           1.199  -0.696  -0.013  0.00  0.00    -0.044 A 
ATOM      7 Cl1  <0> d          -1.496  -0.882   0.012  0.00  0.00    -0.062 Cl
ATOM      8  H1  <0> d           3.341  -0.504  -0.032  0.00  0.00     0.083 H 
ATOM      9  H2  <0> d           3.248   1.978  -0.018  0.00  0.00     0.090 H 
ATOM     10  H3  <0> d           1.206  -1.776  -0.018  0.00  0.00     0.088 H 
ENDROOT
BRANCH   3  11
ATOM     11  O1  <0> d           1.036   3.380   0.010  0.00  0.00    -0.345 OA
ATOM     12  H4  <0> d           1.026   3.769   0.895  0.00  0.00     0.219 HD
ENDBRANCH   3  11
TORSDOF 1
