REMARK  1 active torsions:
REMARK  status: ('A' for Active; 'I' for Inactive)
REMARK    1  A    between atoms: C10_14  and  O1_16 
ROOT
ATOM      1  C1  <0> d           3.165   2.328   1.344  0.00  0.00    -0.046 C 
ATOM      2  C2  <0> d           3.475   2.789  -0.094  0.00  0.00    -0.106 C 
ATOM      3  C3  <0> d           2.382   2.618  -0.862  0.00  0.00    -0.102 C 
ATOM      4  C4  <0> d           1.346   2.123   0.001  0.00  0.00    -0.030 C 
ATOM      5  H1  <0> d           1.154   3.033   0.568  0.00  0.00     0.047 H 
ATOM      6  C5  <0> d           2.114   1.265   1.077  0.00  0.00    -0.038 C 
ATOM      7  H2  <0> d           2.561   0.367   0.651  0.00  0.00     0.042 H 
ATOM      8  C6  <0> d           0.982   0.915   2.040  0.00  0.00    -0.025 C 
ATOM      9  H3  <0> d           1.225   0.914   3.103  0.00  0.00     0.044 H 
ATOM     10  C7  <0> d          -0.248   1.781   1.572  0.00  0.00    -0.055 C 
ATOM     11  C8  <0> d          -0.019   1.548   0.011  0.00  0.00    -0.044 C 
ATOM     12  H4  <0> d          -0.728   2.010  -0.677  0.00  0.00     0.041 H 
ATOM     13  C9  <0> d           0.002  -0.004   0.002  0.00  0.00    -0.037 C 
ATOM     14  C10 <0> d           0.502  -0.446   1.402  0.00  0.00     0.040 C 
ATOM     15  H5  <0> d          -0.310  -0.881   1.984  0.00  0.00     0.083 H 
ATOM     16  H6  <0> d           2.758   3.144   1.940  0.00  0.00     0.039 H 
ATOM     17  H7  <0> d           4.047   1.898   1.819  0.00  0.00     0.039 H 
ATOM     18  H8  <0> d           4.420   3.187  -0.433  0.00  0.00     0.076 H 
ATOM     19  H9  <0> d           2.301   2.815  -1.921  0.00  0.00     0.077 H 
ATOM     20  H10 <0> d          -0.142   2.829   1.850  0.00  0.00     0.034 H 
ATOM     21  H11 <0> d          -1.196   1.365   1.913  0.00  0.00     0.034 H 
ATOM     22  H12 <0> d          -1.002  -0.390  -0.175  0.00  0.00     0.037 H 
ATOM     23  H13 <0> d           0.683  -0.364  -0.769  0.00  0.00     0.037 H 
ENDROOT
BRANCH  14  24
ATOM     24  O1  <0> d           1.592  -1.363   1.285  0.00  0.00    -0.395 OA
ATOM     25  H14 <0> d           1.368  -2.183   0.824  0.00  0.00     0.210 HD
ENDBRANCH  14  24
TORSDOF 1
