REMARK  3 active torsions:
REMARK  status: ('A' for Active; 'I' for Inactive)
REMARK    1  A    between atoms: C1_1  and  C2_2 
REMARK    2  A    between atoms: C7_9  and  C9_11 
REMARK    3  A    between atoms: C7_9  and  C10_12 
ROOT
ATOM      1  C2  <0> d           0.114   0.141   0.156  0.00  0.00    -0.051 C 
ATOM      2  H1  <0> d          -0.931  -0.170   0.132  0.00  0.00     0.040 H 
ATOM      3  C3  <0> d           0.772  -0.265  -1.140  0.00  0.00    -0.007 C 
ATOM      4  C4  <0> d           0.084  -1.542  -1.592  0.00  0.00     0.127 C 
ATOM      5  O1  <0> d          -0.728  -1.481  -2.483  0.00  0.00    -0.298 OA
ATOM      6  C5  <0> d           0.367  -2.828  -0.995  0.00  0.00    -0.009 C 
ATOM      7  C6  <0> d           0.080  -2.790   0.531  0.00  0.00    -0.052 C 
ATOM      8  C7  <0> d           1.153  -1.965   1.197  0.00  0.00    -0.047 C 
ATOM      9  C8  <0> d           0.786  -0.483   1.378  0.00  0.00    -0.055 C 
ATOM     10  H5  <0> d           0.637   0.517  -1.887  0.00  0.00     0.044 H 
ATOM     11  H6  <0> d           1.834  -0.449  -0.977  0.00  0.00     0.044 H 
ATOM     12  H7  <0> d          -0.260  -3.588  -1.461  0.00  0.00     0.044 H 
ATOM     13  H8  <0> d           1.415  -3.079  -1.158  0.00  0.00     0.044 H 
ATOM     14  H9  <0> d          -0.895  -2.337   0.710  0.00  0.00     0.034 H 
ATOM     15  H10 <0> d           0.094  -3.803   0.932  0.00  0.00     0.034 H 
ATOM     16  H11 <0> d           1.694   0.077   1.600  0.00  0.00     0.034 H 
ATOM     17  H12 <0> d           0.111  -0.396   2.229  0.00  0.00     0.034 H 
ENDROOT
BRANCH   8  18
ATOM     18  C9  <0> d           1.446  -2.567   2.572  0.00  0.00    -0.069 C 
ATOM     19  H13 <0> d           1.788  -3.595   2.454  0.00  0.00     0.028 H 
ATOM     20  H14 <0> d           2.221  -1.981   3.068  0.00  0.00     0.028 H 
ATOM     21  H15 <0> d           0.539  -2.553   3.176  0.00  0.00     0.028 H 
ENDBRANCH   8  18
BRANCH   8  22
ATOM     22  C10 <0> d           2.426  -2.049   0.352  0.00  0.00    -0.069 C 
ATOM     23  H16 <0> d           2.186  -1.838  -0.690  0.00  0.00     0.028 H 
ATOM     24  H17 <0> d           3.150  -1.318   0.713  0.00  0.00     0.028 H 
ATOM     25  H18 <0> d           2.850  -3.050   0.432  0.00  0.00     0.028 H 
ENDBRANCH   8  22
BRANCH   1  26
ATOM     26  C1  <0> d           0.172   1.664   0.284  0.00  0.00    -0.072 C 
ATOM     27  H2  <0> d           1.213   1.987   0.309  0.00  0.00     0.028 H 
ATOM     28  H3  <0> d          -0.330   2.120  -0.570  0.00  0.00     0.028 H 
ATOM     29  H4  <0> d          -0.326   1.971   1.204  0.00  0.00     0.028 H 
ENDBRANCH   1  26
TORSDOF 3
