REMARK  3 active torsions:
REMARK  status: ('A' for Active; 'I' for Inactive)
REMARK    1  A    between atoms: C1_1  and  O1_2 
REMARK    2  A    between atoms: O1_2  and  C2_3 
REMARK    3  A    between atoms: C2_3  and  C3_5 
ROOT
ATOM      1  C3  <0> d           0.657  -2.104  -1.120  0.00  0.00     0.037 C 
ATOM      2  C4  <0> d          -0.622  -2.744  -1.685  0.00  0.00    -0.033 C 
ATOM      3  C5  <0> d           0.017  -2.606  -3.053  0.00  0.00    -0.088 C 
ATOM      4  C6  <0> d          -0.416  -2.509  -4.285  0.00  0.00    -0.119 C 
ATOM      5  C7  <0> d           1.373  -2.630  -2.376  0.00  0.00    -0.033 C 
ATOM      6  H4  <0> d           1.006  -2.562  -0.194  0.00  0.00     0.056 H 
ATOM      7  H5  <0> d          -0.769  -3.777  -1.372  0.00  0.00     0.041 H 
ATOM      8  H6  <0> d          -1.513  -2.129  -1.554  0.00  0.00     0.041 H 
ATOM      9  H7  <0> d          -1.477  -2.519  -4.488  0.00  0.00     0.067 H 
ATOM     10  H8  <0> d           0.288  -2.419  -5.099  0.00  0.00     0.067 H 
ATOM     11  H9  <0> d           2.086  -1.924  -2.801  0.00  0.00     0.041 H 
ATOM     12  H10 <0> d           1.785  -3.632  -2.257  0.00  0.00     0.041 H 
ENDROOT
BRANCH   1  13
ATOM     13  C2  <0> d           0.598  -0.600  -1.043  0.00  0.00     0.263 C 
ATOM     14  O2  <0> d           1.088   0.070  -1.921  0.00  0.00    -0.265 OA
BRANCH  13  15
ATOM     15  O1  <0> d           0.002  -0.004   0.002  0.00  0.00    -0.326 OA
BRANCH  15  16
ATOM     16  C1  <0> d          -0.017   1.425   0.010  0.00  0.00     0.013 C 
ATOM     17  H1  <0> d           1.005   1.802   0.002  0.00  0.00     0.067 H 
ATOM     18  H2  <0> d          -0.544   1.786  -0.873  0.00  0.00     0.067 H 
ATOM     19  H3  <0> d          -0.527   1.776   0.907  0.00  0.00     0.067 H 
ENDBRANCH  15  16
ENDBRANCH  13  15
ENDBRANCH   1  13
TORSDOF 3
