REMARK  0 active torsions:
REMARK  status: ('A' for Active; 'I' for Inactive)
ROOT
ATOM      1  C1  <0> d           1.183   1.779   0.000  0.00  0.00    -0.082 A 
ATOM      2  C2  <0> d          -0.013   1.076   0.008  0.00  0.00    -0.081 A 
ATOM      3  C3  <0> d          -1.218   1.742   0.017  0.00  0.00    -0.056 A 
ATOM      4  C4  <0> d          -1.243   3.133   0.030  0.00  0.00     0.043 A 
ATOM      5  C5  <0> d          -0.032   3.843   0.022  0.00  0.00     0.013 A 
ATOM      6  C6  <0> d           1.180   3.157   0.007  0.00  0.00    -0.069 A 
ATOM      7  C7  <0> d          -0.400   5.271   0.033  0.00  0.00     0.072 A 
ATOM      8  C8  <0> d          -1.762   5.319   0.046  0.00  0.00    -0.002 A 
ATOM      9  N1  <0> d          -2.266   4.058   0.044  0.00  0.00    -0.364 N 
ATOM     10  H1  <0> d          -3.211   3.840   0.051  0.00  0.00     0.165 HD
ATOM     11  C9  <0> d           0.497   6.387   0.031  0.00  0.00     0.102 C 
ATOM     12  N2  <0> d           1.208   7.272   0.029  0.00  0.00    -0.191 NA
ATOM     13  H2  <0> d           2.122   1.244  -0.011  0.00  0.00     0.083 H 
ATOM     14  H3  <0> d           0.002  -0.004   0.002  0.00  0.00     0.083 H 
ATOM     15  H4  <0> d          -2.144   1.184   0.019  0.00  0.00     0.086 H 
ATOM     16  H5  <0> d           2.112   3.702   0.002  0.00  0.00     0.085 H 
ATOM     17  H6  <0> d          -2.352   6.224   0.055  0.00  0.00     0.113 H 
ENDROOT
TORSDOF 0
