REMARK  1 active torsions:
REMARK  status: ('A' for Active; 'I' for Inactive)
REMARK    1  A    between atoms: C6_6  and  O1_10 
ROOT
ATOM      1  C1  <0> d           1.196  -1.442   1.564  0.00  0.00    -0.119 C 
ATOM      2  C2  <0> d           0.344  -0.464   1.383  0.00  0.00    -0.089 C 
ATOM      3  C3  <0> d           0.002  -0.004   0.002  0.00  0.00    -0.045 C 
ATOM      4  C4  <0> d          -0.019   1.532   0.011  0.00  0.00    -0.059 C 
ATOM      5  C5  <0> d           1.414   2.059  -0.000  0.00  0.00    -0.041 C 
ATOM      6  C6  <0> d           2.072   1.853   1.377  0.00  0.00     0.035 C 
ATOM      7  C7  <0> d           1.126   2.258   2.502  0.00  0.00    -0.041 C 
ATOM      8  C8  <0> d           0.748   1.010   3.323  0.00  0.00    -0.059 C 
ATOM      9  C9  <0> d          -0.304   0.215   2.567  0.00  0.00    -0.045 C 
ATOM     10  H1  <0> d           1.655  -1.923   0.713  0.00  0.00     0.067 H 
ATOM     11  H2  <0> d           1.438  -1.769   2.564  0.00  0.00     0.067 H 
ATOM     12  H3  <0> d          -0.979  -0.385  -0.281  0.00  0.00     0.039 H 
ATOM     13  H4  <0> d           0.753  -0.359  -0.703  0.00  0.00     0.039 H 
ATOM     14  H5  <0> d          -0.546   1.894  -0.873  0.00  0.00     0.033 H 
ATOM     15  H6  <0> d          -0.529   1.884   0.907  0.00  0.00     0.033 H 
ATOM     16  H7  <0> d           1.988   1.527  -0.758  0.00  0.00     0.036 H 
ATOM     17  H8  <0> d           1.405   3.123  -0.240  0.00  0.00     0.036 H 
ATOM     18  H9  <0> d           2.337   0.802   1.493  0.00  0.00     0.082 H 
ATOM     19  H10 <0> d           0.225   2.702   2.078  0.00  0.00     0.036 H 
ATOM     20  H11 <0> d           1.620   2.984   3.149  0.00  0.00     0.036 H 
ATOM     21  H12 <0> d           0.348   1.318   4.289  0.00  0.00     0.033 H 
ATOM     22  H13 <0> d           1.633   0.392   3.474  0.00  0.00     0.033 H 
ATOM     23  H14 <0> d          -1.088   0.888   2.217  0.00  0.00     0.039 H 
ATOM     24  H15 <0> d          -0.736  -0.537   3.226  0.00  0.00     0.039 H 
ENDROOT
BRANCH   6  25
ATOM     25  O1  <0> d           3.259   2.646   1.453  0.00  0.00    -0.396 OA
ATOM     26  H16 <0> d           3.910   2.446   0.768  0.00  0.00     0.210 HD
ENDBRANCH   6  25
TORSDOF 1
