REMARK  1 active torsions:
REMARK  status: ('A' for Active; 'I' for Inactive)
REMARK    1  A    between atoms: C1_1  and  C2_2 
ROOT
ATOM      1  C2  <0> d           0.002  -0.004   0.002  0.00  0.00    -0.060 A 
ATOM      2  C3  <0> d          -0.017   1.385   0.010  0.00  0.00    -0.076 A 
ATOM      3  C4  <0> d           1.149   2.095   0.002  0.00  0.00    -0.067 A 
ATOM      4  C5  <0> d           2.371   1.419  -0.013  0.00  0.00     0.033 A 
ATOM      5  C6  <0> d           2.390   0.013  -0.021  0.00  0.00     0.064 A 
ATOM      6  C7  <0> d           1.185  -0.687  -0.013  0.00  0.00    -0.049 A 
ATOM      7  N1  <0> d           3.707  -0.370  -0.035  0.00  0.00    -0.276 N 
ATOM      8  H1  <0> d           4.035  -1.315  -0.044  0.00  0.00     0.189 HD
ATOM      9  N2  <0> d           4.520   0.768  -0.037  0.00  0.00    -0.162 NA
ATOM     10  C8  <0> d           3.775   1.850  -0.024  0.00  0.00     0.169 A 
ATOM     11  C9  <0> d           4.245   3.203  -0.021  0.00  0.00     0.122 C 
ATOM     12  N3  <0> d           4.619   4.276  -0.018  0.00  0.00    -0.190 NA
ATOM     13  H5  <0> d          -0.962   1.907   0.017  0.00  0.00     0.084 H 
ATOM     14  H6  <0> d           1.127   3.175   0.008  0.00  0.00     0.085 H 
ATOM     15  H7  <0> d           1.187  -1.767  -0.018  0.00  0.00     0.087 H 
ENDROOT
BRANCH   1  16
ATOM     16  C1  <0> d          -1.298  -0.767   0.011  0.00  0.00    -0.051 C 
ATOM     17  H2  <0> d          -1.621  -0.945  -1.015  0.00  0.00     0.033 H 
ATOM     18  H3  <0> d          -1.156  -1.721   0.518  0.00  0.00     0.033 H 
ATOM     19  H4  <0> d          -2.056  -0.185   0.535  0.00  0.00     0.033 H 
ENDBRANCH   1  16
TORSDOF 1
