REMARK  2 active torsions:
REMARK  status: ('A' for Active; 'I' for Inactive)
REMARK    1  A    between atoms: C1_1  and  C2_2 
REMARK    2  A    between atoms: C7_8  and  O1_10 
ROOT
ATOM      1  C2  <0> d           1.145   3.085   0.008  0.00  0.00    -0.033 C 
ATOM      2  H1  <0> d           2.135   3.542   0.001  0.00  0.00     0.043 H 
ATOM      3  C3  <0> d           0.368   3.533  -1.232  0.00  0.00    -0.060 C 
ATOM      4  C4  <0> d           1.121   3.099  -2.491  0.00  0.00    -0.065 C 
ATOM      5  C5  <0> d           1.262   1.575  -2.500  0.00  0.00    -0.063 C 
ATOM      6  C6  <0> d           2.040   1.127  -1.261  0.00  0.00    -0.041 C 
ATOM      7  C7  <0> d           1.286   1.562  -0.002  0.00  0.00     0.038 C 
ATOM      8  H2  <0> d           1.840   1.243   0.881  0.00  0.00     0.083 H 
ATOM      9  H6  <0> d          -0.622   3.076  -1.225  0.00  0.00     0.033 H 
ATOM     10  H7  <0> d           0.267   4.618  -1.225  0.00  0.00     0.033 H 
ATOM     11  H8  <0> d           0.567   3.418  -3.374  0.00  0.00     0.033 H 
ATOM     12  H9  <0> d           2.111   3.555  -2.498  0.00  0.00     0.033 H 
ATOM     13  H10 <0> d           0.273   1.118  -2.493  0.00  0.00     0.033 H 
ATOM     14  H11 <0> d           1.799   1.266  -3.397  0.00  0.00     0.033 H 
ATOM     15  H12 <0> d           3.029   1.584  -1.268  0.00  0.00     0.036 H 
ATOM     16  H13 <0> d           2.140   0.042  -1.268  0.00  0.00     0.036 H 
ENDROOT
BRANCH   1  17
ATOM     17  C1  <0> d           0.392   3.519   1.266  0.00  0.00    -0.071 C 
ATOM     18  H3  <0> d           0.945   3.200   2.150  0.00  0.00     0.028 H 
ATOM     19  H4  <0> d           0.291   4.605   1.273  0.00  0.00     0.028 H 
ATOM     20  H5  <0> d          -0.598   3.063   1.274  0.00  0.00     0.028 H 
ENDBRANCH   1  17
BRANCH   7  21
ATOM     21  O1  <0> d          -0.011   0.963   0.007  0.00  0.00    -0.395 OA
ATOM     22  H14 <0> d           0.002  -0.004   0.002  0.00  0.00     0.210 HD
ENDBRANCH   7  21
TORSDOF 2
