REMARK  3 active torsions:
REMARK  status: ('A' for Active; 'I' for Inactive)
REMARK    1  A    between atoms: C1_1  and  C2_3 
REMARK    2  A    between atoms: C1_1  and  C3_5 
REMARK    3  A    between atoms: C1_1  and  O2_9 
ROOT
ATOM      1  C1  <0> d           1.235   3.094   0.007  0.00  0.00     0.213 C 
ATOM      2  H1  <0> d           0.668   3.476   0.856  0.00  0.00     0.114 H 
ENDROOT
BRANCH   1   3
ATOM      3  C2  <0> d           1.177   1.588  -0.001  0.00  0.00     0.212 C 
ATOM      4  O1  <0> d           2.199   0.944  -0.014  0.00  0.00    -0.646 OA
ATOM      5  O3  <0> d          -0.011   0.963   0.007  0.00  0.00    -0.646 OA
ENDBRANCH   1   3
BRANCH   1   6
ATOM      6  C3  <0> d           0.633   3.635  -1.292  0.00  0.00     0.423 C 
ATOM      7  F1  <0> d          -0.699   3.220  -1.396  0.00  0.00    -0.168 F 
ATOM      8  F2  <0> d           0.687   5.032  -1.285  0.00  0.00    -0.168 F 
ATOM      9  F3  <0> d           1.361   3.145  -2.382  0.00  0.00    -0.168 F 
ENDBRANCH   1   6
BRANCH   1  10
ATOM     10  O2  <0> d           2.596   3.518   0.114  0.00  0.00    -0.377 OA
ATOM     11  H2  <0> d           3.160   3.214  -0.611  0.00  0.00     0.211 HD
ENDBRANCH   1  10
TORSDOF 3
