REMARK  1 active torsions:
REMARK  status: ('A' for Active; 'I' for Inactive)
REMARK    1  A    between atoms: C1_1  and  C2_2 
ROOT
ATOM      1  C2  <0> d          -0.803   1.618  -1.198  0.00  0.00     0.010 A 
ATOM      2  H1  <0> d          -1.176   0.790  -1.802  0.00  0.00     0.072 H 
ATOM      3  C3  <0> d          -0.013   1.086   0.008  0.00  0.00    -0.021 A 
ATOM      4  C4  <0> d          -0.767   1.597   1.215  0.00  0.00    -0.030 A 
ATOM      5  C5  <0> d          -0.535   1.438   2.565  0.00  0.00    -0.075 A 
ATOM      6  C6  <0> d          -1.386   2.012   3.490  0.00  0.00    -0.082 A 
ATOM      7  C7  <0> d          -2.476   2.747   3.059  0.00  0.00    -0.081 A 
ATOM      8  C8  <0> d          -2.715   2.908   1.712  0.00  0.00    -0.057 A 
ATOM      9  C9  <0> d          -1.859   2.331   0.771  0.00  0.00     0.034 A 
ATOM     10  N1  <0> d          -1.920   2.372  -0.623  0.00  0.00    -0.385 N 
ATOM     11  H5  <0> d           0.002  -0.004   0.002  0.00  0.00     0.043 H 
ATOM     12  H6  <0> d           1.004   1.479   0.000  0.00  0.00     0.043 H 
ATOM     13  H7  <0> d           0.317   0.864   2.900  0.00  0.00     0.084 H 
ATOM     14  H8  <0> d          -1.201   1.887   4.547  0.00  0.00     0.083 H 
ATOM     15  H9  <0> d          -3.142   3.196   3.781  0.00  0.00     0.083 H 
ATOM     16  H10 <0> d          -3.568   3.482   1.382  0.00  0.00     0.086 H 
ATOM     17  H11 <0> d          -2.603   2.832  -1.136  0.00  0.00     0.160 HD
ENDROOT
BRANCH   1  18
ATOM     18  C1  <0> d           0.078   2.539  -2.046  0.00  0.00    -0.057 C 
ATOM     19  H2  <0> d           0.944   1.984  -2.405  0.00  0.00     0.030 H 
ATOM     20  H3  <0> d          -0.495   2.908  -2.896  0.00  0.00     0.030 H 
ATOM     21  H4  <0> d           0.412   3.381  -1.439  0.00  0.00     0.030 H 
ENDBRANCH   1  18
TORSDOF 1
