REMARK  0 active torsions:
REMARK  status: ('A' for Active; 'I' for Inactive)
ROOT
ATOM      1  C1  <0> d          -0.017   1.376   0.010  0.00  0.00    -0.081 A 
ATOM      2  C2  <0> d           1.169   2.088   0.002  0.00  0.00    -0.082 A 
ATOM      3  C3  <0> d           2.376   1.417  -0.018  0.00  0.00    -0.065 A 
ATOM      4  C4  <0> d           2.403   0.028  -0.026  0.00  0.00     0.026 A 
ATOM      5  C5  <0> d           1.212  -0.693  -0.011  0.00  0.00     0.044 A 
ATOM      6  C6  <0> d           0.002  -0.004   0.002  0.00  0.00    -0.056 A 
ATOM      7  N1  <0> d           1.175  -2.088   0.004  0.00  0.00    -0.388 N 
ATOM      8  C7  <0> d           2.304  -2.919  -0.401  0.00  0.00     0.001 C 
ATOM      9  C8  <0> d           3.540  -2.504   0.411  0.00  0.00    -0.004 C 
ATOM     10  S1  <0> d           3.962  -0.799  -0.060  0.00  0.00    -0.126 SA
ATOM     11  H1  <0> d          -0.960   1.902   0.026  0.00  0.00     0.083 H 
ATOM     12  H2  <0> d           1.151   3.168   0.011  0.00  0.00     0.083 H 
ATOM     13  H3  <0> d           3.301   1.973  -0.026  0.00  0.00     0.085 H 
ATOM     14  H4  <0> d          -0.928  -0.553   0.007  0.00  0.00     0.087 H 
ATOM     15  H5  <0> d           0.361  -2.526   0.298  0.00  0.00     0.159 HD
ATOM     16  H6  <0> d           2.075  -3.967  -0.207  0.00  0.00     0.065 H 
ATOM     17  H7  <0> d           2.500  -2.776  -1.464  0.00  0.00     0.065 H 
ATOM     18  H8  <0> d           3.314  -2.547   1.476  0.00  0.00     0.051 H 
ATOM     19  H9  <0> d           4.374  -3.167   0.181  0.00  0.00     0.051 H 
ENDROOT
TORSDOF 0
