REMARK  1 active torsions:
REMARK  status: ('A' for Active; 'I' for Inactive)
REMARK    1  A    between atoms: C1_1  and  C2_2 
ROOT
ATOM      1  C2  <0> d           0.002  -0.004   0.002  0.00  0.00    -0.061 A 
ATOM      2  C3  <0> d           0.006  -0.685  -1.214  0.00  0.00    -0.075 A 
ATOM      3  C4  <0> d           0.024  -2.045  -1.257  0.00  0.00    -0.054 A 
ATOM      4  C5  <0> d           0.041  -2.781  -0.059  0.00  0.00     0.066 A 
ATOM      5  C6  <0> d           0.037  -2.086   1.176  0.00  0.00    -0.007 A 
ATOM      6  C7  <0> d           0.022  -0.682   1.182  0.00  0.00    -0.065 A 
ATOM      7  C8  <0> d           0.053  -2.825   2.374  0.00  0.00    -0.069 A 
ATOM      8  C9  <0> d           0.072  -4.188   2.291  0.00  0.00    -0.065 A 
ATOM      9  C10 <0> d           0.074  -4.808   1.043  0.00  0.00     0.003 A 
ATOM     10  N1  <0> d           0.059  -4.117  -0.071  0.00  0.00    -0.260 NA
ATOM     11  H4  <0> d          -0.007  -0.124  -2.137  0.00  0.00     0.084 H 
ATOM     12  H5  <0> d           0.026  -2.557  -2.208  0.00  0.00     0.087 H 
ATOM     13  H6  <0> d           0.024  -0.143   2.118  0.00  0.00     0.085 H 
ATOM     14  H7  <0> d           0.051  -2.327   3.333  0.00  0.00     0.085 H 
ATOM     15  H8  <0> d           0.085  -4.785   3.191  0.00  0.00     0.085 H 
ATOM     16  H9  <0> d           0.089  -5.887   0.993  0.00  0.00     0.114 H 
ENDROOT
BRANCH   1  17
ATOM     17  C1  <0> d          -0.018   1.503   0.010  0.00  0.00    -0.051 C 
ATOM     18  H1  <0> d           1.004   1.880   0.003  0.00  0.00     0.033 H 
ATOM     19  H2  <0> d          -0.545   1.864  -0.873  0.00  0.00     0.033 H 
ATOM     20  H3  <0> d          -0.529   1.854   0.907  0.00  0.00     0.033 H 
ENDBRANCH   1  17
TORSDOF 1
