REMARK  3 active torsions:
REMARK  status: ('A' for Active; 'I' for Inactive)
REMARK    1  A    between atoms: C1_1  and  C2_2 
REMARK    2  A    between atoms: C1_1  and  C3_4 
REMARK    3  A    between atoms: C2_2  and  O1_3 
ROOT
ATOM      1  C1  <0> d           1.756  -1.813  -0.025  0.00  0.00     0.015 C 
ATOM      2  H1  <0> d           1.458  -2.295  -0.957  0.00  0.00     0.048 H 
ATOM      3  H2  <0> d           2.843  -1.815   0.054  0.00  0.00     0.048 H 
ENDROOT
BRANCH   1   4
ATOM      4  C2  <0> d           1.157  -2.576   1.158  0.00  0.00     0.023 C 
ATOM      5  H3  <0> d           1.454  -2.094   2.089  0.00  0.00     0.074 H 
ATOM      6  H4  <0> d           0.070  -2.574   1.079  0.00  0.00     0.074 H 
BRANCH   4   7
ATOM      7  O1  <0> d           1.633  -3.924   1.145  0.00  0.00    -0.400 OA
ATOM      8  H5  <0> d           1.293  -4.467   1.869  0.00  0.00     0.209 HD
ENDBRANCH   4   7
ENDBRANCH   1   4
BRANCH   1   9
ATOM      9  C3  <0> d           1.254  -0.392  -0.012  0.00  0.00     0.175 A 
ATOM     10  N3  <0> d           0.002  -0.004   0.002  0.00  0.00    -0.112 NA
ATOM     11  N2  <0> d          -0.015   1.284   0.009  0.00  0.00    -0.021 NA
ATOM     12  N1  <0> d           1.193   1.728  -0.000  0.00  0.00    -0.021 NA
ATOM     13  N4  <0> d           1.990   0.725  -0.013  0.00  0.00    -0.112 NA
ENDBRANCH   1   9
TORSDOF 3
