REMARK  5 active torsions:
REMARK  status: ('A' for Active; 'I' for Inactive)
REMARK    1  A    between atoms: C1_1  and  C2_2 
REMARK    2  A    between atoms: C2_2  and  C3_4 
REMARK    3  A    between atoms: C2_2  and  C4_8 
REMARK    4  A    between atoms: C3_4  and  S1_5 
REMARK    5  A    between atoms: S1_5  and  O2_7 
ROOT
ATOM      1  C2  <0> d           1.280   1.975   0.000  0.00  0.00     0.039 C 
ATOM      2  H1  <0> d           1.325   2.598   0.906  0.00  0.00     0.057 H 
ENDROOT
BRANCH   1   3
ATOM      3  C1  <0> d           1.338   2.863  -1.245  0.00  0.00    -0.063 C 
ATOM      4  H2  <0> d           0.492   3.566  -1.233  0.00  0.00     0.028 H 
ATOM      5  H3  <0> d           1.279   2.234  -2.146  0.00  0.00     0.028 H 
ATOM      6  H4  <0> d           2.283   3.425  -1.251  0.00  0.00     0.028 H 
ENDBRANCH   1   3
BRANCH   1   7
ATOM      7  C3  <0> d           2.457   0.997  -0.016  0.00  0.00     0.040 C 
ATOM      8  H5  <0> d           2.366   0.301   0.831  0.00  0.00     0.057 H 
ATOM      9  H6  <0> d           2.449   0.430  -0.959  0.00  0.00     0.057 H 
BRANCH   7  10
ATOM     10  S1  <0> d           4.012   1.919   0.123  0.00  0.00     0.151 S 
ATOM     11  O1  <0> d           4.234   2.656  -1.071  0.00  0.00    -0.229 OA
BRANCH  10  12
ATOM     12  O2  <0> d           5.085   0.840   0.094  0.00  0.00    -0.306 OA
ATOM     13  H7  <0> d           6.147   1.117   0.164  0.00  0.00     0.230 HD
ENDBRANCH  10  12
ENDBRANCH   7  10
ENDBRANCH   1   7
BRANCH   1  14
ATOM     14  C4  <0> d          -0.014   1.204   0.009  0.00  0.00     0.177 C 
ATOM     15  O3  <0> d           0.002  -0.004   0.002  0.00  0.00    -0.648 OA
ATOM     16  O4  <0> d          -1.186   1.859   0.018  0.00  0.00    -0.648 OA
ENDBRANCH   1  14
TORSDOF 5
