REMARK  1 active torsions:
REMARK  status: ('A' for Active; 'I' for Inactive)
REMARK    1  A    between atoms: C4_4  and  C8_9 
ROOT
ATOM      1  C1  <0> d           3.112   4.027   1.243  0.00  0.00    -0.065 C 
ATOM      2  C2  <0> d           2.293   4.393   0.004  0.00  0.00    -0.063 C 
ATOM      3  C3  <0> d           0.979   3.610   0.012  0.00  0.00    -0.036 C 
ATOM      4  C4  <0> d           1.279   2.109   0.001  0.00  0.00     0.137 C 
ATOM      5  C5  <0> d           2.098   1.744   1.241  0.00  0.00    -0.036 C 
ATOM      6  C6  <0> d           3.412   2.527   1.232  0.00  0.00    -0.063 C 
ATOM      7  C7  <0> d           2.044   1.771  -1.210  0.00  0.00     0.080 C 
ATOM      8  N1  <0> d           2.634   1.509  -2.144  0.00  0.00    -0.196 NA
ATOM      9  H1  <0> d           2.540   4.280   2.148  0.00  0.00     0.033 H 
ATOM     10  H2  <0> d           4.057   4.590   1.237  0.00  0.00     0.033 H 
ATOM     11  H3  <0> d           2.078   5.471   0.012  0.00  0.00     0.033 H 
ATOM     12  H4  <0> d           2.865   4.139  -0.901  0.00  0.00     0.033 H 
ATOM     13  H5  <0> d           0.407   3.862   0.917  0.00  0.00     0.036 H 
ATOM     14  H6  <0> d           0.390   3.872  -0.879  0.00  0.00     0.036 H 
ATOM     15  H7  <0> d           1.526   1.997   2.146  0.00  0.00     0.036 H 
ATOM     16  H8  <0> d           2.313   0.665   1.233  0.00  0.00     0.036 H 
ATOM     17  H9  <0> d           3.984   2.274   0.327  0.00  0.00     0.033 H 
ATOM     18  H10 <0> d           4.001   2.264   2.124  0.00  0.00     0.033 H 
ENDROOT
BRANCH   4  19
ATOM     19  C8  <0> d          -0.016   1.338   0.009  0.00  0.00     0.196 C 
ATOM     20  O1  <0> d          -1.071   1.928   0.018  0.00  0.00    -0.647 OA
ATOM     21  O2  <0> d           0.002  -0.004   0.002  0.00  0.00    -0.647 OA
ENDBRANCH   4  19
TORSDOF 1
