REMARK  5 active torsions:
REMARK  status: ('A' for Active; 'I' for Inactive)
REMARK    1  A    between atoms: C1_1  and  C2_2 
REMARK    2  A    between atoms: C2_2  and  C3_3 
REMARK    3  A    between atoms: C2_2  and  C4_4 
REMARK    4  A    between atoms: C4_4  and  O2_6 
REMARK    5  A    between atoms: O2_6  and  C5_7 
ROOT
ATOM      1  C5  <0> d          -2.618   2.173   2.688  0.00  0.00     0.048 C 
ATOM      2  C6  <0> d          -2.463   1.143   3.826  0.00  0.00    -0.040 C 
ATOM      3  C7  <0> d          -3.794   1.241   4.611  0.00  0.00    -0.063 C 
ATOM      4  C8  <0> d          -4.840   1.445   3.487  0.00  0.00    -0.063 C 
ATOM      5  C9  <0> d          -4.130   2.365   2.472  0.00  0.00    -0.040 C 
ATOM      6  H8  <0> d          -2.159   3.119   2.974  0.00  0.00     0.084 H 
ATOM      7  H9  <0> d          -2.333   0.141   3.418  0.00  0.00     0.036 H 
ATOM      8  H10 <0> d          -1.621   1.407   4.467  0.00  0.00     0.036 H 
ATOM      9  H11 <0> d          -3.782   2.096   5.287  0.00  0.00     0.033 H 
ATOM     10  H12 <0> d          -3.989   0.318   5.157  0.00  0.00     0.033 H 
ATOM     11  H13 <0> d          -5.734   1.929   3.880  0.00  0.00     0.033 H 
ATOM     12  H14 <0> d          -5.094   0.491   3.024  0.00  0.00     0.033 H 
ATOM     13  H15 <0> d          -4.404   3.404   2.654  0.00  0.00     0.036 H 
ATOM     14  H16 <0> d          -4.401   2.079   1.456  0.00  0.00     0.036 H 
ENDROOT
BRANCH   1  15
ATOM     15  O2  <0> d          -2.002   1.669   1.473  0.00  0.00    -0.316 OA
BRANCH  15  16
ATOM     16  C4  <0> d          -0.724   2.012   1.250  0.00  0.00     0.262 C 
ATOM     17  O1  <0> d          -0.139   2.710   2.044  0.00  0.00    -0.265 OA
BRANCH  16  18
ATOM     18  C2  <0> d          -0.019   1.526   0.010  0.00  0.00     0.023 C 
ATOM     19  H4  <0> d          -0.546   1.887  -0.873  0.00  0.00     0.054 H 
BRANCH  18  20
ATOM     20  C1  <0> d           0.002  -0.004   0.002  0.00  0.00    -0.065 C 
ATOM     21  H1  <0> d          -1.020  -0.381   0.010  0.00  0.00     0.028 H 
ATOM     22  H2  <0> d           0.512  -0.356  -0.895  0.00  0.00     0.028 H 
ATOM     23  H3  <0> d           0.529  -0.365   0.885  0.00  0.00     0.028 H 
ENDBRANCH  18  20
BRANCH  18  24
ATOM     24  C3  <0> d           1.417   2.055  -0.000  0.00  0.00    -0.065 C 
ATOM     25  H5  <0> d           1.927   1.704  -0.897  0.00  0.00     0.028 H 
ATOM     26  H6  <0> d           1.402   3.145   0.006  0.00  0.00     0.028 H 
ATOM     27  H7  <0> d           1.944   1.694   0.883  0.00  0.00     0.028 H 
ENDBRANCH  18  24
ENDBRANCH  16  18
ENDBRANCH  15  16
ENDBRANCH   1  15
TORSDOF 5
