REMARK  3 active torsions:
REMARK  status: ('A' for Active; 'I' for Inactive)
REMARK    1  A    between atoms: C1_1  and  O1_2 
REMARK    2  A    between atoms: O1_2  and  C2_3 
REMARK    3  A    between atoms: C9_10  and  O2_12 
ROOT
ATOM      1  C2  <0> d           1.163   3.165   0.008  0.00  0.00     0.068 A 
ATOM      2  C3  <0> d           1.174   1.777   0.000  0.00  0.00    -0.050 A 
ATOM      3  C4  <0> d          -0.013   1.076   0.008  0.00  0.00    -0.071 A 
ATOM      4  C5  <0> d          -1.228   1.750   0.017  0.00  0.00    -0.023 A 
ATOM      5  C6  <0> d          -1.235   3.134   0.031  0.00  0.00    -0.044 A 
ATOM      6  C7  <0> d          -0.047   3.841   0.024  0.00  0.00    -0.044 A 
ATOM      7  C8  <0> d          -2.742   3.133   0.046  0.00  0.00    -0.013 A 
ATOM      8  C9  <0> d          -2.735   1.605   0.037  0.00  0.00     0.065 A 
ATOM      9  H1  <0> d          -3.129   1.155   0.949  0.00  0.00     0.091 H 
ATOM     10  H5  <0> d           2.115   1.246  -0.011  0.00  0.00     0.087 H 
ATOM     11  H6  <0> d           0.002  -0.004   0.002  0.00  0.00     0.084 H 
ATOM     12  H7  <0> d          -0.062   4.920   0.030  0.00  0.00     0.088 H 
ATOM     13  H8  <0> d          -3.162   3.555   0.959  0.00  0.00     0.044 H 
ATOM     14  H9  <0> d          -3.180   3.565  -0.854  0.00  0.00     0.044 H 
ENDROOT
BRANCH   1  15
ATOM     15  O1  <0> d           2.333   3.857   0.002  0.00  0.00    -0.356 OA
BRANCH  15  16
ATOM     16  C1  <0> d           3.539   3.093  -0.013  0.00  0.00     0.010 C 
ATOM     17  H2  <0> d           3.579   2.459   0.873  0.00  0.00     0.066 H 
ATOM     18  H3  <0> d           3.563   2.469  -0.907  0.00  0.00     0.066 H 
ATOM     19  H4  <0> d           4.396   3.766  -0.017  0.00  0.00     0.066 H 
ENDBRANCH  15  16
ENDBRANCH   1  15
BRANCH   8  20
ATOM     20  O2  <0> d          -3.277   1.028  -1.153  0.00  0.00    -0.391 OA
ATOM     21  H10 <0> d          -3.273   0.061  -1.159  0.00  0.00     0.210 HD
ENDBRANCH   8  20
TORSDOF 3
