REMARK  4 active torsions:
REMARK  status: ('A' for Active; 'I' for Inactive)
REMARK    1  A    between atoms: C1_1  and  C2_2 
REMARK    2  A    between atoms: C7_7  and  C8_8 
REMARK    3  A    between atoms: C8_8  and  O2_10 
REMARK    4  A    between atoms: O2_10  and  C9_11 
ROOT
ATOM      1  C2  <0> d          -0.229  -0.027   0.036  0.00  0.00    -0.046 A 
ATOM      2  C3  <0> d          -0.339  -0.715  -1.156  0.00  0.00    -0.076 A 
ATOM      3  C4  <0> d          -0.085  -2.074  -1.199  0.00  0.00    -0.082 A 
ATOM      4  C5  <0> d           0.269  -2.756  -0.048  0.00  0.00    -0.082 A 
ATOM      5  C6  <0> d           0.377  -2.082   1.150  0.00  0.00    -0.067 A 
ATOM      6  C7  <0> d           0.128  -0.709   1.201  0.00  0.00     0.045 A 
ATOM      7  H4  <0> d          -0.619  -0.190  -2.057  0.00  0.00     0.084 H 
ATOM      8  H5  <0> d          -0.169  -2.606  -2.135  0.00  0.00     0.083 H 
ATOM      9  H6  <0> d           0.461  -3.818  -0.089  0.00  0.00     0.083 H 
ATOM     10  H7  <0> d           0.653  -2.615   2.048  0.00  0.00     0.085 H 
ENDROOT
BRANCH   6  11
ATOM     11  C8  <0> d           0.242   0.019   2.481  0.00  0.00     0.293 C 
ATOM     12  O1  <0> d           0.135   1.229   2.503  0.00  0.00    -0.259 OA
BRANCH  11  13
ATOM     13  O2  <0> d           0.464  -0.658   3.624  0.00  0.00    -0.323 OA
BRANCH  13  14
ATOM     14  C9  <0> d           0.564   0.122   4.844  0.00  0.00     0.013 C 
ATOM     15  H8  <0> d           0.743  -0.544   5.688  0.00  0.00     0.067 H 
ATOM     16  H9  <0> d           1.390   0.828   4.757  0.00  0.00     0.067 H 
ATOM     17  H10 <0> d          -0.365   0.668   5.003  0.00  0.00     0.067 H 
ENDBRANCH  13  14
ENDBRANCH  11  13
ENDBRANCH   6  11
BRANCH   1  18
ATOM     18  C1  <0> d          -0.499   1.455   0.080  0.00  0.00    -0.050 C 
ATOM     19  H1  <0> d           0.444   1.998   0.018  0.00  0.00     0.033 H 
ATOM     20  H2  <0> d          -1.135   1.733  -0.760  0.00  0.00     0.033 H 
ATOM     21  H3  <0> d          -1.001   1.704   1.015  0.00  0.00     0.033 H 
ENDBRANCH   1  18
TORSDOF 4
