REMARK  3 active torsions:
REMARK  status: ('A' for Active; 'I' for Inactive)
REMARK    1  A    between atoms: C1_1  and  C2_2 
REMARK    2  A    between atoms: C2_2  and  O1_3 
REMARK    3  A    between atoms: O1_3  and  C3_4 
ROOT
ATOM      1  C3  <0> d           2.374   1.359  -0.013  0.00  0.00     0.074 A 
ATOM      2  C4  <0> d           1.158   2.039   0.002  0.00  0.00    -0.034 A 
ATOM      3  C5  <0> d          -0.016   1.316   0.009  0.00  0.00     0.008 A 
ATOM      4  N1  <0> d           0.002  -0.004   0.002  0.00  0.00    -0.233 NA
ATOM      5  C6  <0> d           1.134  -0.685  -0.012  0.00  0.00     0.212 A 
ATOM      6  C7  <0> d           2.353  -0.032  -0.020  0.00  0.00     0.005 A 
ATOM      7  F1  <0> d           1.100  -2.036  -0.019  0.00  0.00    -0.184 F 
ATOM      8  H6  <0> d           1.135   3.119   0.008  0.00  0.00     0.089 H 
ATOM      9  H7  <0> d          -0.962   1.836   0.017  0.00  0.00     0.115 H 
ATOM     10  H8  <0> d           3.275  -0.594  -0.032  0.00  0.00     0.095 H 
ENDROOT
BRANCH   1  11
ATOM     11  O1  <0> d           3.550   2.037  -0.020  0.00  0.00    -0.351 OA
BRANCH  11  12
ATOM     12  C2  <0> d           3.477   3.464  -0.012  0.00  0.00     0.023 C 
ATOM     13  H4  <0> d           2.949   3.799   0.893  0.00  0.00     0.074 H 
ATOM     14  H5  <0> d           2.931   3.808  -0.903  0.00  0.00     0.074 H 
BRANCH  12  15
ATOM     15  C1  <0> d           4.891   4.048  -0.022  0.00  0.00    -0.056 C 
ATOM     16  H1  <0> d           4.834   5.146  -0.016  0.00  0.00     0.030 H 
ATOM     17  H2  <0> d           5.419   3.713  -0.927  0.00  0.00     0.030 H 
ATOM     18  H3  <0> d           5.436   3.704   0.869  0.00  0.00     0.030 H 
ENDBRANCH  12  15
ENDBRANCH  11  12
ENDBRANCH   1  11
TORSDOF 3
