REMARK  3 active torsions:
REMARK  status: ('A' for Active; 'I' for Inactive)
REMARK    1  A    between atoms: C3_3  and  N2_7 
REMARK    2  A    between atoms: N2_7  and  C6_8 
REMARK    3  A    between atoms: C6_8  and  C7_9 
ROOT
ATOM      1  N2  <0> d          -2.375   3.887   0.045  0.00  0.00    -0.388 N 
ATOM      2  H5  <0> d          -3.229   3.428   0.050  0.00  0.00     0.159 HD
ENDROOT
BRANCH   1   3
ATOM      3  C3  <0> d          -1.187   3.152   0.030  0.00  0.00     0.045 A 
ATOM      4  C2  <0> d          -1.217   1.760   0.017  0.00  0.00    -0.055 A 
ATOM      5  C1  <0> d          -0.013   1.076   0.008  0.00  0.00    -0.064 A 
ATOM      6  H2  <0> d          -2.156   1.227   0.019  0.00  0.00     0.087 H 
ATOM      7  C5  <0> d           1.170   1.791   0.001  0.00  0.00     0.002 A 
ATOM      8  H1  <0> d           0.002  -0.004   0.002  0.00  0.00     0.085 H 
ATOM      9  N1  <0> d           1.165   3.110   0.008  0.00  0.00    -0.271 NA
ATOM     10  H4  <0> d           2.112   1.262  -0.011  0.00  0.00     0.114 H 
ATOM     11  C4  <0> d           0.042   3.800   0.022  0.00  0.00     0.027 A 
ATOM     12  H3  <0> d           0.078   4.879   0.027  0.00  0.00     0.118 H 
ENDBRANCH   1   3
BRANCH   1  13
ATOM     13  C6  <0> d          -2.331   5.352   0.052  0.00  0.00    -0.004 C 
ATOM     14  H6  <0> d          -1.798   5.695   0.938  0.00  0.00     0.064 H 
ATOM     15  H7  <0> d          -1.814   5.704  -0.841  0.00  0.00     0.064 H 
BRANCH  13  16
ATOM     16  C7  <0> d          -3.757   5.905   0.068  0.00  0.00    -0.039 A 
ATOM     17  C9  <0> d          -3.925   7.420   0.193  0.00  0.00    -0.060 A 
ATOM     18  C8  <0> d          -4.210   6.726  -1.141  0.00  0.00    -0.060 A 
ATOM     19  H11 <0> d          -4.780   7.787   0.762  0.00  0.00     0.033 H 
ATOM     20  H12 <0> d          -3.020   8.023   0.265  0.00  0.00     0.033 H 
ATOM     21  H9  <0> d          -3.491   6.872  -1.948  0.00  0.00     0.033 H 
ATOM     22  H10 <0> d          -5.251   6.636  -1.449  0.00  0.00     0.033 H 
ATOM     23  H8  <0> d          -4.500   5.274   0.555  0.00  0.00     0.042 H 
ENDBRANCH  13  16
ENDBRANCH   1  13
TORSDOF 3
