REMARK  3 active torsions:
REMARK  status: ('A' for Active; 'I' for Inactive)
REMARK    1  A    between atoms: C1_1  and  C2_2 
REMARK    2  A    between atoms: C4_4  and  C7_9 
REMARK    3  A    between atoms: C5_6  and  N2_8 
ROOT
ATOM      1  C2  <0> d           1.176   1.794   0.001  0.00  0.00    -0.057 A 
ATOM      2  C3  <0> d          -0.013   1.076   0.008  0.00  0.00    -0.054 A 
ATOM      3  C4  <0> d          -1.213   1.757   0.017  0.00  0.00     0.033 A 
ATOM      4  N1  <0> d          -1.243   3.076   0.030  0.00  0.00    -0.237 NA
ATOM      5  C5  <0> d          -0.132   3.796   0.023  0.00  0.00     0.121 A 
ATOM      6  C6  <0> d           1.113   3.175   0.008  0.00  0.00    -0.033 A 
ATOM      7  H4  <0> d           0.002  -0.004   0.002  0.00  0.00     0.087 H 
ATOM      8  H5  <0> d           2.019   3.764   0.002  0.00  0.00     0.090 H 
ENDROOT
BRANCH   1   9
ATOM      9  C1  <0> d           2.505   1.083  -0.015  0.00  0.00    -0.051 C 
ATOM     10  H1  <0> d           2.816   0.916  -1.046  0.00  0.00     0.033 H 
ATOM     11  H2  <0> d           3.250   1.694   0.495  0.00  0.00     0.033 H 
ATOM     12  H3  <0> d           2.411   0.124   0.495  0.00  0.00     0.033 H 
ENDBRANCH   1   9
BRANCH   5  13
ATOM     13  N2  <0> d          -0.210   5.183   0.030  0.00  0.00    -0.384 N 
ATOM     14  H6  <0> d           0.602   5.715   0.025  0.00  0.00     0.157 HD
ATOM     15  H7  <0> d          -1.076   5.620   0.041  0.00  0.00     0.157 HD
ENDBRANCH   5  13
BRANCH   3  16
ATOM     16  C7  <0> d          -2.507   0.983   0.020  0.00  0.00    -0.035 C 
ATOM     17  H8  <0> d          -2.813   0.792   1.048  0.00  0.00     0.035 H 
ATOM     18  H9  <0> d          -3.278   1.563  -0.487  0.00  0.00     0.035 H 
ATOM     19  H10 <0> d          -2.364   0.036  -0.500  0.00  0.00     0.035 H 
ENDBRANCH   3  16
TORSDOF 3
