REMARK  0 active torsions:
REMARK  status: ('A' for Active; 'I' for Inactive)
ROOT
ATOM      1  C1  <0> d          -1.222   1.749   0.017  0.00  0.00    -0.082 A 
ATOM      2  C2  <0> d          -0.013   1.076   0.008  0.00  0.00    -0.082 A 
ATOM      3  C3  <0> d           1.175   1.780   0.000  0.00  0.00    -0.071 A 
ATOM      4  C4  <0> d           1.148   3.172   0.007  0.00  0.00    -0.013 A 
ATOM      5  C5  <0> d          -0.077   3.846   0.023  0.00  0.00    -0.045 A 
ATOM      6  C6  <0> d          -1.254   3.133   0.030  0.00  0.00    -0.076 A 
ATOM      7  C7  <0> d          -0.074   5.352   0.032  0.00  0.00    -0.024 C 
ATOM      8  C8  <0> d           1.138   5.854   0.816  0.00  0.00     0.018 C 
ATOM      9  N1  <0> d           2.364   5.203   0.367  0.00  0.00    -0.300 NA
ATOM     10  C9  <0> d           2.392   3.966  -0.002  0.00  0.00     0.007 C 
ATOM     11  H1  <0> d          -2.146   1.190   0.018  0.00  0.00     0.083 H 
ATOM     12  H2  <0> d           0.002  -0.004   0.002  0.00  0.00     0.083 H 
ATOM     13  H3  <0> d           2.119   1.255  -0.011  0.00  0.00     0.084 H 
ATOM     14  H4  <0> d          -2.201   3.652   0.042  0.00  0.00     0.084 H 
ATOM     15  H5  <0> d          -0.022   5.722  -0.992  0.00  0.00     0.042 H 
ATOM     16  H6  <0> d          -0.987   5.715   0.504  0.00  0.00     0.042 H 
ATOM     17  H7  <0> d           1.233   6.931   0.676  0.00  0.00     0.067 H 
ATOM     18  H8  <0> d           0.990   5.644   1.875  0.00  0.00     0.067 H 
ATOM     19  H9  <0> d           3.321   3.515  -0.317  0.00  0.00     0.115 H 
ENDROOT
TORSDOF 0
