REMARK  8 active torsions:
REMARK  status: ('A' for Active; 'I' for Inactive)
REMARK    1  A    between atoms: C1_1  and  C2_2 
REMARK    2  A    between atoms: C2_2  and  C3_4 
REMARK    3  A    between atoms: C2_2  and  O3_11 
REMARK    4  A    between atoms: C3_4  and  O1_5 
REMARK    5  A    between atoms: O1_5  and  C4_6 
REMARK    6  A    between atoms: C4_6  and  C5_7 
REMARK    7  A    between atoms: C5_7  and  C6_9 
REMARK    8  A    between atoms: C5_7  and  O2_10 
ROOT
ATOM      1  O1  <0> d          -0.704   1.559  -1.150  0.00  0.00    -0.386 OA
ENDROOT
BRANCH   1   2
ATOM      2  C3  <0> d          -0.013   1.086   0.008  0.00  0.00     0.043 C 
ATOM      3  H6  <0> d           0.002  -0.004   0.002  0.00  0.00     0.078 H 
ATOM      4  H7  <0> d           1.010   1.463   0.000  0.00  0.00     0.078 H 
BRANCH   2   5
ATOM      5  C2  <0> d          -0.729   1.579   1.267  0.00  0.00     0.052 C 
ATOM      6  H1  <0> d          -0.822   2.665   1.230  0.00  0.00     0.085 H 
BRANCH   5   7
ATOM      7  C1  <0> d           0.079   1.179   2.503  0.00  0.00    -0.051 C 
ATOM      8  H3  <0> d           1.071   1.627   2.450  0.00  0.00     0.031 H 
ATOM      9  H4  <0> d          -0.432   1.530   3.400  0.00  0.00     0.031 H 
ATOM     10  H5  <0> d           0.172   0.093   2.540  0.00  0.00     0.031 H 
ENDBRANCH   5   7
BRANCH   5  11
ATOM     11  O3  <0> d          -2.030   0.991   1.336  0.00  0.00    -0.394 OA
ATOM     12  H14 <0> d          -2.023   0.025   1.372  0.00  0.00     0.210 HD
ENDBRANCH   5  11
ENDBRANCH   2   5
ENDBRANCH   1   2
BRANCH   1  13
ATOM     13  C4  <0> d          -0.114   1.152  -2.386  0.00  0.00     0.043 C 
ATOM     14  H8  <0> d           0.907   1.531  -2.443  0.00  0.00     0.078 H 
ATOM     15  H9  <0> d          -0.101   0.064  -2.442  0.00  0.00     0.078 H 
BRANCH  13  16
ATOM     16  C5  <0> d          -0.932   1.713  -3.551  0.00  0.00     0.052 C 
ATOM     17  H2  <0> d          -0.433   1.478  -4.491  0.00  0.00     0.085 H 
BRANCH  16  18
ATOM     18  C6  <0> d          -1.055   3.231  -3.404  0.00  0.00    -0.051 C 
ATOM     19  H10 <0> d          -1.553   3.466  -2.463  0.00  0.00     0.031 H 
ATOM     20  H11 <0> d          -0.060   3.678  -3.410  0.00  0.00     0.031 H 
ATOM     21  H12 <0> d          -1.638   3.631  -4.234  0.00  0.00     0.031 H 
ENDBRANCH  16  18
BRANCH  16  22
ATOM     22  O2  <0> d          -2.235   1.127  -3.543  0.00  0.00    -0.394 OA
ATOM     23  H13 <0> d          -2.810   1.437  -4.256  0.00  0.00     0.210 HD
ENDBRANCH  16  22
ENDBRANCH  13  16
ENDBRANCH   1  13
TORSDOF 8
