REMARK  0 active torsions:
REMARK  status: ('A' for Active; 'I' for Inactive)
ROOT
ATOM      1  C1  <0> d           0.942   3.446   0.012  0.00  0.00    -0.050 A 
ATOM      2  C2  <0> d          -0.401   3.610   0.025  0.00  0.00    -0.021 A 
ATOM      3  N1  <0> d          -1.000   2.398   0.030  0.00  0.00    -0.362 N 
ATOM      4  H1  <0> d          -1.958   2.246   0.044  0.00  0.00     0.165 HD
ATOM      5  C3  <0> d          -0.017   1.392   0.010  0.00  0.00     0.096 A 
ATOM      6  C4  <0> d           1.198   2.076   0.002  0.00  0.00     0.032 A 
ATOM      7  S1  <0> d           2.458   0.825  -0.017  0.00  0.00    -0.120 SA
ATOM      8  C5  <0> d           1.370  -0.651  -0.015  0.00  0.00     0.042 A 
ATOM      9  C6  <0> d           0.002  -0.004   0.002  0.00  0.00     0.186 A 
ATOM     10  O1  <0> d          -1.021  -0.661   0.008  0.00  0.00    -0.290 OA
ATOM     11  H2  <0> d           1.681   4.233   0.009  0.00  0.00     0.087 H 
ATOM     12  H3  <0> d          -0.913   4.561   0.035  0.00  0.00     0.111 H 
ATOM     13  H4  <0> d           1.571  -1.212   0.789  0.00  0.00     0.061 H 
ATOM     14  H5  <0> d           1.512  -1.245  -0.917  0.00  0.00     0.061 H 
ENDROOT
TORSDOF 0
