REMARK  2 active torsions:
REMARK  status: ('A' for Active; 'I' for Inactive)
REMARK    1  A    between atoms: C3_3  and  N1_12 
REMARK    2  A    between atoms: C9_9  and  O1_11 
ROOT
ATOM      1  C1  <0> d           3.587   2.150  -0.022  0.00  0.00    -0.070 A 
ATOM      2  C2  <0> d           4.769   1.478  -0.037  0.00  0.00    -0.057 A 
ATOM      3  C3  <0> d           4.800   0.078  -0.045  0.00  0.00     0.026 A 
ATOM      4  C4  <0> d           3.630  -0.650  -0.037  0.00  0.00    -0.047 A 
ATOM      5  C5  <0> d           2.397   0.021  -0.021  0.00  0.00    -0.021 A 
ATOM      6  C6  <0> d           2.375   1.439  -0.013  0.00  0.00    -0.026 A 
ATOM      7  C7  <0> d           1.140   2.110   0.003  0.00  0.00    -0.070 A 
ATOM      8  C8  <0> d          -0.017   1.394   0.010  0.00  0.00    -0.050 A 
ATOM      9  C9  <0> d           0.002  -0.004   0.002  0.00  0.00     0.066 A 
ATOM     10  C10 <0> d           1.184  -0.688  -0.013  0.00  0.00    -0.040 A 
ATOM     11  H1  <0> d           3.580   3.230  -0.016  0.00  0.00     0.084 H 
ATOM     12  H2  <0> d           5.696   2.031  -0.043  0.00  0.00     0.086 H 
ATOM     13  H3  <0> d           3.662  -1.730  -0.043  0.00  0.00     0.088 H 
ATOM     14  H4  <0> d           1.109   3.189   0.008  0.00  0.00     0.085 H 
ATOM     15  H5  <0> d          -0.964   1.914   0.017  0.00  0.00     0.087 H 
ATOM     16  H6  <0> d           1.186  -1.768  -0.019  0.00  0.00     0.089 H 
ENDROOT
BRANCH   3  17
ATOM     17  N1  <0> d           6.028  -0.586  -0.060  0.00  0.00    -0.399 N 
ATOM     18  H8  <0> d           6.055  -1.555  -0.065  0.00  0.00     0.156 HD
ATOM     19  H9  <0> d           6.854  -0.077  -0.066  0.00  0.00     0.156 HD
ENDBRANCH   3  17
BRANCH   9  20
ATOM     20  O1  <0> d          -1.170  -0.691   0.009  0.00  0.00    -0.361 OA
ATOM     21  H7  <0> d          -1.518  -0.885  -0.872  0.00  0.00     0.217 HD
ENDBRANCH   9  20
TORSDOF 2
