REMARK  5 active torsions:
REMARK  status: ('A' for Active; 'I' for Inactive)
REMARK    1  A    between atoms: C1_1  and  C2_2 
REMARK    2  A    between atoms: C2_2  and  C3_3 
REMARK    3  A    between atoms: C2_2  and  C4_4 
REMARK    4  A    between atoms: C2_2  and  C8_8 
REMARK    5  A    between atoms: C4_4  and  C5_5 
ROOT
ATOM      1  C2  <0> d           0.002  -0.004   0.002  0.00  0.00     0.041 C 
ENDROOT
BRANCH   1   2
ATOM      2  C1  <0> d          -0.019   1.526   0.010  0.00  0.00    -0.060 C 
ATOM      3  H1  <0> d           1.004   1.903   0.003  0.00  0.00     0.029 H 
ATOM      4  H2  <0> d          -0.546   1.887  -0.873  0.00  0.00     0.029 H 
ATOM      5  H3  <0> d          -0.529   1.877   0.907  0.00  0.00     0.029 H 
ENDBRANCH   1   2
BRANCH   1   6
ATOM      6  C3  <0> d           0.742  -0.511   1.242  0.00  0.00    -0.060 C 
ATOM      7  H4  <0> d           0.232  -0.159   2.138  0.00  0.00     0.029 H 
ATOM      8  H5  <0> d           0.757  -1.601   1.236  0.00  0.00     0.029 H 
ATOM      9  H6  <0> d           1.765  -0.134   1.234  0.00  0.00     0.029 H 
ENDBRANCH   1   6
BRANCH   1  10
ATOM     10  C4  <0> d          -1.433  -0.534   0.013  0.00  0.00    -0.046 C 
ATOM     11  H7  <0> d          -1.960  -0.173  -0.870  0.00  0.00     0.035 H 
ATOM     12  H8  <0> d          -1.419  -1.623   0.007  0.00  0.00     0.035 H 
BRANCH  10  13
ATOM     13  C5  <0> d          -2.149  -0.040   1.272  0.00  0.00    -0.053 A 
ATOM     14  C7  <0> d          -3.638  -0.366   1.411  0.00  0.00    -0.061 A 
ATOM     15  C6  <0> d          -2.610  -1.094   2.281  0.00  0.00    -0.061 A 
ATOM     16  H12 <0> d          -4.272   0.376   1.896  0.00  0.00     0.033 H 
ATOM     17  H13 <0> d          -4.107  -0.933   0.607  0.00  0.00     0.033 H 
ATOM     18  H10 <0> d          -2.403  -2.138   2.049  0.00  0.00     0.033 H 
ATOM     19  H11 <0> d          -2.569  -0.830   3.338  0.00  0.00     0.033 H 
ATOM     20  H9  <0> d          -1.805   0.917   1.664  0.00  0.00     0.040 H 
ENDBRANCH  10  13
ENDBRANCH   1  10
BRANCH   1  21
ATOM     21  C8  <0> d           0.707  -0.490  -1.238  0.00  0.00     0.181 C 
ATOM     22  O1  <0> d           1.314  -1.547  -1.219  0.00  0.00    -0.647 OA
ATOM     23  O2  <0> d           0.671   0.174  -2.260  0.00  0.00    -0.647 OA
ENDBRANCH   1  21
TORSDOF 5
