REMARK  1 active torsions:
REMARK  status: ('A' for Active; 'I' for Inactive)
REMARK    1  A    between atoms: C5_5  and  O1_9 
ROOT
ATOM      1  C1  <0> d           1.181   2.146   0.002  0.00  0.00    -0.023 A 
ATOM      2  C2  <0> d           1.156   3.526   0.010  0.00  0.00     0.120 A 
ATOM      3  C3  <0> d          -0.054   4.204   0.025  0.00  0.00    -0.006 A 
ATOM      4  C4  <0> d          -1.246   3.503   0.032  0.00  0.00     0.153 A 
ATOM      5  C5  <0> d          -1.238   2.115   0.019  0.00  0.00     0.125 A 
ATOM      6  C6  <0> d          -0.017   1.428   0.010  0.00  0.00     0.083 A 
ATOM      7  C7  <0> d           0.002  -0.004   0.002  0.00  0.00     0.102 C 
ATOM      8  N1  <0> d           0.018  -1.140  -0.004  0.00  0.00    -0.191 NA
ATOM      9  F1  <0> d          -2.421   4.171   0.047  0.00  0.00    -0.203 F 
ATOM     10  F2  <0> d           2.315   4.220   0.003  0.00  0.00    -0.206 F 
ATOM     11  H1  <0> d           2.126   1.623  -0.010  0.00  0.00     0.090 H 
ATOM     12  H2  <0> d          -0.065   5.284   0.031  0.00  0.00     0.093 H 
ENDROOT
BRANCH   5  13
ATOM     13  O1  <0> d          -2.408   1.427   0.021  0.00  0.00    -0.356 OA
ATOM     14  H3  <0> d          -2.743   1.222   0.904  0.00  0.00     0.218 HD
ENDBRANCH   5  13
TORSDOF 1
