REMARK  5 active torsions:
REMARK  status: ('A' for Active; 'I' for Inactive)
REMARK    1  A    between atoms: C1_1  and  N1_2 
REMARK    2  A    between atoms: C2_4  and  C3_7 
REMARK    3  A    between atoms: C3_7  and  C4_8 
REMARK    4  A    between atoms: C4_8  and  O1_9 
REMARK    5  A    between atoms: O1_9  and  C5_10 
ROOT
ATOM      1  C3  <0> d          -0.729   1.579   1.267  0.00  0.00     0.015 C 
ATOM      2  H4  <0> d          -0.744   2.669   1.273  0.00  0.00     0.048 H 
ATOM      3  H5  <0> d          -1.751   1.202   1.275  0.00  0.00     0.048 H 
ENDROOT
BRANCH   1   4
ATOM      4  C2  <0> d           0.000   1.080   2.488  0.00  0.00     0.173 A 
ATOM      5  N2  <0> d           0.974   1.689   3.119  0.00  0.00    -0.137 NA
ATOM      6  N1  <0> d           1.331   0.945   4.109  0.00  0.00    -0.173 N 
ATOM      7  N4  <0> d           0.607  -0.120   4.119  0.00  0.00    -0.047 NA
ATOM      8  N3  <0> d          -0.226  -0.063   3.135  0.00  0.00    -0.113 NA
BRANCH   6   9
ATOM      9  C1  <0> d           2.391   1.261   5.069  0.00  0.00     0.021 C 
ATOM     10  H1  <0> d           1.968   1.811   5.910  0.00  0.00     0.062 H 
ATOM     11  H2  <0> d           2.842   0.336   5.430  0.00  0.00     0.062 H 
ATOM     12  H3  <0> d           3.153   1.870   4.582  0.00  0.00     0.062 H 
ENDBRANCH   6   9
ENDBRANCH   1   4
BRANCH   1  13
ATOM     13  C4  <0> d          -0.013   1.086   0.008  0.00  0.00     0.025 C 
ATOM     14  H6  <0> d           0.002  -0.004   0.002  0.00  0.00     0.074 H 
ATOM     15  H7  <0> d           1.010   1.463   0.000  0.00  0.00     0.074 H 
BRANCH  13  16
ATOM     16  O1  <0> d          -0.704   1.559  -1.150  0.00  0.00    -0.396 OA
BRANCH  16  17
ATOM     17  C5  <0> d          -0.114   1.152  -2.386  0.00  0.00     0.004 C 
ATOM     18  H8  <0> d          -0.101   0.064  -2.442  0.00  0.00     0.066 H 
ATOM     19  H9  <0> d          -0.697   1.552  -3.216  0.00  0.00     0.066 H 
ATOM     20  H10 <0> d           0.907   1.531  -2.443  0.00  0.00     0.066 H 
ENDBRANCH  16  17
ENDBRANCH  13  16
ENDBRANCH   1  13
TORSDOF 5
