REMARK  2 active torsions:
REMARK  status: ('A' for Active; 'I' for Inactive)
REMARK    1  A    between atoms: C1_1  and  C2_2 
REMARK    2  A    between atoms: N1_8  and  C6_9 
ROOT
ATOM      1  C2  <0> d          -0.834   1.634  -1.180  0.00  0.00     0.011 C 
ATOM      2  H1  <0> d          -1.561   0.892  -1.510  0.00  0.00     0.072 H 
ATOM      3  C3  <0> d          -0.013   1.086   0.008  0.00  0.00    -0.038 C 
ATOM      4  C4  <0> d          -0.812   1.622   1.219  0.00  0.00     0.011 C 
ATOM      5  C5  <0> d          -1.529   2.840   0.679  0.00  0.00     0.219 C 
ATOM      6  O1  <0> d          -2.036   3.706   1.360  0.00  0.00    -0.273 OA
ATOM      7  N1  <0> d          -1.521   2.824  -0.665  0.00  0.00    -0.352 N 
ATOM      8  H5  <0> d           0.002  -0.004   0.002  0.00  0.00     0.036 H 
ATOM      9  H6  <0> d           1.000   1.488   0.001  0.00  0.00     0.036 H 
ATOM     10  H7  <0> d          -1.530   0.877   1.561  0.00  0.00     0.047 H 
ATOM     11  H8  <0> d          -0.137   1.902   2.027  0.00  0.00     0.047 H 
ENDROOT
BRANCH   1  12
ATOM     12  C1  <0> d           0.095   2.017  -2.334  0.00  0.00    -0.057 C 
ATOM     13  H2  <0> d           0.651   1.137  -2.660  0.00  0.00     0.030 H 
ATOM     14  H3  <0> d          -0.496   2.402  -3.164  0.00  0.00     0.030 H 
ATOM     15  H4  <0> d           0.793   2.784  -1.999  0.00  0.00     0.030 H 
ENDBRANCH   1  12
BRANCH   7  16
ATOM     16  C6  <0> d          -2.120   3.862  -1.508  0.00  0.00    -0.016 C 
ATOM     17  H9  <0> d          -3.159   3.606  -1.716  0.00  0.00     0.056 H 
ATOM     18  H10 <0> d          -2.080   4.820  -0.989  0.00  0.00     0.056 H 
ATOM     19  H11 <0> d          -1.569   3.933  -2.445  0.00  0.00     0.056 H 
ENDBRANCH   7  16
TORSDOF 2
