REMARK  2 active torsions:
REMARK  status: ('A' for Active; 'I' for Inactive)
REMARK    1  A    between atoms: C1_1  and  O1_2 
REMARK    2  A    between atoms: O1_2  and  C2_3 
ROOT
ATOM      1  C2  <0> d           0.625  -0.618   1.040  0.00  0.00     0.090 A 
ATOM      2  C3  <0> d           0.699  -2.008   1.115  0.00  0.00    -0.009 A 
ATOM      3  C4  <0> d           1.351  -2.565   2.203  0.00  0.00     0.150 A 
ATOM      4  N1  <0> d           1.877  -1.781   3.127  0.00  0.00    -0.138 NA
ATOM      5  N2  <0> d           1.810  -0.501   3.061  0.00  0.00    -0.159 NA
ATOM      6  C5  <0> d           1.216   0.121   2.062  0.00  0.00     0.056 A 
ATOM      7 Cl1  <0> d           1.476  -4.290   2.352  0.00  0.00    -0.060 Cl
ATOM      8  H4  <0> d           0.262  -2.631   0.349  0.00  0.00     0.092 H 
ATOM      9  H5  <0> d           1.184   1.200   2.039  0.00  0.00     0.121 H 
ENDROOT
BRANCH   1  10
ATOM     10  O1  <0> d           0.002  -0.004   0.002  0.00  0.00    -0.354 OA
BRANCH  10  11
ATOM     11  C1  <0> d          -0.017   1.425   0.010  0.00  0.00     0.010 C 
ATOM     12  H1  <0> d           1.005   1.802   0.002  0.00  0.00     0.066 H 
ATOM     13  H2  <0> d          -0.544   1.786  -0.873  0.00  0.00     0.066 H 
ATOM     14  H3  <0> d          -0.527   1.776   0.907  0.00  0.00     0.066 H 
ENDBRANCH  10  11
ENDBRANCH   1  10
TORSDOF 2
