REMARK  1 active torsions:
REMARK  status: ('A' for Active; 'I' for Inactive)
REMARK    1  A    between atoms: C3_7  and  N5_9 
ROOT
ATOM      1  C1  <0> d           1.582   3.352   0.006  0.00  0.00     0.112 A 
ATOM      2  N1  <0> d           2.886   3.359  -0.006  0.00  0.00    -0.141 NA
ATOM      3  N2  <0> d           3.332   2.151  -0.018  0.00  0.00    -0.121 NA
ATOM      4  C2  <0> d           2.332   1.323  -0.013  0.00  0.00     0.219 A 
ATOM      5  N3  <0> d           1.162   2.038   0.002  0.00  0.00    -0.197 N 
ATOM      6  N4  <0> d          -0.016   1.303   0.009  0.00  0.00    -0.139 NA
ATOM      7  C3  <0> d           0.002  -0.004   0.002  0.00  0.00     0.187 A 
ATOM      8  S1  <0> d           1.753  -0.355  -0.017  0.00  0.00    -0.009 SA
ATOM      9  H1  <0> d           0.942   4.222   0.016  0.00  0.00     0.149 H 
ENDROOT
BRANCH   7  10
ATOM     10  N5  <0> d          -1.063  -0.889   0.007  0.00  0.00    -0.377 N 
ATOM     11  H2  <0> d          -0.878  -1.973  -0.001  0.00  0.00     0.158 HD
ATOM     12  H3  <0> d          -2.095  -0.508   0.018  0.00  0.00     0.158 HD
ENDBRANCH   7  10
TORSDOF 1
