REMARK  8 active torsions:
REMARK  status: ('A' for Active; 'I' for Inactive)
REMARK    1  A    between atoms: C1_1  and  C2_2 
REMARK    2  A    between atoms: C2_2  and  O1_3 
REMARK    3  A    between atoms: O1_3  and  C3_4 
REMARK    4  A    between atoms: C3_4  and  C4_6 
REMARK    5  A    between atoms: C4_6  and  C5_7 
REMARK    6  A    between atoms: C4_6  and  C6_8 
REMARK    7  A    between atoms: C4_6  and  C7_9 
REMARK    8  A    between atoms: C7_9  and  O3_10 
ROOT
ATOM      1  C4  <0> d           0.002  -0.004   0.002  0.00  0.00     0.062 C 
ENDROOT
BRANCH   1   2
ATOM      2  C3  <0> d          -0.018   1.503   0.010  0.00  0.00     0.269 C 
ATOM      3  O2  <0> d           1.020   2.121   0.004  0.00  0.00    -0.264 OA
BRANCH   2   4
ATOM      4  O1  <0> d          -1.190   2.158   0.019  0.00  0.00    -0.321 OA
BRANCH   4   5
ATOM      5  C2  <0> d          -1.133   3.609   0.027  0.00  0.00     0.025 C 
ATOM      6  H4  <0> d          -0.602   3.947   0.916  0.00  0.00     0.074 H 
ATOM      7  H5  <0> d          -0.610   3.957  -0.864  0.00  0.00     0.074 H 
BRANCH   5   8
ATOM      8  C1  <0> d          -2.555   4.174   0.037  0.00  0.00    -0.056 C 
ATOM      9  H1  <0> d          -3.087   3.836  -0.853  0.00  0.00     0.030 H 
ATOM     10  H2  <0> d          -3.078   3.826   0.927  0.00  0.00     0.030 H 
ATOM     11  H3  <0> d          -2.513   5.264   0.043  0.00  0.00     0.030 H 
ENDBRANCH   5   8
ENDBRANCH   4   5
ENDBRANCH   2   4
ENDBRANCH   1   2
BRANCH   1  12
ATOM     12  C5  <0> d          -0.700  -0.530   1.255  0.00  0.00    -0.059 C 
ATOM     13  H6  <0> d          -1.733  -0.181   1.267  0.00  0.00     0.029 H 
ATOM     14  H7  <0> d          -0.685  -1.620   1.249  0.00  0.00     0.029 H 
ATOM     15  H8  <0> d          -0.183  -0.165   2.142  0.00  0.00     0.029 H 
ENDBRANCH   1  12
BRANCH   1  16
ATOM     16  C6  <0> d          -0.724  -0.517  -1.243  0.00  0.00    -0.059 C 
ATOM     17  H9  <0> d          -0.224  -0.142  -2.136  0.00  0.00     0.029 H 
ATOM     18  H10 <0> d          -0.709  -1.607  -1.249  0.00  0.00     0.029 H 
ATOM     19  H11 <0> d          -1.756  -0.168  -1.231  0.00  0.00     0.029 H 
ENDBRANCH   1  16
BRANCH   1  20
ATOM     20  C7  <0> d           1.451  -0.494  -0.015  0.00  0.00     0.032 C 
ATOM     21  H12 <0> d           1.952  -0.119  -0.907  0.00  0.00     0.075 H 
ATOM     22  H13 <0> d           1.969  -0.129   0.873  0.00  0.00     0.075 H 
BRANCH  20  23
ATOM     23  O3  <0> d           1.471  -1.923  -0.022  0.00  0.00    -0.400 OA
ATOM     24  H14 <0> d           2.359  -2.304  -0.033  0.00  0.00     0.209 HD
ENDBRANCH  20  23
ENDBRANCH   1  20
TORSDOF 8
