REMARK  3 active torsions:
REMARK  status: ('A' for Active; 'I' for Inactive)
REMARK    1  A    between atoms: C1_1  and  C2_2 
REMARK    2  A    between atoms: C2_2  and  C3_3 
REMARK    3  A    between atoms: C2_2  and  N1_4 
ROOT
ATOM      1  N1  <0> d           0.779  -0.485   1.154  0.00  0.00     0.096 N 
ATOM      2  C4  <0> d           0.002  -0.004   0.002  0.00  0.00     0.133 C 
ATOM      3  C5  <0> d          -0.019   1.527   0.010  0.00  0.00     0.044 C 
ATOM      4  O1  <0> d           1.325   2.017   0.000  0.00  0.00    -0.388 OA
ATOM      5  C6  <0> d           2.110   1.569   1.109  0.00  0.00     0.044 C 
ATOM      6  C7  <0> d           2.152   0.038   1.111  0.00  0.00     0.133 C 
ATOM      7  H8  <0> d           0.467  -0.361  -0.928  0.00  0.00     0.083 H 
ATOM      8  H9  <0> d          -1.027  -0.387   0.068  0.00  0.00     0.083 H 
ATOM      9  H10 <0> d          -0.551   1.891  -0.881  0.00  0.00     0.077 H 
ATOM     10  H11 <0> d          -0.534   1.881   0.915  0.00  0.00     0.077 H 
ATOM     11  H12 <0> d           3.132   1.965   1.019  0.00  0.00     0.077 H 
ATOM     12  H13 <0> d           1.658   1.927   2.046  0.00  0.00     0.077 H 
ATOM     13  H14 <0> d           2.706  -0.314   1.994  0.00  0.00     0.083 H 
ATOM     14  H15 <0> d           2.652  -0.318   0.199  0.00  0.00     0.083 H 
ENDROOT
BRANCH   1  15
ATOM     15  C2  <0> d           0.776  -1.952   1.215  0.00  0.00     0.128 C 
ATOM     16  H4  <0> d           1.143  -2.321   0.246  0.00  0.00     0.087 H 
BRANCH  15  17
ATOM     17  C1  <0> d           1.693  -2.417   2.349  0.00  0.00    -0.047 C 
ATOM     18  H1  <0> d           2.716  -2.060   2.162  0.00  0.00     0.030 H 
ATOM     19  H2  <0> d           1.690  -3.516   2.394  0.00  0.00     0.030 H 
ATOM     20  H3  <0> d           1.330  -2.010   3.304  0.00  0.00     0.030 H 
ENDBRANCH  15  17
BRANCH  15  21
ATOM     21  C3  <0> d          -0.648  -2.450   1.474  0.00  0.00    -0.047 C 
ATOM     22  H5  <0> d          -1.307  -2.115   0.660  0.00  0.00     0.030 H 
ATOM     23  H6  <0> d          -1.010  -2.042   2.430  0.00  0.00     0.030 H 
ATOM     24  H7  <0> d          -0.650  -3.549   1.520  0.00  0.00     0.030 H 
ENDBRANCH  15  21
ENDBRANCH   1  15
TORSDOF 3
