REMARK  3 active torsions:
REMARK  status: ('A' for Active; 'I' for Inactive)
REMARK    1  A    between atoms: C2_2  and  O3_11 
REMARK    2  A    between atoms: N1_5  and  C5_8 
REMARK    3  A    between atoms: C5_8  and  C6_9 
ROOT
ATOM      1  C1  <0> d          -2.222   1.705  -2.975  0.00  0.00     0.035 C 
ATOM      2  C2  <0> d          -1.670   3.129  -2.736  0.00  0.00     0.059 C 
ATOM      3  H1  <0> d          -2.396   3.746  -2.206  0.00  0.00     0.086 H 
ATOM      4  C3  <0> d          -0.436   2.844  -1.851  0.00  0.00     0.022 C 
ATOM      5  N1  <0> d          -0.721   1.571  -1.179  0.00  0.00    -0.340 N 
ATOM      6  C4  <0> d          -1.713   0.905  -1.796  0.00  0.00     0.222 C 
ATOM      7  O1  <0> d          -2.139  -0.178  -1.455  0.00  0.00    -0.273 OA
ATOM      8  H2  <0> d          -3.312   1.716  -2.990  0.00  0.00     0.051 H 
ATOM      9  H3  <0> d          -1.831   1.295  -3.906  0.00  0.00     0.051 H 
ATOM     10  H4  <0> d          -0.307   3.639  -1.116  0.00  0.00     0.068 H 
ATOM     11  H5  <0> d           0.458   2.753  -2.468  0.00  0.00     0.068 H 
ENDROOT
BRANCH   5  12
ATOM     12  C5  <0> d          -0.013   1.086   0.008  0.00  0.00     0.077 C 
ATOM     13  H6  <0> d           0.002  -0.004   0.002  0.00  0.00     0.081 H 
ATOM     14  H7  <0> d           1.010   1.463   0.000  0.00  0.00     0.081 H 
BRANCH  12  15
ATOM     15  C6  <0> d          -0.718   1.572   1.248  0.00  0.00     0.191 C 
ATOM     16  O2  <0> d          -1.711   2.254   1.150  0.00  0.00    -0.647 OA
ATOM     17  O4  <0> d          -0.243   1.247   2.461  0.00  0.00    -0.647 OA
ENDBRANCH  12  15
ENDBRANCH   5  12
BRANCH   2  18
ATOM     18  O3  <0> d          -1.285   3.742  -3.968  0.00  0.00    -0.393 OA
ATOM     19  H8  <0> d          -2.026   3.940  -4.557  0.00  0.00     0.210 HD
ENDBRANCH   2  18
TORSDOF 3
