REMARK  1 active torsions:
REMARK  status: ('A' for Active; 'I' for Inactive)
REMARK    1  A    between atoms: C3_4  and  C7_9 
ROOT
ATOM      1  C1  <0> d           1.161   2.041   0.002  0.00  0.00    -0.046 A 
ATOM      2  C2  <0> d          -0.016   1.310   0.009  0.00  0.00     0.004 A 
ATOM      3  N1  <0> d           0.002  -0.004   0.002  0.00  0.00    -0.254 NA
ATOM      4  C3  <0> d           1.138  -0.692  -0.013  0.00  0.00     0.134 A 
ATOM      5  C4  <0> d           2.365  -0.036  -0.021  0.00  0.00    -0.028 A 
ATOM      6  C5  <0> d           2.384   1.363  -0.013  0.00  0.00     0.048 A 
ATOM      7  C6  <0> d           3.623   2.082  -0.021  0.00  0.00     0.099 C 
ATOM      8  N2  <0> d           4.605   2.652  -0.027  0.00  0.00    -0.191 NA
ATOM      9  H1  <0> d           1.134   3.120   0.008  0.00  0.00     0.088 H 
ATOM     10  H2  <0> d          -0.963   1.829   0.017  0.00  0.00     0.114 H 
ATOM     11  H3  <0> d           3.288  -0.598  -0.033  0.00  0.00     0.089 H 
ENDROOT
BRANCH   4  12
ATOM     12  C7  <0> d           1.098  -2.172  -0.020  0.00  0.00     0.229 C 
ATOM     13  O1  <0> d           2.132  -2.807  -0.033  0.00  0.00    -0.643 OA
ATOM     14  O2  <0> d          -0.086  -2.814  -0.011  0.00  0.00    -0.643 OA
ENDBRANCH   4  12
TORSDOF 1
