REMARK  0 active torsions:
REMARK  status: ('A' for Active; 'I' for Inactive)
ROOT
ATOM      1  C1  <0> d          -0.017   1.406   0.010  0.00  0.00    -0.056 A 
ATOM      2  C2  <0> d           1.262   1.834  -0.000  0.00  0.00    -0.021 A 
ATOM      3  N1  <0> d           2.100   0.761  -0.014  0.00  0.00    -0.361 N 
ATOM      4  H1  <0> d           3.069   0.802  -0.023  0.00  0.00     0.165 HD
ATOM      5  C3  <0> d           1.348  -0.391  -0.013  0.00  0.00     0.111 A 
ATOM      6  C4  <0> d           0.002  -0.004   0.002  0.00  0.00    -0.001 A 
ATOM      7  C5  <0> d          -1.026  -1.043   0.006  0.00  0.00    -0.056 A 
ATOM      8  C6  <0> d          -0.645  -2.334  -0.004  0.00  0.00    -0.019 A 
ATOM      9  N2  <0> d           0.675  -2.683  -0.019  0.00  0.00    -0.332 N 
ATOM     10  H2  <0> d           0.911  -3.623  -0.026  0.00  0.00     0.168 HD
ATOM     11  C7  <0> d           1.658  -1.764  -0.023  0.00  0.00     0.272 A 
ATOM     12  O1  <0> d           2.824  -2.123  -0.036  0.00  0.00    -0.266 OA
ATOM     13  H3  <0> d          -0.898   2.031   0.026  0.00  0.00     0.086 H 
ATOM     14  H4  <0> d           1.573   2.869   0.002  0.00  0.00     0.111 H 
ATOM     15  H5  <0> d          -2.073  -0.779   0.018  0.00  0.00     0.086 H 
ATOM     16  H6  <0> d          -1.398  -3.109  -0.001  0.00  0.00     0.111 H 
ENDROOT
TORSDOF 0
