REMARK  4 active torsions:
REMARK  status: ('A' for Active; 'I' for Inactive)
REMARK    1  A    between atoms: C1_1  and  C2_2 
REMARK    2  A    between atoms: C1_1  and  C4_9 
REMARK    3  A    between atoms: C2_2  and  C3_4 
REMARK    4  A    between atoms: C2_2  and  N1_8 
ROOT
ATOM      1  C2  <0> d           0.002  -0.004   0.002  0.00  0.00     0.231 C 
ATOM      2  H1  <0> d           0.588  -0.355  -0.847  0.00  0.00     0.102 H 
ENDROOT
BRANCH   1   3
ATOM      3  C1  <0> d          -0.019   1.526   0.010  0.00  0.00     0.053 C 
ATOM      4  H2  <0> d          -0.546   1.887  -0.873  0.00  0.00     0.052 H 
ATOM      5  H3  <0> d          -0.529   1.877   0.907  0.00  0.00     0.052 H 
BRANCH   3   6
ATOM      6  C4  <0> d           1.395   2.047  -0.000  0.00  0.00     0.174 C 
ATOM      7  O1  <0> d           2.333   1.268  -0.013  0.00  0.00    -0.648 OA
ATOM      8  O2  <0> d           1.602   3.249   0.004  0.00  0.00    -0.648 OA
ENDBRANCH   3   6
ENDBRANCH   1   3
BRANCH   1   9
ATOM      9  C3  <0> d          -1.429  -0.533  -0.113  0.00  0.00     0.418 C 
ATOM     10  F1  <0> d          -2.004  -0.068  -1.300  0.00  0.00    -0.169 F 
ATOM     11  F2  <0> d          -1.410  -1.932  -0.121  0.00  0.00    -0.169 F 
ATOM     12  F3  <0> d          -2.182  -0.083   0.977  0.00  0.00    -0.169 F 
ENDBRANCH   1   9
BRANCH   1  13
ATOM     13  N1  <0> d           0.606  -0.492   1.249  0.00  0.00     0.092 N 
ATOM     14  H4  <0> d           0.080  -0.180   2.052  0.00  0.00     0.313 HD
ATOM     15  H5  <0> d           0.690  -1.498   1.240  0.00  0.00     0.313 HD
ENDBRANCH   1  13
TORSDOF 4
