REMARK  1 active torsions:
REMARK  status: ('A' for Active; 'I' for Inactive)
REMARK    1  A    between atoms: C2_2  and  N3_9 
ROOT
ATOM      1  C1  <0> d          -0.017   1.385   0.010  0.00  0.00     0.006 A 
ATOM      2  C2  <0> d           1.199   2.064   0.002  0.00  0.00     0.084 A 
ATOM      3  N1  <0> d           2.331   1.364  -0.013  0.00  0.00    -0.311 N 
ATOM      4  C3  <0> d           2.309   0.041  -0.018  0.00  0.00     0.259 A 
ATOM      5  N2  <0> d           1.172  -0.636  -0.011  0.00  0.00    -0.298 N 
ATOM      6  C4  <0> d           0.002  -0.004   0.002  0.00  0.00     0.185 A 
ATOM      7  O1  <0> d          -1.157  -0.706   0.009  0.00  0.00    -0.172 OA
ATOM      8  O2  <0> d           3.481  -0.638  -0.032  0.00  0.00    -0.151 OA
ATOM      9  H1  <0> d          -0.952   1.925   0.022  0.00  0.00     0.095 H 
ATOM     10  H2  <0> d           1.193  -1.636  -0.015  0.00  0.00     0.171 HD
ATOM     11  H3  <0> d           4.347  -0.139  -0.038  0.00  0.00     0.170 HD
ENDROOT
BRANCH   2  12
ATOM     12  N3  <0> d           1.230   3.449   0.008  0.00  0.00    -0.288 NA
ATOM     13  H4  <0> d           0.759   3.797  -0.802  0.00  0.00     0.125 HD
ATOM     14  H5  <0> d           2.081   3.916   0.003  0.00  0.00     0.125 HD
ENDBRANCH   2  12
TORSDOF 1
