REMARK  0 active torsions:
REMARK  status: ('A' for Active; 'I' for Inactive)
ROOT
ATOM      1  C1  <0> d          -0.013   1.086   0.008  0.00  0.00    -0.064 C 
ATOM      2  C2  <0> d          -0.722   1.576   1.272  0.00  0.00    -0.061 C 
ATOM      3  C3  <0> d          -2.190   1.131   1.231  0.00  0.00    -0.047 C 
ATOM      4  H1  <0> d          -2.708   1.296   2.176  0.00  0.00     0.040 H 
ATOM      5  C4  <0> d          -2.847   1.887   0.044  0.00  0.00    -0.052 C 
ATOM      6  C5  <0> d          -2.218   1.147  -1.166  0.00  0.00     0.004 C 
ATOM      7  H2  <0> d          -2.739   1.357  -1.993  0.00  0.00     0.051 H 
ATOM      8  C6  <0> d          -0.746   1.589  -1.237  0.00  0.00    -0.055 C 
ATOM      9  C7  <0> d          -2.235  -0.316  -0.749  0.00  0.00     0.131 C 
ATOM     10  O1  <0> d          -2.263  -1.274  -1.485  0.00  0.00    -0.298 OA
ATOM     11  C8  <0> d          -2.212  -0.344   0.766  0.00  0.00    -0.006 C 
ATOM     12  H3  <0> d           0.002  -0.004   0.002  0.00  0.00     0.033 H 
ATOM     13  H4  <0> d           1.011   1.460   0.000  0.00  0.00     0.033 H 
ATOM     14  H5  <0> d          -0.239   1.146   2.151  0.00  0.00     0.033 H 
ATOM     15  H6  <0> d          -0.670   2.663   1.321  0.00  0.00     0.033 H 
ATOM     16  H7  <0> d          -2.568   2.940   0.048  0.00  0.00     0.034 H 
ATOM     17  H8  <0> d          -3.930   1.770   0.055  0.00  0.00     0.034 H 
ATOM     18  H9  <0> d          -0.693   2.677  -1.276  0.00  0.00     0.034 H 
ATOM     19  H10 <0> d          -0.280   1.169  -2.129  0.00  0.00     0.034 H 
ATOM     20  H11 <0> d          -1.398  -0.813   1.107  0.00  0.00     0.044 H 
ATOM     21  H12 <0> d          -3.105  -0.842   1.145  0.00  0.00     0.044 H 
ENDROOT
TORSDOF 0
