REMARK  2 active torsions:
REMARK  status: ('A' for Active; 'I' for Inactive)
REMARK    1  A    between atoms: C4_5  and  C6_8 
REMARK    2  A    between atoms: C6_8  and  O2_9 
ROOT
ATOM      1  C1  <0> d          -2.851  -2.587   0.079  0.00  0.00    -0.061 C 
ATOM      2  C2  <0> d          -3.512  -2.112  -1.218  0.00  0.00    -0.045 C 
ATOM      3  C3  <0> d          -3.451  -0.583  -1.283  0.00  0.00     0.020 C 
ATOM      4  O1  <0> d          -2.089  -0.158  -1.200  0.00  0.00    -0.384 OA
ATOM      5  C4  <0> d          -1.433  -0.534   0.013  0.00  0.00     0.058 C 
ATOM      6  H1  <0> d          -1.970  -0.111   0.862  0.00  0.00     0.086 H 
ATOM      7  C5  <0> d          -1.413  -2.060   0.130  0.00  0.00    -0.039 C 
ATOM      8  H2  <0> d          -2.841  -3.676   0.106  0.00  0.00     0.033 H 
ATOM      9  H3  <0> d          -3.409  -2.206   0.935  0.00  0.00     0.033 H 
ATOM     10  H4  <0> d          -2.983  -2.534  -2.072  0.00  0.00     0.036 H 
ATOM     11  H5  <0> d          -4.552  -2.437  -1.237  0.00  0.00     0.036 H 
ATOM     12  H6  <0> d          -3.882  -0.242  -2.224  0.00  0.00     0.074 H 
ATOM     13  H7  <0> d          -4.014  -0.161  -0.451  0.00  0.00     0.074 H 
ATOM     14  H8  <0> d          -0.842  -2.481  -0.697  0.00  0.00     0.036 H 
ATOM     15  H9  <0> d          -0.952  -2.347   1.075  0.00  0.00     0.036 H 
ENDROOT
BRANCH   5  16
ATOM     16  C6  <0> d           0.002  -0.004   0.002  0.00  0.00     0.041 C 
ATOM     17  H10 <0> d           0.512  -0.356  -0.895  0.00  0.00     0.077 H 
ATOM     18  H11 <0> d           0.529  -0.365   0.885  0.00  0.00     0.077 H 
BRANCH  16  19
ATOM     19  O2  <0> d          -0.017   1.425   0.010  0.00  0.00    -0.398 OA
ATOM     20  H12 <0> d           0.861   1.830   0.004  0.00  0.00     0.209 HD
ENDBRANCH  16  19
ENDBRANCH   5  16
TORSDOF 2
