REMARK  7 active torsions:
REMARK  status: ('A' for Active; 'I' for Inactive)
REMARK    1  A    between atoms: C1_1  and  C2_2 
REMARK    2  A    between atoms: C2_2  and  O1_3 
REMARK    3  A    between atoms: O1_3  and  C3_4 
REMARK    4  A    between atoms: C3_4  and  C4_5 
REMARK    5  A    between atoms: C3_4  and  O2_8 
REMARK    6  A    between atoms: O2_8  and  C6_9 
REMARK    7  A    between atoms: C6_9  and  C7_10 
ROOT
ATOM      1  C3  <0> d          -0.018   1.468   0.010  0.00  0.00     0.253 C 
ATOM      2  C5  <0> d           0.002  -0.004   0.002  0.00  0.00     0.128 C 
ATOM      3  N1  <0> d           0.018  -1.140  -0.004  0.00  0.00    -0.191 NA
ENDROOT
BRANCH   1   4
ATOM      4  O1  <0> d           1.323   1.962  -0.000  0.00  0.00    -0.344 OA
BRANCH   4   5
ATOM      5  C2  <0> d           1.416   3.388   0.007  0.00  0.00     0.021 C 
ATOM      6  H4  <0> d           0.919   3.789  -0.876  0.00  0.00     0.073 H 
ATOM      7  H5  <0> d           0.936   3.780   0.903  0.00  0.00     0.073 H 
BRANCH   5   8
ATOM      8  C1  <0> d           2.889   3.803  -0.005  0.00  0.00    -0.056 C 
ATOM      9  H1  <0> d           3.386   3.402   0.878  0.00  0.00     0.030 H 
ATOM     10  H2  <0> d           3.369   3.412  -0.902  0.00  0.00     0.030 H 
ATOM     11  H3  <0> d           2.960   4.891   0.000  0.00  0.00     0.030 H 
ENDBRANCH   5   8
ENDBRANCH   4   5
ENDBRANCH   1   4
BRANCH   1  12
ATOM     12  C4  <0> d          -0.734   1.961   1.269  0.00  0.00    -0.012 C 
ATOM     13  H6  <0> d          -0.207   1.600   2.152  0.00  0.00     0.036 H 
ATOM     14  H7  <0> d          -0.749   3.051   1.275  0.00  0.00     0.036 H 
ATOM     15  H8  <0> d          -1.757   1.584   1.277  0.00  0.00     0.036 H 
ENDBRANCH   1  12
BRANCH   1  16
ATOM     16  O2  <0> d          -0.709   1.941  -1.148  0.00  0.00    -0.344 OA
BRANCH  16  17
ATOM     17  C6  <0> d          -0.119   1.534  -2.384  0.00  0.00     0.021 C 
ATOM     18  H9  <0> d           0.902   1.913  -2.441  0.00  0.00     0.073 H 
ATOM     19  H10 <0> d          -0.106   0.446  -2.439  0.00  0.00     0.073 H 
BRANCH  17  20
ATOM     20  C7  <0> d          -0.937   2.095  -3.549  0.00  0.00    -0.056 C 
ATOM     21  H11 <0> d          -0.487   1.785  -4.492  0.00  0.00     0.030 H 
ATOM     22  H12 <0> d          -1.958   1.716  -3.491  0.00  0.00     0.030 H 
ATOM     23  H13 <0> d          -0.950   3.183  -3.493  0.00  0.00     0.030 H 
ENDBRANCH  17  20
ENDBRANCH  16  17
ENDBRANCH   1  16
TORSDOF 7
