REMARK  4 active torsions:
REMARK  status: ('A' for Active; 'I' for Inactive)
REMARK    1  A    between atoms: C1_1  and  C2_2 
REMARK    2  A    between atoms: C2_2  and  C3_3 
REMARK    3  A    between atoms: C3_3  and  C4_4 
REMARK    4  A    between atoms: C4_4  and  C5_5 
ROOT
ATOM      1  C5  <0> d           1.194  -2.998  -1.358  0.00  0.00    -0.057 A 
ATOM      2  C6  <0> d           2.405  -2.567  -1.865  0.00  0.00    -0.077 A 
ATOM      3  C7  <0> d           3.485  -3.430  -1.905  0.00  0.00    -0.082 A 
ATOM      4  C8  <0> d           3.352  -4.724  -1.438  0.00  0.00    -0.083 A 
ATOM      5  C9  <0> d           2.141  -5.155  -0.930  0.00  0.00    -0.082 A 
ATOM      6  C10 <0> d           1.063  -4.291  -0.886  0.00  0.00    -0.077 A 
ATOM      7  H6  <0> d           2.509  -1.556  -2.230  0.00  0.00     0.084 H 
ATOM      8  H7  <0> d           4.431  -3.093  -2.302  0.00  0.00     0.083 H 
ATOM      9  H8  <0> d           4.195  -5.399  -1.470  0.00  0.00     0.083 H 
ATOM     10  H9  <0> d           2.038  -6.166  -0.566  0.00  0.00     0.083 H 
ATOM     11  H10 <0> d           0.118  -4.627  -0.486  0.00  0.00     0.084 H 
ENDROOT
BRANCH   1  12
ATOM     12  C4  <0> d           0.018  -2.057  -1.314  0.00  0.00    -0.028 C 
ATOM     13  H4  <0> d          -0.907  -2.627  -1.406  0.00  0.00     0.042 H 
ATOM     14  H5  <0> d           0.090  -1.347  -2.138  0.00  0.00     0.042 H 
BRANCH  12  15
ATOM     15  C3  <0> d           0.020  -1.311  -0.005  0.00  0.00     0.011 C 
ATOM     16  H3  <0> d           0.036  -1.856   0.927  0.00  0.00     0.060 H 
BRANCH  15  17
ATOM     17  C2  <0> d           0.002  -0.004   0.002  0.00  0.00    -0.176 C 
BRANCH  17  18
ATOM     18  C1  <0> d          -0.016   1.303   0.009  0.00  0.00    -0.011 C 
ATOM     19  H1  <0> d           0.912   1.855   0.003  0.00  0.00     0.051 H 
ATOM     20  H2  <0> d          -0.958   1.830   0.017  0.00  0.00     0.051 H 
ENDBRANCH  17  18
ENDBRANCH  15  17
ENDBRANCH  12  15
ENDBRANCH   1  12
TORSDOF 4
