REMARK  7 active torsions:
REMARK  status: ('A' for Active; 'I' for Inactive)
REMARK    1  A    between atoms: C1_1  and  C2_2 
REMARK    2  A    between atoms: C2_2  and  C3_3 
REMARK    3  A    between atoms: C2_2  and  C4_4 
REMARK    4  A    between atoms: C2_2  and  C5_5 
REMARK    5  A    between atoms: C5_5  and  C6_6 
REMARK       I    between atoms: C6_6  and  N1_8 
REMARK    6  A    between atoms: N1_8  and  C7_9 
REMARK    7  A    between atoms: C7_9  and  C8_10 
ROOT
ATOM      1  C5  <0> d           0.002  -0.004   0.002  0.00  0.00     0.015 C 
ATOM      2  H10 <0> d          -1.020  -0.381   0.010  0.00  0.00     0.048 H 
ATOM      3  H11 <0> d           0.512  -0.356  -0.895  0.00  0.00     0.048 H 
ENDROOT
BRANCH   1   4
ATOM      4  C2  <0> d          -0.019   1.526   0.010  0.00  0.00    -0.043 C 
BRANCH   4   5
ATOM      5  C1  <0> d           1.417   2.055  -0.000  0.00  0.00    -0.069 C 
ATOM      6  H1  <0> d           1.927   1.704  -0.897  0.00  0.00     0.028 H 
ATOM      7  H2  <0> d           1.402   3.145   0.006  0.00  0.00     0.028 H 
ATOM      8  H3  <0> d           1.944   1.694   0.883  0.00  0.00     0.028 H 
ENDBRANCH   4   5
BRANCH   4   9
ATOM      9  C3  <0> d          -0.759   2.033  -1.229  0.00  0.00    -0.069 C 
ATOM     10  H4  <0> d          -1.781   1.655  -1.221  0.00  0.00     0.028 H 
ATOM     11  H5  <0> d          -0.773   3.123  -1.223  0.00  0.00     0.028 H 
ATOM     12  H6  <0> d          -0.248   1.681  -2.126  0.00  0.00     0.028 H 
ENDBRANCH   4   9
BRANCH   4  13
ATOM     13  C4  <0> d          -0.735   2.019   1.269  0.00  0.00    -0.069 C 
ATOM     14  H7  <0> d          -0.208   1.658   2.152  0.00  0.00     0.028 H 
ATOM     15  H8  <0> d          -0.750   3.109   1.275  0.00  0.00     0.028 H 
ATOM     16  H9  <0> d          -1.757   1.642   1.277  0.00  0.00     0.028 H 
ENDBRANCH   4  13
ENDBRANCH   1   4
BRANCH   1  17
ATOM     17  C6  <0> d           0.731  -0.503   1.223  0.00  0.00     0.218 C 
ATOM     18  O1  <0> d           1.189   0.287   2.021  0.00  0.00    -0.274 OA
ATOM     19  N1  <0> d           0.874  -1.828   1.428  0.00  0.00    -0.358 N 
ATOM     20  H12 <0> d           0.508  -2.459   0.789  0.00  0.00     0.162 HD
BRANCH  19  21
ATOM     21  C7  <0> d           1.583  -2.313   2.615  0.00  0.00     0.009 C 
ATOM     22  H13 <0> d           2.605  -1.936   2.607  0.00  0.00     0.070 H 
ATOM     23  H14 <0> d           1.072  -1.962   3.511  0.00  0.00     0.070 H 
BRANCH  21  24
ATOM     24  C8  <0> d           1.603  -3.820   2.606  0.00  0.00    -0.095 C 
ATOM     25  C9  <0> d           2.743  -4.460   2.691  0.00  0.00    -0.123 C 
ATOM     26  H16 <0> d           3.668  -3.908   2.767  0.00  0.00     0.066 H 
ATOM     27  H17 <0> d           2.758  -5.540   2.685  0.00  0.00     0.066 H 
ATOM     28  H15 <0> d           0.678  -4.372   2.531  0.00  0.00     0.078 H 
ENDBRANCH  21  24
ENDBRANCH  19  21
ENDBRANCH   1  17
TORSDOF 7
