REMARK  3 active torsions:
REMARK  status: ('A' for Active; 'I' for Inactive)
REMARK    1  A    between atoms: C3_3  and  C4_4 
REMARK    2  A    between atoms: C3_3  and  C5_6 
REMARK    3  A    between atoms: C4_4  and  O1_5 
ROOT
ATOM      1  C1  <0> d          -0.019   1.526   0.010  0.00  0.00    -0.047 A 
ATOM      2  C2  <0> d           1.317   0.779  -0.006  0.00  0.00    -0.047 A 
ATOM      3  C3  <0> d           0.002  -0.004   0.002  0.00  0.00     0.079 A 
ATOM      4  H1  <0> d          -0.307   2.020   0.938  0.00  0.00     0.034 H 
ATOM      5  H2  <0> d          -0.325   2.030  -0.906  0.00  0.00     0.034 H 
ATOM      6  H3  <0> d           1.889   0.792  -0.934  0.00  0.00     0.034 H 
ATOM      7  H4  <0> d           1.906   0.782   0.910  0.00  0.00     0.034 H 
ENDROOT
BRANCH   3   8
ATOM      8  C4  <0> d          -0.408  -0.709  -1.292  0.00  0.00     0.032 C 
ATOM      9  H5  <0> d          -1.432  -0.433  -1.547  0.00  0.00     0.075 H 
ATOM     10  H6  <0> d           0.261  -0.407  -2.098  0.00  0.00     0.075 H 
BRANCH   8  11
ATOM     11  O1  <0> d          -0.328  -2.124  -1.110  0.00  0.00    -0.400 OA
ATOM     12  H7  <0> d          -0.574  -2.636  -1.893  0.00  0.00     0.209 HD
ENDBRANCH   8  11
ENDBRANCH   3   8
BRANCH   3  13
ATOM     13  C5  <0> d          -0.384  -0.723   1.296  0.00  0.00     0.397 C 
ATOM     14  F1  <0> d          -1.691  -0.373   1.652  0.00  0.00    -0.170 F 
ATOM     15  F2  <0> d          -0.308  -2.106   1.102  0.00  0.00    -0.170 F 
ATOM     16  F3  <0> d           0.494  -0.347   2.318  0.00  0.00    -0.170 F 
ENDBRANCH   3  13
TORSDOF 3
