REMARK  0 active torsions:
REMARK  status: ('A' for Active; 'I' for Inactive)
ROOT
ATOM      1  C1  <0> d          -0.013   1.076   0.008  0.00  0.00     0.019 A 
ATOM      2  C2  <0> d           1.157   1.756   0.000  0.00  0.00     0.025 A 
ATOM      3  N1  <0> d           1.144   3.116   0.008  0.00  0.00    -0.203 N 
ATOM      4  C3  <0> d          -0.057   3.778   0.023  0.00  0.00     0.193 A 
ATOM      5  C4  <0> d          -1.246   3.025   0.030  0.00  0.00     0.050 A 
ATOM      6  N2  <0> d          -1.183   1.715   0.017  0.00  0.00    -0.268 NA
ATOM      7  N3  <0> d           0.224   5.070   0.027  0.00  0.00    -0.107 NA
ATOM      8  N4  <0> d           1.498   5.249   0.016  0.00  0.00    -0.022 NA
ATOM      9  N5  <0> d           2.120   4.118   0.004  0.00  0.00    -0.039 NA
ATOM     10  H1  <0> d           0.002  -0.004   0.002  0.00  0.00     0.117 H 
ATOM     11  H2  <0> d           2.095   1.222  -0.011  0.00  0.00     0.117 H 
ATOM     12  H3  <0> d          -2.204   3.524   0.042  0.00  0.00     0.120 H 
ENDROOT
TORSDOF 0
