REMARK  3 active torsions:
REMARK  status: ('A' for Active; 'I' for Inactive)
REMARK    1  A    between atoms: C1_1  and  N1_2 
REMARK    2  A    between atoms: N1_2  and  C2_3 
REMARK    3  A    between atoms: N1_2  and  C3_4 
ROOT
ATOM      1  C3  <0> d          -0.018   1.465   0.010  0.00  0.00     0.245 C 
ATOM      2  C4  <0> d          -0.699   1.991  -1.270  0.00  0.00    -0.018 C 
ATOM      3  C5  <0> d           0.111   3.259  -1.637  0.00  0.00    -0.062 C 
ATOM      4  C6  <0> d           1.563   2.851  -1.287  0.00  0.00    -0.062 C 
ATOM      5  C7  <0> d           1.421   2.011  -0.001  0.00  0.00    -0.018 C 
ATOM      6  C8  <0> d          -0.734   1.952   1.200  0.00  0.00     0.102 C 
ATOM      7  N2  <0> d          -1.286   2.329   2.119  0.00  0.00    -0.194 NA
ATOM      8  H7  <0> d          -0.644   1.224  -2.057  0.00  0.00     0.038 H 
ATOM      9  H8  <0> d          -1.753   2.222  -1.056  0.00  0.00     0.038 H 
ATOM     10  H9  <0> d          -0.022   3.482  -2.706  0.00  0.00     0.033 H 
ATOM     11  H10 <0> d          -0.248   4.109  -1.038  0.00  0.00     0.033 H 
ATOM     12  H11 <0> d           1.990   2.267  -2.116  0.00  0.00     0.033 H 
ATOM     13  H12 <0> d           2.169   3.755  -1.125  0.00  0.00     0.033 H 
ATOM     14  H13 <0> d           1.583   2.632   0.893  0.00  0.00     0.038 H 
ATOM     15  H14 <0> d           2.132   1.172   0.001  0.00  0.00     0.038 H 
ENDROOT
BRANCH   1  16
ATOM     16  N1  <0> d           0.002  -0.004   0.002  0.00  0.00     0.103 N 
BRANCH  16  17
ATOM     17  C1  <0> d          -1.362  -0.549   0.012  0.00  0.00     0.097 C 
ATOM     18  H1  <0> d          -1.909  -0.152   0.880  0.00  0.00     0.071 H 
ATOM     19  H2  <0> d          -1.318  -1.646   0.077  0.00  0.00     0.071 H 
ATOM     20  H3  <0> d          -1.880  -0.257  -0.913  0.00  0.00     0.071 H 
ENDBRANCH  16  17
BRANCH  16  21
ATOM     21  C2  <0> d           0.764  -0.514  -1.146  0.00  0.00     0.097 C 
ATOM     22  H4  <0> d           1.779  -0.091  -1.129  0.00  0.00     0.071 H 
ATOM     23  H5  <0> d           0.261  -0.222  -2.079  0.00  0.00     0.071 H 
ATOM     24  H6  <0> d           0.823  -1.611  -1.089  0.00  0.00     0.071 H 
ENDBRANCH  16  21
ENDBRANCH   1  16
TORSDOF 3
