REMARK  4 active torsions:
REMARK  status: ('A' for Active; 'I' for Inactive)
REMARK    1  A    between atoms: C1_1  and  C2_2 
REMARK    2  A    between atoms: C2_2  and  S1_3 
REMARK    3  A    between atoms: S1_3  and  C3_4 
REMARK    4  A    between atoms: N2_8  and  C6_9 
ROOT
ATOM      1  C3  <0> d          -0.016   1.357   0.009  0.00  0.00     0.167 A 
ATOM      2  N1  <0> d           1.223   1.788  -0.000  0.00  0.00    -0.235 NA
ATOM      3  C4  <0> d           2.059   0.736  -0.014  0.00  0.00     0.020 A 
ATOM      4  C5  <0> d           1.324  -0.389  -0.013  0.00  0.00    -0.002 A 
ATOM      5  N2  <0> d           0.002  -0.004   0.002  0.00  0.00    -0.339 N 
ATOM      6  H6  <0> d           3.138   0.786  -0.024  0.00  0.00     0.117 H 
ATOM      7  H7  <0> d           1.699  -1.401  -0.022  0.00  0.00     0.113 H 
ENDROOT
BRANCH   1   8
ATOM      8  S1  <0> d          -1.459   2.368   0.022  0.00  0.00    -0.092 SA
BRANCH   8   9
ATOM      9  C2  <0> d          -0.694   4.008   0.027  0.00  0.00    -0.019 C 
ATOM     10  H4  <0> d          -0.070   4.115   0.915  0.00  0.00     0.049 H 
ATOM     11  H5  <0> d          -0.079   4.125  -0.865  0.00  0.00     0.049 H 
BRANCH   9  12
ATOM     12  C1  <0> d          -1.785   5.080   0.038  0.00  0.00    -0.068 C 
ATOM     13  H1  <0> d          -2.409   4.973  -0.849  0.00  0.00     0.028 H 
ATOM     14  H2  <0> d          -2.400   4.964   0.931  0.00  0.00     0.028 H 
ATOM     15  H3  <0> d          -1.324   6.068   0.042  0.00  0.00     0.028 H 
ENDBRANCH   9  12
ENDBRANCH   8   9
ENDBRANCH   1   8
BRANCH   5  16
ATOM     16  C6  <0> d          -1.164  -0.891   0.009  0.00  0.00    -0.013 C 
ATOM     17  H8  <0> d          -1.463  -1.106  -1.017  0.00  0.00     0.057 H 
ATOM     18  H9  <0> d          -0.908  -1.822   0.515  0.00  0.00     0.057 H 
ATOM     19  H10 <0> d          -1.987  -0.406   0.533  0.00  0.00     0.057 H 
ENDBRANCH   5  16
TORSDOF 4
