REMARK  2 active torsions:
REMARK  status: ('A' for Active; 'I' for Inactive)
REMARK    1  A    between atoms: C1_1  and  C2_2 
REMARK    2  A    between atoms: C1_1  and  N1_6 
ROOT
ATOM      1  C1  <0> d          -0.741   2.455   1.272  0.00  0.00     0.178 C 
ATOM      2  H1  <0> d          -1.773   2.074   1.279  0.00  0.00     0.089 H 
ATOM      3  H2  <0> d          -0.209   2.091   2.163  0.00  0.00     0.089 H 
ENDROOT
BRANCH   1   4
ATOM      4  C2  <0> d          -0.025   1.962   0.013  0.00  0.00     0.325 C 
ATOM      5  F1  <0> d           1.288   2.446   0.003  0.00  0.00    -0.191 F 
ATOM      6  F2  <0> d          -0.701   2.425  -1.121  0.00  0.00    -0.191 F 
ATOM      7 Br1  <0> d           0.002  -0.004   0.002  0.00  0.00    -0.009 Br
ENDBRANCH   1   4
BRANCH   1   8
ATOM      8  N1  <0> d          -0.761   3.924   1.280  0.00  0.00     0.085 N 
ATOM      9  H3  <0> d          -1.276   4.279   2.185  0.00  0.00     0.312 HD
ATOM     10  H4  <0> d           0.271   4.305   1.272  0.00  0.00     0.312 HD
ENDBRANCH   1   8
TORSDOF 2
