REMARK  1 active torsions:
REMARK  status: ('A' for Active; 'I' for Inactive)
REMARK    1  A    between atoms: C3_3  and  C5_6 
ROOT
ATOM      1  C1  <0> d          -0.016   1.344   0.009  0.00  0.00    -0.059 A 
ATOM      2  C2  <0> d           1.324   1.776  -0.001  0.00  0.00    -0.045 A 
ATOM      3  C3  <0> d           2.097   0.654  -0.015  0.00  0.00     0.120 A 
ATOM      4  O1  <0> d           1.279  -0.418  -0.012  0.00  0.00    -0.319 OA
ATOM      5  C4  <0> d           0.002  -0.004   0.002  0.00  0.00     0.019 A 
ATOM      6  H2  <0> d          -0.893   1.974   0.025  0.00  0.00     0.086 H 
ATOM      7  H3  <0> d           1.671   2.798   0.001  0.00  0.00     0.088 H 
ATOM      8  H4  <0> d          -0.867  -0.645   0.007  0.00  0.00     0.123 H 
ENDROOT
BRANCH   3   9
ATOM      9  C5  <0> d           3.568   0.618  -0.029  0.00  0.00     0.161 A 
ATOM     10  N2  <0> d           4.365   1.667  -0.033  0.00  0.00    -0.239 NA
ATOM     11  C7  <0> d           5.638   1.253  -0.045  0.00  0.00     0.019 A 
ATOM     12  C6  <0> d           5.648  -0.095  -0.058  0.00  0.00    -0.004 A 
ATOM     13  H6  <0> d           6.509   1.892  -0.048  0.00  0.00     0.117 H 
ATOM     14  N1  <0> d           4.341  -0.508  -0.048  0.00  0.00    -0.347 N 
ATOM     15  H5  <0> d           6.522  -0.730  -0.073  0.00  0.00     0.113 H 
ATOM     16  H1  <0> d           4.026  -1.425  -0.054  0.00  0.00     0.167 HD
ENDBRANCH   3   9
TORSDOF 1
