REMARK  3 active torsions:
REMARK  status: ('A' for Active; 'I' for Inactive)
REMARK    1  A    between atoms: C1_1  and  O1_2 
REMARK    2  A    between atoms: O1_2  and  C2_3 
REMARK    3  A    between atoms: C4_6  and  N3_9 
ROOT
ATOM      1  C2  <0> d          -3.559   2.950   0.036  0.00  0.00     0.104 A 
ATOM      2  C3  <0> d          -3.521   1.561   0.028  0.00  0.00     0.054 A 
ATOM      3  N1  <0> d          -2.349   0.948   0.018  0.00  0.00    -0.073 NA
ATOM      4  C4  <0> d          -1.221   1.643   0.017  0.00  0.00     0.719 A 
ATOM      5  N2  <0> d          -1.220   2.967   0.029  0.00  0.00    -0.073 NA
ATOM      6  C5  <0> d          -2.355   3.646   0.034  0.00  0.00     0.054 A 
ATOM      7  H4  <0> d          -4.437   0.989   0.029  0.00  0.00     0.120 H 
ATOM      8  H5  <0> d          -2.347   4.726   0.040  0.00  0.00     0.120 H 
ENDROOT
BRANCH   1   9
ATOM      9  O1  <0> d          -4.746   3.615   0.045  0.00  0.00    -0.353 OA
BRANCH   9  10
ATOM     10  C1  <0> d          -4.691   5.042   0.053  0.00  0.00     0.010 C 
ATOM     11  H1  <0> d          -4.159   5.380   0.943  0.00  0.00     0.066 H 
ATOM     12  H2  <0> d          -4.167   5.391  -0.837  0.00  0.00     0.066 H 
ATOM     13  H3  <0> d          -5.704   5.445   0.060  0.00  0.00     0.066 H 
ENDBRANCH   9  10
ENDBRANCH   1   9
BRANCH   4  14
ATOM     14  N3  <0> d          -0.011   0.966   0.007  0.00  0.00    -0.231 N 
ATOM     15  H6  <0> d           0.002  -0.004   0.002  0.00  0.00     0.174 HD
ATOM     16  H7  <0> d           0.822   1.462   0.002  0.00  0.00     0.174 HD
ENDBRANCH   4  14
TORSDOF 3
