REMARK  1 active torsions:
REMARK  status: ('A' for Active; 'I' for Inactive)
REMARK    1  A    between atoms: C3_3  and  C5_6 
ROOT
ATOM      1  C1  <0> d          -0.016   1.344   0.009  0.00  0.00    -0.059 A 
ATOM      2  C2  <0> d           1.324   1.776  -0.001  0.00  0.00    -0.044 A 
ATOM      3  C3  <0> d           2.097   0.654  -0.015  0.00  0.00     0.130 A 
ATOM      4  O1  <0> d           1.280  -0.418  -0.012  0.00  0.00    -0.318 OA
ATOM      5  C4  <0> d           0.002  -0.004   0.002  0.00  0.00     0.019 A 
ATOM      6  H1  <0> d          -0.893   1.974   0.025  0.00  0.00     0.086 H 
ATOM      7  H2  <0> d           1.671   2.798   0.001  0.00  0.00     0.088 H 
ATOM      8  H3  <0> d          -0.867  -0.645   0.007  0.00  0.00     0.123 H 
ENDROOT
BRANCH   3   9
ATOM      9  C5  <0> d           3.567   0.618  -0.029  0.00  0.00     0.228 A 
ATOM     10  O2  <0> d           4.342  -0.489  -0.043  0.00  0.00    -0.246 OA
ATOM     11  C6  <0> d           5.617  -0.059  -0.055  0.00  0.00     0.342 A 
ATOM     12  N2  <0> d           5.592   1.251  -0.041  0.00  0.00    -0.094 NA
ATOM     13  O3  <0> d           6.724  -0.838  -0.073  0.00  0.00    -0.139 OA
ATOM     14  N1  <0> d           4.371   1.657  -0.026  0.00  0.00    -0.117 NA
ENDBRANCH   3   9
TORSDOF 1
