REMARK  3 active torsions:
REMARK  status: ('A' for Active; 'I' for Inactive)
REMARK    1  A    between atoms: C4_4  and  C7_7 
REMARK    2  A    between atoms: C7_7  and  C8_9 
REMARK    3  A    between atoms: C7_7  and  O2_11 
ROOT
ATOM      1  C1  <0> d          -0.729   1.579   1.267  0.00  0.00    -0.065 C 
ATOM      2  C2  <0> d          -0.013   1.086   0.008  0.00  0.00    -0.065 C 
ATOM      3  C3  <0> d          -0.753   1.593  -1.232  0.00  0.00    -0.059 C 
ATOM      4  C4  <0> d          -2.188   1.063  -1.221  0.00  0.00    -0.019 C 
ATOM      5  C5  <0> d          -2.904   1.556   0.038  0.00  0.00    -0.059 C 
ATOM      6  C6  <0> d          -2.164   1.050   1.278  0.00  0.00    -0.065 C 
ATOM      7  H2  <0> d          -0.202   1.218   2.150  0.00  0.00     0.033 H 
ATOM      8  H3  <0> d          -0.744   2.669   1.273  0.00  0.00     0.033 H 
ATOM      9  H4  <0> d           0.002  -0.004   0.002  0.00  0.00     0.033 H 
ATOM     10  H5  <0> d           1.010   1.463   0.000  0.00  0.00     0.033 H 
ATOM     11  H6  <0> d          -0.767   2.683  -1.226  0.00  0.00     0.033 H 
ATOM     12  H7  <0> d          -0.242   1.241  -2.128  0.00  0.00     0.033 H 
ATOM     13  H8  <0> d          -2.173  -0.027  -1.227  0.00  0.00     0.044 H 
ATOM     14  H9  <0> d          -2.919   2.646   0.044  0.00  0.00     0.033 H 
ATOM     15  H10 <0> d          -3.927   1.179   0.046  0.00  0.00     0.033 H 
ATOM     16  H11 <0> d          -2.674   1.401   2.175  0.00  0.00     0.033 H 
ATOM     17  H12 <0> d          -2.149  -0.040   1.272  0.00  0.00     0.033 H 
ENDROOT
BRANCH   4  18
ATOM     18  C7  <0> d          -2.928   1.570  -2.460  0.00  0.00     0.122 C 
ATOM     19  H1  <0> d          -2.943   2.660  -2.454  0.00  0.00     0.100 H 
BRANCH  18  20
ATOM     20  C8  <0> d          -4.342   1.048  -2.450  0.00  0.00     0.203 C 
ATOM     21  O1  <0> d          -4.709   0.281  -3.307  0.00  0.00    -0.646 OA
ATOM     22  O3  <0> d          -5.193   1.436  -1.487  0.00  0.00    -0.646 OA
ENDBRANCH  18  20
BRANCH  18  23
ATOM     23  O2  <0> d          -2.259   1.109  -3.636  0.00  0.00    -0.384 OA
ATOM     24  H13 <0> d          -2.209   0.146  -3.708  0.00  0.00     0.210 HD
ENDBRANCH  18  23
ENDBRANCH   4  18
TORSDOF 3
