REMARK  5 active torsions:
REMARK  status: ('A' for Active; 'I' for Inactive)
REMARK    1  A    between atoms: C1_1  and  C2_2 
REMARK    2  A    between atoms: C2_2  and  O1_3 
REMARK    3  A    between atoms: O1_3  and  C3_4 
REMARK       I    between atoms: C3_4  and  N1_6 
REMARK    4  A    between atoms: N1_6  and  C4_7 
REMARK    5  A    between atoms: N1_6  and  C5_8 
ROOT
ATOM      1  C3  <0> d          -0.014   1.211   0.009  0.00  0.00     0.361 C 
ATOM      2  O2  <0> d           0.002  -0.004   0.002  0.00  0.00    -0.238 OA
ATOM      3  N1  <0> d           1.143   1.901   0.001  0.00  0.00    -0.337 N 
ENDROOT
BRANCH   1   4
ATOM      4  O1  <0> d          -1.189   1.868   0.018  0.00  0.00    -0.304 OA
BRANCH   4   5
ATOM      5  C2  <0> d          -2.396   1.061   0.019  0.00  0.00     0.027 C 
ATOM      6  H4  <0> d          -2.417   0.437  -0.874  0.00  0.00     0.074 H 
ATOM      7  H5  <0> d          -2.408   0.427   0.906  0.00  0.00     0.074 H 
BRANCH   5   8
ATOM      8  C1  <0> d          -3.622   1.976   0.030  0.00  0.00    -0.056 C 
ATOM      9  H1  <0> d          -3.602   2.601   0.923  0.00  0.00     0.030 H 
ATOM     10  H2  <0> d          -3.610   2.610  -0.857  0.00  0.00     0.030 H 
ATOM     11  H3  <0> d          -4.528   1.370   0.031  0.00  0.00     0.030 H 
ENDBRANCH   5   8
ENDBRANCH   4   5
ENDBRANCH   1   4
BRANCH   3  12
ATOM     12  C4  <0> d           2.422   1.185  -0.015  0.00  0.00    -0.015 C 
ATOM     13  H6  <0> d           2.729   1.014  -1.046  0.00  0.00     0.056 H 
ATOM     14  H7  <0> d           3.178   1.782   0.495  0.00  0.00     0.056 H 
ATOM     15  H8  <0> d           2.309   0.229   0.495  0.00  0.00     0.056 H 
ENDBRANCH   3  12
BRANCH   3  16
ATOM     16  C5  <0> d           1.124   3.365   0.009  0.00  0.00    -0.015 C 
ATOM     17  H9  <0> d           0.091   3.715   0.021  0.00  0.00     0.056 H 
ATOM     18  H10 <0> d           1.641   3.731   0.896  0.00  0.00     0.056 H 
ATOM     19  H11 <0> d           1.624   3.740  -0.883  0.00  0.00     0.056 H 
ENDBRANCH   3  16
TORSDOF 5
