REMARK  4 active torsions:
REMARK  status: ('A' for Active; 'I' for Inactive)
REMARK    1  A    between atoms: C1_1  and  C2_2 
REMARK    2  A    between atoms: C2_2  and  C3_3 
REMARK    3  A    between atoms: C3_3  and  C4_4 
REMARK    4  A    between atoms: C4_4  and  C5_5 
ROOT
ATOM      1  C5  <0> d          -0.729   1.579   1.267  0.00  0.00    -0.053 C 
ATOM      2  C6  <0> d          -0.648   3.105   1.333  0.00  0.00    -0.056 C 
ATOM      3  C7  <0> d          -1.443   3.606   2.543  0.00  0.00    -0.009 C 
ATOM      4  C8  <0> d          -0.932   2.900   3.780  0.00  0.00     0.127 C 
ATOM      5  O1  <0> d          -0.608   3.526   4.760  0.00  0.00    -0.298 OA
ATOM      6  C9  <0> d          -0.837   1.391   3.756  0.00  0.00    -0.009 C 
ATOM      7  C10 <0> d          -0.063   0.971   2.502  0.00  0.00    -0.056 C 
ATOM      8  H10 <0> d          -1.775   1.274   1.232  0.00  0.00     0.040 H 
ATOM      9  H11 <0> d           0.394   3.410   1.431  0.00  0.00     0.034 H 
ATOM     10  H12 <0> d          -1.067   3.531   0.421  0.00  0.00     0.034 H 
ATOM     11  H13 <0> d          -2.414   3.404   2.410  0.00  0.00     0.044 H 
ATOM     12  H14 <0> d          -1.306   4.681   2.652  0.00  0.00     0.044 H 
ATOM     13  H15 <0> d          -1.756   0.999   3.739  0.00  0.00     0.044 H 
ATOM     14  H16 <0> d          -0.309   1.044   4.645  0.00  0.00     0.044 H 
ATOM     15  H17 <0> d          -0.067  -0.116   2.419  0.00  0.00     0.034 H 
ATOM     16  H18 <0> d           0.965   1.326   2.573  0.00  0.00     0.034 H 
ENDROOT
BRANCH   1  17
ATOM     17  C4  <0> d          -0.013   1.086   0.008  0.00  0.00    -0.062 C 
ATOM     18  H8  <0> d           0.002  -0.004   0.002  0.00  0.00     0.033 H 
ATOM     19  H9  <0> d           1.010   1.463   0.000  0.00  0.00     0.033 H 
BRANCH  17  20
ATOM     20  C3  <0> d          -0.753   1.593  -1.232  0.00  0.00    -0.065 C 
ATOM     21  H6  <0> d          -1.775   1.215  -1.224  0.00  0.00     0.033 H 
ATOM     22  H7  <0> d          -0.767   2.683  -1.226  0.00  0.00     0.033 H 
BRANCH  20  23
ATOM     23  C2  <0> d          -0.037   1.099  -2.490  0.00  0.00    -0.069 C 
ATOM     24  H4  <0> d           0.986   1.476  -2.498  0.00  0.00     0.032 H 
ATOM     25  H5  <0> d          -0.022   0.009  -2.496  0.00  0.00     0.032 H 
BRANCH  23  26
ATOM     26  C1  <0> d          -0.777   1.606  -3.730  0.00  0.00    -0.077 C 
ATOM     27  H1  <0> d          -1.799   1.229  -3.722  0.00  0.00     0.027 H 
ATOM     28  H2  <0> d          -0.791   2.696  -3.724  0.00  0.00     0.027 H 
ATOM     29  H3  <0> d          -0.266   1.254  -4.627  0.00  0.00     0.027 H 
ENDBRANCH  23  26
ENDBRANCH  20  23
ENDBRANCH  17  20
ENDBRANCH   1  17
TORSDOF 4
