REMARK  4 active torsions:
REMARK  status: ('A' for Active; 'I' for Inactive)
REMARK    1  A    between atoms: C1_1  and  C2_2 
REMARK    2  A    between atoms: C2_2  and  O2_4 
REMARK    3  A    between atoms: O2_4  and  C3_5 
REMARK    4  A    between atoms: C5_8  and  O3_12 
ROOT
ATOM      1  C3  <0> d           1.268   2.015   0.001  0.00  0.00     0.067 C 
ATOM      2  H1  <0> d           2.014   1.406  -0.510  0.00  0.00     0.090 H 
ATOM      3  C4  <0> d           1.144   3.397  -0.680  0.00  0.00    -0.010 C 
ATOM      4  C5  <0> d           2.113   4.247   0.178  0.00  0.00     0.054 C 
ATOM      5  H2  <0> d           3.100   4.276  -0.283  0.00  0.00     0.089 H 
ATOM      6  C6  <0> d           2.174   3.535   1.509  0.00  0.00    -0.077 C 
ATOM      7  C7  <0> d           1.713   2.318   1.413  0.00  0.00    -0.076 C 
ATOM      8  H6  <0> d           1.474   3.353  -1.718  0.00  0.00     0.041 H 
ATOM      9  H7  <0> d           0.125   3.778  -0.611  0.00  0.00     0.041 H 
ATOM     10  H8  <0> d           2.549   3.976   2.421  0.00  0.00     0.080 H 
ATOM     11  H9  <0> d           1.657   1.619   2.234  0.00  0.00     0.080 H 
ENDROOT
BRANCH   1  12
ATOM     12  O2  <0> d          -0.016   1.338   0.009  0.00  0.00    -0.312 OA
BRANCH  12  13
ATOM     13  C2  <0> d           0.002  -0.004   0.002  0.00  0.00     0.255 C 
ATOM     14  O1  <0> d           1.056  -0.594  -0.011  0.00  0.00    -0.266 OA
BRANCH  13  15
ATOM     15  C1  <0> d          -1.293  -0.775   0.010  0.00  0.00     0.004 C 
ATOM     16  H3  <0> d          -1.615  -0.956  -1.015  0.00  0.00     0.041 H 
ATOM     17  H4  <0> d          -1.145  -1.728   0.518  0.00  0.00     0.041 H 
ATOM     18  H5  <0> d          -2.055  -0.199   0.534  0.00  0.00     0.041 H 
ENDBRANCH  13  15
ENDBRANCH  12  13
ENDBRANCH   1  12
BRANCH   4  19
ATOM     19  O3  <0> d           1.604   5.572   0.344  0.00  0.00    -0.392 OA
ATOM     20  H10 <0> d           2.148   6.134   0.913  0.00  0.00     0.210 HD
ENDBRANCH   4  19
TORSDOF 4
