REMARK  6 active torsions:
REMARK  status: ('A' for Active; 'I' for Inactive)
REMARK    1  A    between atoms: C1_1  and  C2_2 
REMARK    2  A    between atoms: C2_2  and  C3_3 
REMARK    3  A    between atoms: C3_3  and  C4_4 
REMARK    4  A    between atoms: C4_4  and  O1_5 
REMARK    5  A    between atoms: O1_5  and  C5_6 
REMARK    6  A    between atoms: C5_6  and  C6_7 
ROOT
ATOM      1  C6  <0> d           1.139   3.547   0.010  0.00  0.00     0.034 C 
ATOM      2  C7  <0> d           2.475   4.164   0.001  0.00  0.00     0.061 C 
ATOM      3  N1  <0> d           3.506   4.640  -0.006  0.00  0.00    -0.197 NA
ATOM      4  H12 <0> d           0.585   3.866  -0.873  0.00  0.00     0.058 H 
ATOM      5  H13 <0> d           0.602   3.857   0.907  0.00  0.00     0.058 H 
ENDROOT
BRANCH   1   6
ATOM      6  C5  <0> d           1.280   2.024   0.001  0.00  0.00     0.031 C 
ATOM      7  H10 <0> d           1.834   1.705   0.884  0.00  0.00     0.075 H 
ATOM      8  H11 <0> d           1.817   1.714  -0.896  0.00  0.00     0.075 H 
BRANCH   6   9
ATOM      9  O1  <0> d          -0.017   1.425   0.010  0.00  0.00    -0.390 OA
BRANCH   9  10
ATOM     10  C4  <0> d           0.002  -0.004   0.002  0.00  0.00     0.019 C 
ATOM     11  H8  <0> d           0.512  -0.356  -0.895  0.00  0.00     0.074 H 
ATOM     12  H9  <0> d           0.529  -0.365   0.885  0.00  0.00     0.074 H 
BRANCH  10  13
ATOM     13  C3  <0> d          -1.433  -0.534   0.013  0.00  0.00    -0.045 C 
ATOM     14  H6  <0> d          -1.944  -0.182   0.910  0.00  0.00     0.036 H 
ATOM     15  H7  <0> d          -1.960  -0.173  -0.870  0.00  0.00     0.036 H 
BRANCH  13  16
ATOM     16  C2  <0> d          -1.413  -2.063   0.004  0.00  0.00    -0.067 C 
ATOM     17  H4  <0> d          -0.902  -2.415  -0.892  0.00  0.00     0.032 H 
ATOM     18  H5  <0> d          -0.885  -2.425   0.887  0.00  0.00     0.032 H 
BRANCH  16  19
ATOM     19  C1  <0> d          -2.848  -2.593   0.015  0.00  0.00    -0.076 C 
ATOM     20  H1  <0> d          -3.375  -2.232  -0.868  0.00  0.00     0.027 H 
ATOM     21  H2  <0> d          -2.833  -3.683   0.009  0.00  0.00     0.027 H 
ATOM     22  H3  <0> d          -3.358  -2.241   0.912  0.00  0.00     0.027 H 
ENDBRANCH  16  19
ENDBRANCH  13  16
ENDBRANCH  10  13
ENDBRANCH   9  10
ENDBRANCH   6   9
ENDBRANCH   1   6
TORSDOF 6
