REMARK  1 active torsions:
REMARK  status: ('A' for Active; 'I' for Inactive)
REMARK    1  A    between atoms: C1_1  and  N1_2 
ROOT
ATOM      1  N1  <0> d           0.002  -0.004   0.002  0.00  0.00    -0.274 N 
ATOM      2  C2  <0> d           0.008  -0.804  -1.113  0.00  0.00     0.065 A 
ATOM      3  C3  <0> d          -0.002  -0.547  -2.478  0.00  0.00    -0.035 A 
ATOM      4  C4  <0> d           0.009  -1.607  -3.378  0.00  0.00     0.046 A 
ATOM      5  C5  <0> d           0.030  -2.931  -2.911  0.00  0.00    -0.062 A 
ATOM      6  C6  <0> d           0.040  -3.192  -1.576  0.00  0.00    -0.068 A 
ATOM      7  C7  <0> d           0.029  -2.136  -0.653  0.00  0.00     0.011 A 
ATOM      8  C8  <0> d           0.035  -2.081   0.761  0.00  0.00     0.034 A 
ATOM      9  N2  <0> d           0.025  -0.833   1.131  0.00  0.00    -0.184 NA
ATOM     10  C9  <0> d          -0.002  -1.349  -4.786  0.00  0.00     0.099 C 
ATOM     11  N3  <0> d          -0.010  -1.143  -5.904  0.00  0.00    -0.191 NA
ATOM     12  H4  <0> d          -0.018   0.471  -2.839  0.00  0.00     0.089 H 
ATOM     13  H5  <0> d           0.038  -3.748  -3.617  0.00  0.00     0.085 H 
ATOM     14  H6  <0> d           0.056  -4.214  -1.226  0.00  0.00     0.085 H 
ATOM     15  H7  <0> d           0.050  -2.933   1.424  0.00  0.00     0.118 H 
ENDROOT
BRANCH   1  16
ATOM     16  C1  <0> d          -0.018   1.461   0.010  0.00  0.00     0.003 C 
ATOM     17  H1  <0> d           1.005   1.838   0.002  0.00  0.00     0.059 H 
ATOM     18  H2  <0> d          -0.545   1.822  -0.873  0.00  0.00     0.059 H 
ATOM     19  H3  <0> d          -0.528   1.812   0.907  0.00  0.00     0.059 H 
ENDBRANCH   1  16
TORSDOF 1
