REMARK  3 active torsions:
REMARK  status: ('A' for Active; 'I' for Inactive)
REMARK    1  A    between atoms: C1_1  and  C2_3 
REMARK    2  A    between atoms: C1_1  and  C3_5 
REMARK    3  A    between atoms: C1_1  and  O2_9 
ROOT
ATOM      1  C1  <0> d          -1.329   1.940   0.019  0.00  0.00     0.213 C 
ATOM      2  H1  <0> d          -1.355   2.627   0.865  0.00  0.00     0.114 H 
ENDROOT
BRANCH   1   3
ATOM      3  C2  <0> d          -0.014   1.204   0.009  0.00  0.00     0.212 C 
ATOM      4  O1  <0> d           0.002  -0.004   0.002  0.00  0.00    -0.646 OA
ATOM      5  O3  <0> d           1.139   1.891   0.001  0.00  0.00    -0.646 OA
ENDBRANCH   1   3
BRANCH   1   6
ATOM      6  C3  <0> d          -1.483   2.728  -1.284  0.00  0.00     0.423 C 
ATOM      7  F1  <0> d          -1.451   1.846  -2.369  0.00  0.00    -0.168 F 
ATOM      8  F2  <0> d          -2.704   3.411  -1.274  0.00  0.00    -0.168 F 
ATOM      9  F3  <0> d          -0.435   3.648  -1.398  0.00  0.00    -0.168 F 
ENDBRANCH   1   6
BRANCH   1  10
ATOM     10  O2  <0> d          -2.400   1.000   0.136  0.00  0.00    -0.377 OA
ATOM     11  H2  <0> d          -2.439   0.356  -0.584  0.00  0.00     0.211 HD
ENDBRANCH   1  10
TORSDOF 3
