REMARK  3 active torsions:
REMARK  status: ('A' for Active; 'I' for Inactive)
REMARK    1  A    between atoms: C1_1  and  C2_2 
REMARK    2  A    between atoms: C6_8  and  C7_9 
REMARK    3  A    between atoms: C6_8  and  C8_10 
ROOT
ATOM      1  C2  <0> d           0.002  -0.004   0.002  0.00  0.00    -0.087 C 
ATOM      2  C3  <0> d          -1.145  -0.627  -0.016  0.00  0.00    -0.096 C 
ATOM      3  C4  <0> d          -1.248  -2.123   0.007  0.00  0.00    -0.026 A 
ATOM      4  H1  <0> d          -2.172  -2.519   0.446  0.00  0.00     0.048 H 
ATOM      5  C5  <0> d           0.046  -2.899   0.280  0.00  0.00    -0.039 A 
ATOM      6  H2  <0> d          -0.057  -3.816   0.900  0.00  0.00     0.042 H 
ATOM      7  C6  <0> d          -0.596  -2.951  -1.097  0.00  0.00    -0.036 A 
ATOM      8  C9  <0> d           1.308  -2.104   0.560  0.00  0.00    -0.057 C 
ATOM      9  C10 <0> d           1.328  -0.701  -0.014  0.00  0.00    -0.045 C 
ATOM     10  H6  <0> d          -2.056  -0.034  -0.049  0.00  0.00     0.077 H 
ATOM     11  H13 <0> d           1.460  -2.045   1.655  0.00  0.00     0.034 H 
ATOM     12  H14 <0> d           2.181  -2.663   0.174  0.00  0.00     0.034 H 
ATOM     13  H15 <0> d           1.742  -0.701  -1.028  0.00  0.00     0.039 H 
ATOM     14  H16 <0> d           2.034  -0.091   0.586  0.00  0.00     0.039 H 
ENDROOT
BRANCH   7  15
ATOM     15  C7  <0> d           0.045  -2.228  -2.276  0.00  0.00    -0.068 C 
ATOM     16  H7  <0> d           0.071  -1.157  -2.074  0.00  0.00     0.028 H 
ATOM     17  H8  <0> d           1.061  -2.595  -2.419  0.00  0.00     0.028 H 
ATOM     18  H9  <0> d          -0.539  -2.413  -3.177  0.00  0.00     0.028 H 
ENDBRANCH   7  15
BRANCH   7  19
ATOM     19  C8  <0> d          -1.308  -4.263  -1.478  0.00  0.00    -0.068 C 
ATOM     20  H10 <0> d          -1.727  -4.172  -2.480  0.00  0.00     0.028 H 
ATOM     21  H11 <0> d          -0.592  -5.085  -1.456  0.00  0.00     0.028 H 
ATOM     22  H12 <0> d          -2.110  -4.461  -0.766  0.00  0.00     0.028 H 
ENDBRANCH   7  19
BRANCH   1  23
ATOM     23  C1  <0> d          -0.018   1.513   0.010  0.00  0.00    -0.055 C 
ATOM     24  H3  <0> d           1.004   1.890   0.003  0.00  0.00     0.033 H 
ATOM     25  H4  <0> d          -0.546   1.874  -0.873  0.00  0.00     0.033 H 
ATOM     26  H5  <0> d          -0.529   1.864   0.907  0.00  0.00     0.033 H 
ENDBRANCH   1  23
TORSDOF 3
