REMARK  3 active torsions:
REMARK  status: ('A' for Active; 'I' for Inactive)
REMARK    1  A    between atoms: C1_1  and  C2_2 
REMARK    2  A    between atoms: C4_4  and  C8_10 
REMARK    3  A    between atoms: C5_6  and  C7_8 
ROOT
ATOM      1  C2  <0> d           2.395   0.004  -0.021  0.00  0.00    -0.058 A 
ATOM      2  C3  <0> d           1.201  -0.700  -0.013  0.00  0.00    -0.054 A 
ATOM      3  C4  <0> d           0.002  -0.004   0.002  0.00  0.00     0.032 A 
ATOM      4  N1  <0> d          -0.016   1.311   0.009  0.00  0.00    -0.247 NA
ATOM      5  C5  <0> d           1.105   2.022   0.002  0.00  0.00     0.133 A 
ATOM      6  C6  <0> d           2.346   1.389  -0.013  0.00  0.00    -0.043 A 
ATOM      7  H4  <0> d           1.204  -1.780  -0.019  0.00  0.00     0.087 H 
ATOM      8  H5  <0> d           3.257   1.969  -0.018  0.00  0.00     0.088 H 
ENDROOT
BRANCH   1   9
ATOM      9  C1  <0> d           3.716  -0.720  -0.038  0.00  0.00    -0.051 C 
ATOM     10  H1  <0> d           4.025  -0.889  -1.069  0.00  0.00     0.033 H 
ATOM     11  H2  <0> d           4.468  -0.117   0.472  0.00  0.00     0.033 H 
ATOM     12  H3  <0> d           3.612  -1.678   0.472  0.00  0.00     0.033 H 
ENDBRANCH   1   9
BRANCH   5  13
ATOM     13  C7  <0> d           1.035   3.502   0.011  0.00  0.00     0.229 C 
ATOM     14  O1  <0> d           2.057   4.157   0.004  0.00  0.00    -0.643 OA
ATOM     15  O2  <0> d          -0.161   4.119   0.025  0.00  0.00    -0.643 OA
ENDBRANCH   5  13
BRANCH   3  16
ATOM     16  C8  <0> d          -1.299  -0.765   0.011  0.00  0.00    -0.035 C 
ATOM     17  H6  <0> d          -1.623  -0.943  -1.015  0.00  0.00     0.035 H 
ATOM     18  H7  <0> d          -1.158  -1.719   0.518  0.00  0.00     0.035 H 
ATOM     19  H8  <0> d          -2.057  -0.183   0.535  0.00  0.00     0.035 H 
ENDBRANCH   3  16
TORSDOF 3
