REMARK  1 active torsions:
REMARK  status: ('A' for Active; 'I' for Inactive)
REMARK    1  A    between atoms: C3_3  and  C6_10 
REMARK       I    between atoms: N1_5  and  C5_7 
REMARK       I    between atoms: C5_7  and  N2_9 
ROOT
ATOM      1  C1  <0> d           3.408   2.534   0.597  0.00  0.00    -0.048 C 
ATOM      2  C2  <0> d           2.774   3.829   0.024  0.00  0.00    -0.035 C 
ATOM      3  C3  <0> d           1.266   3.498   0.009  0.00  0.00     0.100 C 
ATOM      4  H1  <0> d           0.788   3.907   0.899  0.00  0.00     0.090 H 
ATOM      5  N1  <0> d           1.142   2.033   0.002  0.00  0.00    -0.320 N 
ATOM      6  C4  <0> d           2.493   1.444  -0.007  0.00  0.00     0.000 C 
ATOM      7  C5  <0> d          -0.016   1.344   0.009  0.00  0.00     0.316 C 
ATOM      8  O1  <0> d          -1.077   1.937   0.018  0.00  0.00    -0.247 OA
ATOM      9  N2  <0> d           0.002  -0.004   0.002  0.00  0.00    -0.352 N 
ATOM     10  H2  <0> d           4.436   2.418   0.254  0.00  0.00     0.035 H 
ATOM     11  H3  <0> d           3.358   2.523   1.685  0.00  0.00     0.035 H 
ATOM     12  H4  <0> d           3.136   4.023  -0.985  0.00  0.00     0.036 H 
ATOM     13  H5  <0> d           2.975   4.679   0.677  0.00  0.00     0.036 H 
ATOM     14  H6  <0> d           2.518   0.543   0.607  0.00  0.00     0.064 H 
ATOM     15  H7  <0> d           2.800   1.216  -1.028  0.00  0.00     0.064 H 
ATOM     16  H8  <0> d           0.849  -0.478  -0.009  0.00  0.00     0.160 HD
ATOM     17  H9  <0> d          -0.831  -0.500   0.007  0.00  0.00     0.160 HD
ENDROOT
BRANCH   3  18
ATOM     18  C6  <0> d           0.628   4.073  -1.230  0.00  0.00     0.197 C 
ATOM     19  O2  <0> d           0.421   3.365  -2.187  0.00  0.00    -0.646 OA
ATOM     20  O3  <0> d           0.290   5.371  -1.270  0.00  0.00    -0.646 OA
ENDBRANCH   3  18
TORSDOF 1
