REMARK  2 active torsions:
REMARK  status: ('A' for Active; 'I' for Inactive)
REMARK    1  A    between atoms: C1_1  and  N1_2 
REMARK       I    between atoms: N1_2  and  C2_3 
REMARK    2  A    between atoms: C2_3  and  C3_5 
ROOT
ATOM      1  C3  <0> d           0.605  -2.141  -1.026  0.00  0.00     0.070 A 
ATOM      2  C4  <0> d           0.016  -2.857   0.018  0.00  0.00    -0.065 A 
ATOM      3  C5  <0> d           0.038  -4.235   0.005  0.00  0.00    -0.082 A 
ATOM      4  C6  <0> d           0.642  -4.912  -1.041  0.00  0.00    -0.080 A 
ATOM      5  C7  <0> d           1.228  -4.213  -2.079  0.00  0.00    -0.045 A 
ATOM      6  C8  <0> d           1.209  -2.830  -2.083  0.00  0.00     0.132 A 
ATOM      7  F1  <0> d           1.777  -2.147  -3.100  0.00  0.00    -0.205 F 
ATOM      8  H5  <0> d          -0.456  -2.331   0.836  0.00  0.00     0.085 H 
ATOM      9  H6  <0> d          -0.418  -4.789   0.812  0.00  0.00     0.083 H 
ATOM     10  H7  <0> d           0.656  -5.992  -1.045  0.00  0.00     0.083 H 
ATOM     11  H8  <0> d           1.698  -4.748  -2.891  0.00  0.00     0.088 H 
ENDROOT
BRANCH   1  12
ATOM     12  C2  <0> d           0.585  -0.664  -1.018  0.00  0.00     0.254 C 
ATOM     13  N1  <0> d           0.002  -0.004   0.002  0.00  0.00    -0.361 N 
ATOM     14  H4  <0> d          -0.404  -0.499   0.731  0.00  0.00     0.162 HD
ATOM     15  O1  <0> d           1.095  -0.045  -1.931  0.00  0.00    -0.268 OA
BRANCH  13  16
ATOM     16  C1  <0> d          -0.018   1.461   0.010  0.00  0.00    -0.018 C 
ATOM     17  H1  <0> d           1.005   1.838   0.002  0.00  0.00     0.056 H 
ATOM     18  H2  <0> d          -0.545   1.822  -0.873  0.00  0.00     0.056 H 
ATOM     19  H3  <0> d          -0.528   1.812   0.907  0.00  0.00     0.056 H 
ENDBRANCH  13  16
ENDBRANCH   1  12
TORSDOF 2
