REMARK  2 active torsions:
REMARK  status: ('A' for Active; 'I' for Inactive)
REMARK    1  A    between atoms: C1_1  and  C2_2 
REMARK    2  A    between atoms: C4_4  and  C7_9 
ROOT
ATOM      1  C2  <0> d           0.002  -0.004   0.002  0.00  0.00     0.000 A 
ATOM      2  C3  <0> d           0.008  -0.838  -1.139  0.00  0.00     0.077 A 
ATOM      3  C4  <0> d           0.028  -2.143  -0.688  0.00  0.00     0.053 A 
ATOM      4  N1  <0> d           0.034  -2.127   0.658  0.00  0.00    -0.241 NA
ATOM      5  C5  <0> d           0.024  -0.821   1.094  0.00  0.00     0.144 A 
ATOM      6  C6  <0> d           0.032  -0.393   2.461  0.00  0.00     0.120 C 
ATOM      7  N2  <0> d           0.038  -0.054   3.545  0.00  0.00    -0.190 NA
ATOM      8  C8  <0> d          -0.004  -0.411  -2.506  0.00  0.00     0.102 C 
ATOM      9  N3  <0> d          -0.014  -0.072  -3.590  0.00  0.00    -0.191 NA
ENDROOT
BRANCH   1  10
ATOM     10  C1  <0> d          -0.018   1.503   0.010  0.00  0.00    -0.047 C 
ATOM     11  H1  <0> d           1.004   1.880   0.003  0.00  0.00     0.033 H 
ATOM     12  H2  <0> d          -0.545   1.864  -0.873  0.00  0.00     0.033 H 
ATOM     13  H3  <0> d          -0.529   1.854   0.907  0.00  0.00     0.033 H 
ENDBRANCH   1  10
BRANCH   3  14
ATOM     14  C7  <0> d           0.040  -3.376  -1.555  0.00  0.00    -0.034 C 
ATOM     15  H4  <0> d           1.071  -3.660  -1.769  0.00  0.00     0.035 H 
ATOM     16  H5  <0> d          -0.460  -4.192  -1.033  0.00  0.00     0.035 H 
ATOM     17  H6  <0> d          -0.481  -3.169  -2.489  0.00  0.00     0.035 H 
ENDBRANCH   3  14
TORSDOF 2
