REMARK  3 active torsions:
REMARK  status: ('A' for Active; 'I' for Inactive)
REMARK    1  A    between atoms: C1_1  and  O1_2 
REMARK    2  A    between atoms: O1_2  and  C2_3 
REMARK    3  A    between atoms: C5_6  and  O2_10 
ROOT
ATOM      1  C2  <0> d           0.039  -2.773  -0.013  0.00  0.00     0.070 A 
ATOM      2  C3  <0> d           0.041  -2.085   1.192  0.00  0.00    -0.048 A 
ATOM      3  C4  <0> d           0.023  -0.704   1.199  0.00  0.00    -0.047 A 
ATOM      4  C5  <0> d           0.002  -0.004   0.002  0.00  0.00     0.087 A 
ATOM      5  C6  <0> d          -0.006  -0.692  -1.204  0.00  0.00     0.069 A 
ATOM      6  C7  <0> d           0.018  -2.074  -1.211  0.00  0.00    -0.027 A 
ATOM      7 Cl1  <0> d          -0.038   0.184  -2.702  0.00  0.00    -0.081 Cl
ATOM      8  H4  <0> d           0.057  -2.630   2.124  0.00  0.00     0.087 H 
ATOM      9  H5  <0> d           0.025  -0.169   2.137  0.00  0.00     0.087 H 
ATOM     10  H6  <0> d           0.015  -2.609  -2.148  0.00  0.00     0.090 H 
ENDROOT
BRANCH   1  11
ATOM     11  O1  <0> d           0.056  -4.133  -0.020  0.00  0.00    -0.356 OA
BRANCH  11  12
ATOM     12  C1  <0> d           0.052  -4.775  -1.296  0.00  0.00     0.010 C 
ATOM     13  H1  <0> d           0.068  -5.856  -1.159  0.00  0.00     0.066 H 
ATOM     14  H2  <0> d          -0.847  -4.491  -1.843  0.00  0.00     0.066 H 
ATOM     15  H3  <0> d           0.933  -4.468  -1.860  0.00  0.00     0.066 H 
ENDBRANCH  11  12
ENDBRANCH   1  11
BRANCH   4  16
ATOM     16  O2  <0> d          -0.016   1.356   0.009  0.00  0.00    -0.359 OA
ATOM     17  H7  <0> d           0.862   1.761   0.003  0.00  0.00     0.217 HD
ENDBRANCH   4  16
TORSDOF 3
