REMARK  1 active torsions:
REMARK  status: ('A' for Active; 'I' for Inactive)
REMARK    1  A    between atoms: C6_9  and  O1_12 
ROOT
ATOM      1  C1  <0> d           1.955  -1.704  -0.026  0.00  0.00    -0.029 A 
ATOM      2  C2  <0> d           1.350  -0.439  -0.013  0.00  0.00     0.014 A 
ATOM      3  C3  <0> d           0.002  -0.004   0.002  0.00  0.00     0.034 A 
ATOM      4  N1  <0> d          -0.016   1.297   0.009  0.00  0.00    -0.186 NA
ATOM      5  N2  <0> d           1.295   1.789  -0.001  0.00  0.00    -0.278 N 
ATOM      6  H1  <0> d           1.561   2.753   0.002  0.00  0.00     0.189 HD
ATOM      7  C4  <0> d           2.152   0.717  -0.015  0.00  0.00     0.064 A 
ATOM      8  C5  <0> d           3.539   0.594  -0.029  0.00  0.00    -0.020 A 
ATOM      9  C6  <0> d           4.114  -0.661  -0.042  0.00  0.00     0.106 A 
ATOM     10  C7  <0> d           3.315  -1.806  -0.040  0.00  0.00     0.150 A 
ATOM     11  F1  <0> d           3.894  -3.027  -0.053  0.00  0.00    -0.203 F 
ATOM     12  H2  <0> d           1.345  -2.595  -0.025  0.00  0.00     0.089 H 
ATOM     13  H3  <0> d          -0.867  -0.645   0.007  0.00  0.00     0.118 H 
ATOM     14  H4  <0> d           4.162   1.476  -0.030  0.00  0.00     0.091 H 
ENDROOT
BRANCH   9  15
ATOM     15  O1  <0> d           5.468  -0.783  -0.056  0.00  0.00    -0.358 OA
ATOM     16  H5  <0> d           5.869  -0.823   0.823  0.00  0.00     0.217 HD
ENDBRANCH   9  15
TORSDOF 1
