REMARK  1 active torsions:
REMARK  status: ('A' for Active; 'I' for Inactive)
REMARK    1  A    between atoms: C4_4  and  N1_7 
ROOT
ATOM      1  C1  <0> d           1.208  -0.680  -0.013  0.00  0.00    -0.083 A 
ATOM      2  C2  <0> d           0.002  -0.004   0.002  0.00  0.00    -0.081 A 
ATOM      3  C3  <0> d          -0.017   1.377   0.010  0.00  0.00    -0.055 A 
ATOM      4  C4  <0> d           1.177   2.086   0.002  0.00  0.00     0.059 A 
ATOM      5  C5  <0> d           2.386   1.404  -0.013  0.00  0.00    -0.055 A 
ATOM      6  C6  <0> d           2.398   0.023  -0.021  0.00  0.00    -0.081 A 
ATOM      7  H1  <0> d           1.220  -1.760  -0.019  0.00  0.00     0.083 H 
ATOM      8  H2  <0> d          -0.926  -0.556   0.008  0.00  0.00     0.083 H 
ATOM      9  H3  <0> d          -0.959   1.905   0.017  0.00  0.00     0.087 H 
ATOM     10  H4  <0> d           3.316   1.953  -0.018  0.00  0.00     0.087 H 
ATOM     11  H5  <0> d           3.339  -0.508  -0.033  0.00  0.00     0.083 H 
ENDROOT
BRANCH   4  12
ATOM     12  N1  <0> d           1.161   3.488   0.009  0.00  0.00    -0.226 N 
ATOM     13  N3  <0> d           0.110   4.232   0.017  0.00  0.00    -0.061 NA
ATOM     14  N2  <0> d           0.445   5.474   0.026  0.00  0.00    -0.143 NA
ATOM     15  C8  <0> d           1.779   5.567   0.014  0.00  0.00     0.042 A 
ATOM     16  C7  <0> d           2.254   4.300   0.003  0.00  0.00     0.024 A 
ATOM     17  H7  <0> d           2.363   6.476   0.013  0.00  0.00     0.119 H 
ATOM     18  H6  <0> d           3.290   3.994  -0.008  0.00  0.00     0.117 H 
ENDBRANCH   4  12
TORSDOF 1
