REMARK  3 active torsions:
REMARK  status: ('A' for Active; 'I' for Inactive)
REMARK    1  A    between atoms: C1_1  and  C2_2 
REMARK    2  A    between atoms: C3_3  and  N1_9 
REMARK    3  A    between atoms: N1_9  and  C8_10 
ROOT
ATOM      1  C2  <0> d           2.387   1.405  -0.014  0.00  0.00    -0.014 A 
ATOM      2  C3  <0> d           1.177   2.087   0.002  0.00  0.00     0.035 A 
ATOM      3  C4  <0> d          -0.017   1.377   0.010  0.00  0.00    -0.057 A 
ATOM      4  C5  <0> d           0.002  -0.004   0.002  0.00  0.00    -0.079 A 
ATOM      5  C6  <0> d           1.208  -0.681  -0.013  0.00  0.00    -0.061 A 
ATOM      6  C7  <0> d           2.400   0.023  -0.020  0.00  0.00     0.042 A 
ATOM      7 Cl1  <0> d           3.911  -0.831  -0.039  0.00  0.00    -0.084 Cl
ATOM      8  H4  <0> d          -0.959   1.905   0.017  0.00  0.00     0.086 H 
ATOM      9  H5  <0> d          -0.926  -0.556   0.008  0.00  0.00     0.083 H 
ATOM     10  H6  <0> d           1.219  -1.761  -0.018  0.00  0.00     0.086 H 
ENDROOT
BRANCH   2  11
ATOM     11  N1  <0> d           1.161   3.483   0.009  0.00  0.00    -0.394 N 
ATOM     12  H7  <0> d           1.996   3.978   0.004  0.00  0.00     0.159 HD
BRANCH  11  13
ATOM     13  C8  <0> d          -0.116   4.201   0.025  0.00  0.00    -0.021 C 
ATOM     14  H8  <0> d           0.071   5.275   0.028  0.00  0.00     0.056 H 
ATOM     15  H9  <0> d          -0.693   3.936  -0.861  0.00  0.00     0.056 H 
ATOM     16  H10 <0> d          -0.676   3.927   0.919  0.00  0.00     0.056 H 
ENDBRANCH  11  13
ENDBRANCH   2  11
BRANCH   1  17
ATOM     17  C1  <0> d           3.685   2.171  -0.022  0.00  0.00    -0.048 C 
ATOM     18  H1  <0> d           3.989   2.360  -1.052  0.00  0.00     0.033 H 
ATOM     19  H2  <0> d           3.550   3.120   0.498  0.00  0.00     0.033 H 
ATOM     20  H3  <0> d           4.455   1.587   0.482  0.00  0.00     0.033 H 
ENDBRANCH   1  17
TORSDOF 3
