REMARK  2 active torsions:
REMARK  status: ('A' for Active; 'I' for Inactive)
REMARK    1  A    between atoms: C1_1  and  S1_2 
REMARK    2  A    between atoms: S1_2  and  C2_3 
ROOT
ATOM      1  C2  <0> d          -0.829   3.441  -1.307  0.00  0.00     0.168 A 
ATOM      2  N1  <0> d          -0.218   3.979  -0.269  0.00  0.00    -0.237 NA
ATOM      3  C3  <0> d          -0.149   5.299  -0.115  0.00  0.00     0.010 A 
ATOM      4  C4  <0> d          -0.715   6.128  -1.040  0.00  0.00    -0.000 A 
ATOM      5  C5  <0> d          -1.368   5.563  -2.150  0.00  0.00     0.248 A 
ATOM      6  N2  <0> d          -1.407   4.218  -2.265  0.00  0.00    -0.302 N 
ATOM      7  O1  <0> d          -1.885   6.274  -2.996  0.00  0.00    -0.268 OA
ATOM      8  H4  <0> d           0.356   5.716   0.744  0.00  0.00     0.115 H 
ATOM      9  H5  <0> d          -0.664   7.200  -0.921  0.00  0.00     0.094 H 
ATOM     10  H6  <0> d          -1.848   3.807  -3.024  0.00  0.00     0.171 HD
ENDROOT
BRANCH   1  11
ATOM     11  S1  <0> d          -0.890   1.687  -1.462  0.00  0.00    -0.096 SA
BRANCH  11  12
ATOM     12  C1  <0> d          -0.013   1.086   0.008  0.00  0.00    -0.027 C 
ATOM     13  H1  <0> d           0.002  -0.004   0.002  0.00  0.00     0.042 H 
ATOM     14  H2  <0> d           1.010   1.463   0.000  0.00  0.00     0.042 H 
ATOM     15  H3  <0> d          -0.523   1.437   0.905  0.00  0.00     0.042 H 
ENDBRANCH  11  12
ENDBRANCH   1  11
TORSDOF 2
