REMARK  5 active torsions:
REMARK  status: ('A' for Active; 'I' for Inactive)
REMARK    1  A    between atoms: C1_1  and  C2_2 
REMARK    2  A    between atoms: C2_2  and  C3_3 
REMARK    3  A    between atoms: C2_2  and  C4_4 
REMARK    4  A    between atoms: C2_2  and  O1_8 
REMARK    5  A    between atoms: C4_4  and  C5_5 
ROOT
ATOM      1  C5  <0> d          -0.018   1.468   0.010  0.00  0.00     0.017 C 
ATOM      2  C6  <0> d           0.002  -0.004   0.002  0.00  0.00     0.059 C 
ATOM      3  N1  <0> d           0.018  -1.140  -0.004  0.00  0.00    -0.197 NA
ATOM      4  H9  <0> d           1.005   1.845   0.002  0.00  0.00     0.055 H 
ATOM      5  H10 <0> d          -0.545   1.829  -0.873  0.00  0.00     0.055 H 
ENDROOT
BRANCH   1   6
ATOM      6  C4  <0> d          -0.734   1.961   1.269  0.00  0.00    -0.026 C 
ATOM      7  H7  <0> d          -1.757   1.584   1.277  0.00  0.00     0.038 H 
ATOM      8  H8  <0> d          -0.207   1.600   2.152  0.00  0.00     0.038 H 
BRANCH   6   9
ATOM      9  C2  <0> d          -0.755   3.491   1.277  0.00  0.00     0.051 C 
BRANCH   9  10
ATOM     10  C1  <0> d          -1.495   3.998   0.038  0.00  0.00    -0.048 C 
ATOM     11  H1  <0> d          -2.517   3.621   0.045  0.00  0.00     0.031 H 
ATOM     12  H2  <0> d          -1.510   5.088   0.044  0.00  0.00     0.031 H 
ATOM     13  H3  <0> d          -0.985   3.646  -0.859  0.00  0.00     0.031 H 
ENDBRANCH   9  10
BRANCH   9  14
ATOM     14  C3  <0> d          -1.471   3.984   2.536  0.00  0.00    -0.048 C 
ATOM     15  H4  <0> d          -0.944   3.623   3.419  0.00  0.00     0.031 H 
ATOM     16  H5  <0> d          -1.486   5.074   2.542  0.00  0.00     0.031 H 
ATOM     17  H6  <0> d          -2.494   3.607   2.544  0.00  0.00     0.031 H 
ENDBRANCH   9  14
BRANCH   9  18
ATOM     18  O1  <0> d           0.586   3.986   1.267  0.00  0.00    -0.391 OA
ATOM     19  H11 <0> d           1.115   3.703   2.026  0.00  0.00     0.210 HD
ENDBRANCH   9  18
ENDBRANCH   6   9
ENDBRANCH   1   6
TORSDOF 5
