REMARK  1 active torsions:
REMARK  status: ('A' for Active; 'I' for Inactive)
REMARK    1  A    between atoms: C1_1  and  C2_2 
ROOT
ATOM      1  C2  <0> d           1.165   2.124   0.002  0.00  0.00     0.007 A 
ATOM      2  C3  <0> d          -0.018   1.460   0.010  0.00  0.00    -0.060 A 
ATOM      3  C4  <0> d           0.002  -0.004   0.002  0.00  0.00    -0.009 A 
ATOM      4  C5  <0> d          -1.185  -0.744   0.010  0.00  0.00    -0.071 A 
ATOM      5  C6  <0> d          -1.133  -2.109   0.002  0.00  0.00    -0.082 A 
ATOM      6  C7  <0> d           0.089  -2.769  -0.014  0.00  0.00    -0.081 A 
ATOM      7  C8  <0> d           1.271  -2.060  -0.021  0.00  0.00    -0.056 A 
ATOM      8  C9  <0> d           1.242  -0.669  -0.013  0.00  0.00     0.045 A 
ATOM      9  N1  <0> d           2.409   0.064  -0.020  0.00  0.00    -0.322 N 
ATOM     10  H1  <0> d           3.382  -0.450  -0.032  0.00  0.00     0.169 HD
ATOM     11  C10 <0> d           2.381   1.409  -0.012  0.00  0.00     0.251 A 
ATOM     12  O1  <0> d           3.433   2.025  -0.019  0.00  0.00    -0.268 OA
ATOM     13  H5  <0> d          -0.954   1.999   0.018  0.00  0.00     0.086 H 
ATOM     14  H6  <0> d          -2.139  -0.238   0.022  0.00  0.00     0.084 H 
ATOM     15  H7  <0> d          -2.049  -2.680   0.007  0.00  0.00     0.083 H 
ATOM     16  H8  <0> d           0.113  -3.848  -0.019  0.00  0.00     0.083 H 
ATOM     17  H9  <0> d           2.216  -2.583  -0.033  0.00  0.00     0.086 H 
ENDROOT
BRANCH   1  18
ATOM     18  C1  <0> d           1.179   3.631   0.010  0.00  0.00    -0.046 C 
ATOM     19  H2  <0> d           0.146   4.008   0.021  0.00  0.00     0.033 H 
ATOM     20  H3  <0> d           1.694   3.997  -0.890  0.00  0.00     0.033 H 
ATOM     21  H4  <0> d           1.710   3.987   0.906  0.00  0.00     0.033 H 
ENDBRANCH   1  18
TORSDOF 1
