REMARK  1 active torsions:
REMARK  status: ('A' for Active; 'I' for Inactive)
REMARK    1  A    between atoms: C4_6  and  N3_7 
ROOT
ATOM      1  C1  <0> d           2.333   1.318  -0.013  0.00  0.00    -0.022 A 
ATOM      2  C2  <0> d           2.302  -0.063  -0.020  0.00  0.00     0.007 A 
ATOM      3  N1  <0> d           1.131  -0.684  -0.012  0.00  0.00    -0.254 NA
ATOM      4  C3  <0> d           0.002  -0.004   0.002  0.00  0.00     0.088 A 
ATOM      5  N2  <0> d          -0.016   1.313   0.009  0.00  0.00    -0.225 NA
ATOM      6  C4  <0> d           1.119   2.007   0.002  0.00  0.00     0.123 A 
ATOM      7  H1  <0> d           3.272   1.851  -0.019  0.00  0.00     0.091 H 
ATOM      8  H2  <0> d           3.221  -0.630  -0.032  0.00  0.00     0.115 H 
ATOM      9  H3  <0> d          -0.934  -0.542   0.008  0.00  0.00     0.146 H 
ENDROOT
BRANCH   6  10
ATOM     10  N3  <0> d           1.096   3.393   0.009  0.00  0.00    -0.384 N 
ATOM     11  H4  <0> d           0.248   3.864   0.020  0.00  0.00     0.157 HD
ATOM     12  H5  <0> d           1.928   3.891   0.004  0.00  0.00     0.157 HD
ENDBRANCH   6  10
TORSDOF 1
