REMARK  2 active torsions:
REMARK  status: ('A' for Active; 'I' for Inactive)
REMARK    1  A    between atoms: C1_1  and  C2_2 
REMARK    2  A    between atoms: C4_4  and  O1_11 
ROOT
ATOM      1  C2  <0> d          -0.069   3.837   0.022  0.00  0.00     0.039 A 
ATOM      2  C3  <0> d           1.117   3.192   0.008  0.00  0.00    -0.027 A 
ATOM      3  C4  <0> d           1.157   1.784   0.001  0.00  0.00     0.071 A 
ATOM      4  C5  <0> d          -0.013   1.076   0.008  0.00  0.00    -0.003 A 
ATOM      5  C6  <0> d          -1.233   1.770   0.017  0.00  0.00     0.178 A 
ATOM      6  N1  <0> d          -1.236   3.139   0.030  0.00  0.00    -0.199 N 
ATOM      7  N2  <0> d          -2.588   3.506   0.044  0.00  0.00    -0.039 NA
ATOM      8  N3  <0> d          -3.276   2.414   0.046  0.00  0.00    -0.022 NA
ATOM      9  N4  <0> d          -2.503   1.387   0.034  0.00  0.00    -0.109 NA
ATOM     10  H4  <0> d           2.037   3.757   0.002  0.00  0.00     0.090 H 
ATOM     11  H5  <0> d           0.002  -0.004   0.002  0.00  0.00     0.093 H 
ENDROOT
BRANCH   1  12
ATOM     12  C1  <0> d          -0.100   5.344   0.029  0.00  0.00    -0.035 C 
ATOM     13  H1  <0> d          -0.117   5.712  -0.997  0.00  0.00     0.035 H 
ATOM     14  H2  <0> d          -0.993   5.686   0.553  0.00  0.00     0.035 H 
ATOM     15  H3  <0> d           0.787   5.723   0.537  0.00  0.00     0.035 H 
ENDBRANCH   1  12
BRANCH   3  16
ATOM     16  O1  <0> d           2.349   1.135  -0.013  0.00  0.00    -0.361 OA
ATOM     17  H6  <0> d           2.686   0.951  -0.901  0.00  0.00     0.217 HD
ENDBRANCH   3  16
TORSDOF 2
