REMARK  3 active torsions:
REMARK  status: ('A' for Active; 'I' for Inactive)
REMARK    1  A    between atoms: C1_1  and  N1_2 
REMARK    2  A    between atoms: N1_2  and  C2_3 
REMARK    3  A    between atoms: C5_6  and  C8_9 
REMARK       I    between atoms: C8_9  and  N2_11 
ROOT
ATOM      1  C2  <0> d          -3.720   3.285   0.037  0.00  0.00     0.027 A 
ATOM      2  C3  <0> d          -3.703   1.893   0.030  0.00  0.00    -0.057 A 
ATOM      3  C4  <0> d          -2.504   1.218   0.021  0.00  0.00    -0.066 A 
ATOM      4  C5  <0> d          -1.302   1.932   0.019  0.00  0.00     0.032 A 
ATOM      5  C6  <0> d          -1.323   3.330   0.032  0.00  0.00    -0.066 A 
ATOM      6  C7  <0> d          -2.525   3.999   0.035  0.00  0.00    -0.057 A 
ATOM      7  H5  <0> d          -4.632   1.342   0.031  0.00  0.00     0.086 H 
ATOM      8  H6  <0> d          -2.491   0.138   0.014  0.00  0.00     0.085 H 
ATOM      9  H7  <0> d          -0.396   3.884   0.036  0.00  0.00     0.085 H 
ATOM     10  H8  <0> d          -2.542   5.078   0.040  0.00  0.00     0.086 H 
ENDROOT
BRANCH   1  11
ATOM     11  N1  <0> d          -4.934   3.963   0.047  0.00  0.00    -0.394 N 
ATOM     12  H4  <0> d          -5.767   3.467   0.048  0.00  0.00     0.159 HD
BRANCH  11  13
ATOM     13  C1  <0> d          -4.954   5.428   0.055  0.00  0.00    -0.021 C 
ATOM     14  H1  <0> d          -4.441   5.794   0.944  0.00  0.00     0.056 H 
ATOM     15  H2  <0> d          -4.449   5.803  -0.836  0.00  0.00     0.056 H 
ATOM     16  H3  <0> d          -5.986   5.778   0.062  0.00  0.00     0.056 H 
ENDBRANCH  11  13
ENDBRANCH   1  11
BRANCH   4  17
ATOM     17  C8  <0> d          -0.014   1.212   0.009  0.00  0.00     0.249 C 
ATOM     18  O1  <0> d           0.002  -0.004   0.002  0.00  0.00    -0.268 OA
ATOM     19  N2  <0> d           1.143   1.901   0.001  0.00  0.00    -0.366 N 
ATOM     20  H9  <0> d           1.990   1.428  -0.009  0.00  0.00     0.159 HD
ATOM     21  H10 <0> d           1.130   2.871   0.007  0.00  0.00     0.159 HD
ENDBRANCH   4  17
TORSDOF 3
