REMARK  1 active torsions:
REMARK  status: ('A' for Active; 'I' for Inactive)
REMARK    1  A    between atoms: C1_1  and  C2_2 
ROOT
ATOM      1  C2  <0> d          -1.231   2.121   0.019  0.00  0.00    -0.018 A 
ATOM      2  C3  <0> d          -1.193   3.518   0.031  0.00  0.00     0.069 A 
ATOM      3  C4  <0> d           0.047   4.162   0.024  0.00  0.00     0.022 A 
ATOM      4  N1  <0> d           1.168   3.470   0.009  0.00  0.00    -0.270 NA
ATOM      5  C5  <0> d           1.177   2.153   0.002  0.00  0.00     0.022 A 
ATOM      6  C6  <0> d          -0.017   1.428   0.010  0.00  0.00     0.069 A 
ATOM      7  C7  <0> d           0.002  -0.004   0.002  0.00  0.00     0.101 C 
ATOM      8  N2  <0> d           0.018  -1.140  -0.004  0.00  0.00    -0.191 NA
ATOM      9  C8  <0> d          -2.407   4.278   0.047  0.00  0.00     0.101 C 
ATOM     10  N3  <0> d          -3.369   4.881   0.059  0.00  0.00    -0.191 NA
ATOM     11  H4  <0> d           0.087   5.241   0.029  0.00  0.00     0.117 H 
ATOM     12  H5  <0> d           2.120   1.627  -0.009  0.00  0.00     0.117 H 
ENDROOT
BRANCH   1  13
ATOM     13  C1  <0> d          -2.545   1.382   0.022  0.00  0.00    -0.048 C 
ATOM     14  H1  <0> d          -2.857   1.198   1.050  0.00  0.00     0.033 H 
ATOM     15  H2  <0> d          -3.300   1.982  -0.485  0.00  0.00     0.033 H 
ATOM     16  H3  <0> d          -2.428   0.431  -0.498  0.00  0.00     0.033 H 
ENDBRANCH   1  13
TORSDOF 1
