REMARK  2 active torsions:
REMARK  status: ('A' for Active; 'I' for Inactive)
REMARK    1  A    between atoms: C2_2  and  C5_8 
REMARK    2  A    between atoms: C3_3  and  N3_7 
REMARK       I    between atoms: C5_8  and  N4_10 
ROOT
ATOM      1  C1  <0> d           1.176  -2.103  -0.105  0.00  0.00     0.022 A 
ATOM      2  C2  <0> d           1.220  -0.706  -0.119  0.00  0.00     0.094 A 
ATOM      3  C3  <0> d           0.001  -0.004  -0.014  0.00  0.00     0.139 A 
ATOM      4  N1  <0> d          -1.128  -0.698   0.099  0.00  0.00    -0.224 NA
ATOM      5  C4  <0> d          -1.114  -2.014   0.102  0.00  0.00     0.088 A 
ATOM      6  N2  <0> d           0.005  -2.706   0.005  0.00  0.00    -0.253 NA
ATOM      7  H1  <0> d           2.085  -2.680  -0.183  0.00  0.00     0.116 H 
ATOM      8  H2  <0> d          -2.050  -2.546   0.191  0.00  0.00     0.146 H 
ENDROOT
BRANCH   2   9
ATOM      9  C5  <0> d           2.501   0.013  -0.240  0.00  0.00     0.254 C 
ATOM     10  O1  <0> d           2.530   1.225  -0.145  0.00  0.00    -0.268 OA
ATOM     11  N4  <0> d           3.641  -0.673  -0.455  0.00  0.00    -0.366 N 
ATOM     12  H5  <0> d           3.618  -1.640  -0.531  0.00  0.00     0.159 HD
ATOM     13  H6  <0> d           4.484  -0.201  -0.535  0.00  0.00     0.159 HD
ENDBRANCH   2   9
BRANCH   3  14
ATOM     14  N3  <0> d          -0.020   1.375  -0.022  0.00  0.00    -0.383 N 
ATOM     15  H3  <0> d           0.813   1.872  -0.022  0.00  0.00     0.157 HD
ATOM     16  H4  <0> d          -0.867   1.847  -0.032  0.00  0.00     0.157 HD
ENDBRANCH   3  14
TORSDOF 2
