REMARK  0 active torsions:
REMARK  status: ('A' for Active; 'I' for Inactive)
ROOT
ATOM      1  C1  <0> d           1.207  -0.687  -0.014  0.00  0.00    -0.045 A 
ATOM      2  C2  <0> d           2.397   0.019  -0.021  0.00  0.00    -0.071 A 
ATOM      3  C3  <0> d           2.380   1.395  -0.013  0.00  0.00    -0.022 A 
ATOM      4  C4  <0> d           1.179   2.093   0.002  0.00  0.00     0.044 A 
ATOM      5  C5  <0> d          -0.017   1.378   0.010  0.00  0.00    -0.019 A 
ATOM      6  C6  <0> d           0.002  -0.004   0.002  0.00  0.00     0.118 A 
ATOM      7  F1  <0> d          -1.161  -0.692   0.009  0.00  0.00    -0.206 F 
ATOM      8  N1  <0> d           1.419   3.467   0.008  0.00  0.00    -0.326 N 
ATOM      9  C7  <0> d           2.732   3.754  -0.003  0.00  0.00     0.226 A 
ATOM     10  O1  <0> d           3.227   4.862  -0.001  0.00  0.00    -0.273 OA
ATOM     11  C8  <0> d           3.476   2.436  -0.018  0.00  0.00     0.035 A 
ATOM     12  H1  <0> d           1.217  -1.767  -0.020  0.00  0.00     0.088 H 
ATOM     13  H2  <0> d           3.339  -0.510  -0.034  0.00  0.00     0.084 H 
ATOM     14  H3  <0> d          -0.960   1.904   0.017  0.00  0.00     0.091 H 
ATOM     15  H4  <0> d           0.719   4.139   0.019  0.00  0.00     0.169 HD
ATOM     16  H5  <0> d           4.099   2.339   0.872  0.00  0.00     0.054 H 
ATOM     17  H6  <0> d           4.081   2.350  -0.920  0.00  0.00     0.054 H 
ENDROOT
TORSDOF 0
