REMARK  1 active torsions:
REMARK  status: ('A' for Active; 'I' for Inactive)
REMARK    1  A    between atoms: C1_1  and  C2_2 
ROOT
ATOM      1  C2  <0> d           0.002  -0.004   0.002  0.00  0.00     0.055 A 
ATOM      2  C3  <0> d           0.008  -0.805  -1.134  0.00  0.00    -0.012 A 
ATOM      3  C4  <0> d           0.028  -2.123  -0.716  0.00  0.00     0.158 A 
ATOM      4  N1  <0> d           0.041  -3.301  -1.362  0.00  0.00    -0.222 NA
ATOM      5  C5  <0> d           0.060  -4.423  -0.681  0.00  0.00     0.093 A 
ATOM      6  N2  <0> d           0.067  -4.425   0.650  0.00  0.00    -0.198 NA
ATOM      7  C6  <0> d           0.054  -3.297   1.331  0.00  0.00     0.303 A 
ATOM      8  O1  <0> d           0.061  -3.315   2.680  0.00  0.00    -0.147 OA
ATOM      9  N3  <0> d           0.034  -2.109   0.658  0.00  0.00    -0.174 N 
ATOM     10  N4  <0> d           0.023  -0.772   1.067  0.00  0.00    -0.168 NA
ATOM     11  H4  <0> d          -0.002  -0.461  -2.157  0.00  0.00     0.092 H 
ATOM     12  H5  <0> d           0.070  -5.364  -1.212  0.00  0.00     0.147 H 
ENDROOT
BRANCH   1  13
ATOM     13  C1  <0> d          -0.018   1.503   0.010  0.00  0.00    -0.034 C 
ATOM     14  H1  <0> d           1.004   1.880   0.003  0.00  0.00     0.035 H 
ATOM     15  H2  <0> d          -0.545   1.864  -0.873  0.00  0.00     0.035 H 
ATOM     16  H3  <0> d          -0.529   1.854   0.907  0.00  0.00     0.035 H 
ENDBRANCH   1  13
TORSDOF 1
