REMARK  2 active torsions:
REMARK  status: ('A' for Active; 'I' for Inactive)
REMARK    1  A    between atoms: C1_1  and  N1_2 
REMARK    2  A    between atoms: C4_5  and  N3_7 
ROOT
ATOM      1  N1  <0> d           0.631   3.163   0.013  0.00  0.00    -0.283 N 
ATOM      2  C2  <0> d           1.070   1.887   0.002  0.00  0.00     0.002 A 
ATOM      3  C3  <0> d          -0.013   1.076   0.008  0.00  0.00    -0.021 A 
ATOM      4  C4  <0> d          -1.159   1.887   0.017  0.00  0.00     0.142 A 
ATOM      5  N2  <0> d          -0.770   3.140   0.026  0.00  0.00    -0.156 NA
ATOM      6  H4  <0> d           2.102   1.570  -0.009  0.00  0.00     0.114 H 
ATOM      7  H5  <0> d           0.002  -0.004   0.002  0.00  0.00     0.091 H 
ENDROOT
BRANCH   1   8
ATOM      8  C1  <0> d           1.472   4.362   0.012  0.00  0.00     0.002 C 
ATOM      9  H1  <0> d           1.671   4.666  -1.016  0.00  0.00     0.059 H 
ATOM     10  H2  <0> d           0.957   5.168   0.535  0.00  0.00     0.059 H 
ATOM     11  H3  <0> d           2.414   4.146   0.516  0.00  0.00     0.059 H 
ENDBRANCH   1   8
BRANCH   4  12
ATOM     12  N3  <0> d          -2.485   1.438   0.019  0.00  0.00    -0.383 N 
ATOM     13  H6  <0> d          -2.674   0.486   0.015  0.00  0.00     0.157 HD
ATOM     14  H7  <0> d          -3.213   2.077   0.026  0.00  0.00     0.157 HD
ENDBRANCH   4  12
TORSDOF 2
