REMARK  3 active torsions:
REMARK  status: ('A' for Active; 'I' for Inactive)
REMARK    1  A    between atoms: C1_1  and  N1_2 
REMARK    2  A    between atoms: C2_3  and  C7_9 
REMARK    3  A    between atoms: C4_5  and  C5_7 
ROOT
ATOM      1  C5  <0> d          -0.827   2.616   4.652  0.00  0.00    -0.056 C 
ATOM      2  C6  <0> d          -0.659   2.927   5.771  0.00  0.00    -0.147 C 
ATOM      3  H5  <0> d          -0.509   3.205   6.772  0.00  0.00     0.167 H 
ENDROOT
BRANCH   1   4
ATOM      4  C4  <0> d          -1.032   2.236   3.286  0.00  0.00     0.132 A 
ATOM      5  C3  <0> d          -2.265   2.229   2.610  0.00  0.00    -0.009 A 
ATOM      6  C2  <0> d          -2.035   1.812   1.329  0.00  0.00     0.107 A 
ATOM      7  H4  <0> d          -3.222   2.507   3.027  0.00  0.00     0.092 H 
ATOM      8  N1  <0> d          -0.698   1.558   1.213  0.00  0.00    -0.265 N 
ATOM      9  N2  <0> d          -0.098   1.835   2.448  0.00  0.00    -0.163 NA
BRANCH   6  10
ATOM     10  C7  <0> d          -3.017   1.665   0.298  0.00  0.00    -0.058 C 
ATOM     11  C8  <0> d          -3.822   1.545  -0.548  0.00  0.00    -0.147 C 
ATOM     12  H6  <0> d          -4.543   1.438  -1.305  0.00  0.00     0.167 H 
ENDBRANCH   6  10
BRANCH   8  13
ATOM     13  C1  <0> d          -0.013   1.086   0.008  0.00  0.00     0.004 C 
ATOM     14  H1  <0> d           0.002  -0.004   0.002  0.00  0.00     0.059 H 
ATOM     15  H2  <0> d           1.010   1.463   0.000  0.00  0.00     0.059 H 
ATOM     16  H3  <0> d          -0.540   1.447  -0.875  0.00  0.00     0.059 H 
ENDBRANCH   8  13
ENDBRANCH   1   4
TORSDOF 3
