REMARK  3 active torsions:
REMARK  status: ('A' for Active; 'I' for Inactive)
REMARK    1  A    between atoms: C1_1  and  C2_2 
REMARK    2  A    between atoms: C2_2  and  C3_3 
REMARK    3  A    between atoms: C3_3  and  C4_4 
ROOT
ATOM      1  C3  <0> d           1.756  -1.813  -0.025  0.00  0.00    -0.005 C 
ATOM      2  H6  <0> d           1.458  -2.295  -0.957  0.00  0.00     0.044 H 
ATOM      3  H7  <0> d           2.843  -1.815   0.054  0.00  0.00     0.044 H 
ENDROOT
BRANCH   1   4
ATOM      4  C2  <0> d           1.157  -2.576   1.158  0.00  0.00    -0.062 C 
ATOM      5  H4  <0> d           1.454  -2.094   2.089  0.00  0.00     0.033 H 
ATOM      6  H5  <0> d           0.070  -2.574   1.079  0.00  0.00     0.033 H 
BRANCH   4   7
ATOM      7  C1  <0> d           1.666  -4.019   1.145  0.00  0.00    -0.076 C 
ATOM      8  H1  <0> d           1.240  -4.562   1.987  0.00  0.00     0.027 H 
ATOM      9  H2  <0> d           1.369  -4.501   0.213  0.00  0.00     0.027 H 
ATOM     10  H3  <0> d           2.753  -4.021   1.224  0.00  0.00     0.027 H 
ENDBRANCH   4   7
ENDBRANCH   1   4
BRANCH   1  11
ATOM     11  C4  <0> d           1.254  -0.392  -0.012  0.00  0.00     0.173 A 
ATOM     12  N3  <0> d           0.002  -0.004   0.002  0.00  0.00    -0.112 NA
ATOM     13  N2  <0> d          -0.015   1.284   0.009  0.00  0.00    -0.021 NA
ATOM     14  N1  <0> d           1.193   1.728  -0.000  0.00  0.00    -0.021 NA
ATOM     15  N4  <0> d           1.990   0.725  -0.013  0.00  0.00    -0.112 NA
ENDBRANCH   1  11
TORSDOF 3
