REMARK  1 active torsions:
REMARK  status: ('A' for Active; 'I' for Inactive)
REMARK    1  A    between atoms: C3_3  and  C8_10 
ROOT
ATOM      1  C1  <0> d          -0.018   1.501   0.010  0.00  0.00    -0.058 C 
ATOM      2  C2  <0> d           1.417   2.044  -0.001  0.00  0.00    -0.052 C 
ATOM      3  C3  <0> d           2.036   2.030   1.327  0.00  0.00     0.031 C 
ATOM      4  H1  <0> d           1.417   2.610   2.011  0.00  0.00     0.056 H 
ATOM      5  C4  <0> d           2.199   0.611   1.889  0.00  0.00    -0.046 C 
ATOM      6  C5  <0> d           0.896   0.138   2.475  0.00  0.00    -0.009 C 
ATOM      7  C6  <0> d           0.042  -0.561   1.422  0.00  0.00     0.127 C 
ATOM      8  O1  <0> d          -0.597  -1.544   1.709  0.00  0.00    -0.298 OA
ATOM      9  C7  <0> d           0.002  -0.004   0.002  0.00  0.00    -0.010 C 
ATOM     10  H2  <0> d          -0.531   1.851   0.906  0.00  0.00     0.033 H 
ATOM     11  H3  <0> d          -0.548   1.860  -0.872  0.00  0.00     0.033 H 
ATOM     12  H4  <0> d           2.019   1.436  -0.676  0.00  0.00     0.034 H 
ATOM     13  H5  <0> d           1.403   3.069  -0.371  0.00  0.00     0.034 H 
ATOM     14  H6  <0> d           2.501  -0.063   1.088  0.00  0.00     0.034 H 
ATOM     15  H7  <0> d           2.964   0.614   2.666  0.00  0.00     0.034 H 
ATOM     16  H8  <0> d           1.101  -0.557   3.289  0.00  0.00     0.044 H 
ATOM     17  H9  <0> d           0.349   0.995   2.868  0.00  0.00     0.044 H 
ATOM     18  H10 <0> d          -0.892  -0.371  -0.501  0.00  0.00     0.044 H 
ATOM     19  H11 <0> d           0.883  -0.347  -0.541  0.00  0.00     0.044 H 
ENDROOT
BRANCH   3  20
ATOM     20  C8  <0> d           3.396   2.674   1.238  0.00  0.00     0.177 C 
ATOM     21  O2  <0> d           3.780   3.413   2.128  0.00  0.00    -0.648 OA
ATOM     22  O3  <0> d           4.111   2.457   0.275  0.00  0.00    -0.648 OA
ENDBRANCH   3  20
TORSDOF 1
