REMARK  3 active torsions:
REMARK  status: ('A' for Active; 'I' for Inactive)
REMARK    1  A    between atoms: C1_1  and  C2_2 
REMARK    2  A    between atoms: C7_7  and  O1_8 
REMARK    3  A    between atoms: O1_8  and  C8_9 
ROOT
ATOM      1  C2  <0> d           0.002  -0.004   0.002  0.00  0.00    -0.027 A 
ATOM      2  C3  <0> d           0.006  -0.687  -1.199  0.00  0.00    -0.074 A 
ATOM      3  C4  <0> d           0.025  -2.072  -1.217  0.00  0.00    -0.081 A 
ATOM      4  C5  <0> d           0.040  -2.783  -0.036  0.00  0.00    -0.060 A 
ATOM      5  C6  <0> d           0.037  -2.104   1.185  0.00  0.00     0.078 A 
ATOM      6  C7  <0> d           0.023  -0.703   1.199  0.00  0.00     0.094 A 
ATOM      7  C9  <0> d           0.052  -2.837   2.416  0.00  0.00     0.102 C 
ATOM      8  N1  <0> d           0.065  -3.417   3.392  0.00  0.00    -0.191 NA
ATOM      9  H4  <0> d          -0.007  -0.138  -2.129  0.00  0.00     0.084 H 
ATOM     10  H5  <0> d           0.028  -2.597  -2.161  0.00  0.00     0.083 H 
ATOM     11  H6  <0> d           0.054  -3.862  -0.055  0.00  0.00     0.086 H 
ENDROOT
BRANCH   6  12
ATOM     12  O1  <0> d           0.025  -0.032   2.379  0.00  0.00    -0.354 OA
BRANCH  12  13
ATOM     13  C8  <0> d          -1.248   0.270   2.955  0.00  0.00     0.010 C 
ATOM     14  H7  <0> d          -1.790  -0.656   3.145  0.00  0.00     0.066 H 
ATOM     15  H8  <0> d          -1.104   0.806   3.893  0.00  0.00     0.066 H 
ATOM     16  H9  <0> d          -1.820   0.892   2.266  0.00  0.00     0.066 H 
ENDBRANCH  12  13
ENDBRANCH   6  12
BRANCH   1  17
ATOM     17  C1  <0> d          -0.018   1.503   0.010  0.00  0.00    -0.049 C 
ATOM     18  H1  <0> d           1.004   1.880   0.003  0.00  0.00     0.033 H 
ATOM     19  H2  <0> d          -0.545   1.864  -0.873  0.00  0.00     0.033 H 
ATOM     20  H3  <0> d          -0.529   1.854   0.907  0.00  0.00     0.033 H 
ENDBRANCH   1  17
TORSDOF 3
