REMARK  2 active torsions:
REMARK  status: ('A' for Active; 'I' for Inactive)
REMARK    1  A    between atoms: C1_1  and  C2_2 
REMARK    2  A    between atoms: C2_2  and  C6_6 
REMARK       I    between atoms: C6_6  and  N1_8 
ROOT
ATOM      1  C2  <0> d           1.518   1.476  -0.004  0.00  0.00     0.037 C 
ATOM      2  C3  <0> d          -0.019   1.534   0.011  0.00  0.00    -0.050 C 
ATOM      3  C4  <0> d           0.002  -0.004   0.002  0.00  0.00    -0.063 C 
ATOM      4  C5  <0> d           1.394   0.090   0.649  0.00  0.00    -0.050 C 
ATOM      5  H4  <0> d          -0.448   1.969  -0.892  0.00  0.00     0.034 H 
ATOM      6  H5  <0> d          -0.431   1.960   0.925  0.00  0.00     0.034 H 
ATOM      7  H6  <0> d          -0.751  -0.455   0.649  0.00  0.00     0.033 H 
ATOM      8  H7  <0> d           0.014  -0.435  -0.999  0.00  0.00     0.033 H 
ATOM      9  H8  <0> d           1.368   0.121   1.738  0.00  0.00     0.034 H 
ATOM     10  H9  <0> d           2.105  -0.640   0.262  0.00  0.00     0.034 H 
ENDROOT
BRANCH   1  11
ATOM     11  C1  <0> d           2.179   2.521   0.896  0.00  0.00    -0.061 C 
ATOM     12  H1  <0> d           1.858   2.368   1.927  0.00  0.00     0.029 H 
ATOM     13  H2  <0> d           3.263   2.421   0.835  0.00  0.00     0.029 H 
ATOM     14  H3  <0> d           1.888   3.519   0.569  0.00  0.00     0.029 H 
ENDBRANCH   1  11
BRANCH   1  15
ATOM     15  C6  <0> d           2.107   1.440  -1.391  0.00  0.00     0.223 C 
ATOM     16  O1  <0> d           1.378   1.457  -2.360  0.00  0.00    -0.273 OA
ATOM     17  N1  <0> d           3.444   1.388  -1.554  0.00  0.00    -0.369 N 
ATOM     18  H10 <0> d           4.027   1.375  -0.779  0.00  0.00     0.159 HD
ATOM     19  H11 <0> d           3.823   1.365  -2.446  0.00  0.00     0.159 HD
ENDBRANCH   1  15
TORSDOF 2
