REMARK  8 active torsions:
REMARK  status: ('A' for Active; 'I' for Inactive)
REMARK    1  A    between atoms: C1_1  and  C2_2 
REMARK    2  A    between atoms: C2_2  and  C3_3 
REMARK    3  A    between atoms: C3_3  and  C4_5 
REMARK    4  A    between atoms: C3_3  and  O1_10 
REMARK    5  A    between atoms: C4_5  and  C5_6 
REMARK    6  A    between atoms: C5_6  and  C6_7 
REMARK    7  A    between atoms: C6_7  and  C7_8 
REMARK    8  A    between atoms: C6_7  and  C8_9 
ROOT
ATOM      1  C4  <0> d          -0.630   1.667   3.762  0.00  0.00    -0.041 C 
ATOM      2  H7  <0> d          -0.648   2.754   3.681  0.00  0.00     0.036 H 
ATOM      3  H8  <0> d          -1.649   1.293   3.861  0.00  0.00     0.036 H 
ENDROOT
BRANCH   1   4
ATOM      4  C3  <0> d           0.011   1.072   2.506  0.00  0.00     0.035 C 
ATOM      5  H1  <0> d           1.057   1.375   2.454  0.00  0.00     0.082 H 
BRANCH   4   6
ATOM      6  C2  <0> d          -0.729   1.579   1.267  0.00  0.00    -0.044 C 
ATOM      7  H5  <0> d          -0.744   2.669   1.273  0.00  0.00     0.036 H 
ATOM      8  H6  <0> d          -1.751   1.202   1.275  0.00  0.00     0.036 H 
BRANCH   6   9
ATOM      9  C1  <0> d          -0.013   1.086   0.008  0.00  0.00    -0.074 C 
ATOM     10  H2  <0> d           0.002  -0.004   0.002  0.00  0.00     0.027 H 
ATOM     11  H3  <0> d           1.010   1.463   0.000  0.00  0.00     0.027 H 
ATOM     12  H4  <0> d          -0.540   1.447  -0.875  0.00  0.00     0.027 H 
ENDBRANCH   6   9
ENDBRANCH   4   6
BRANCH   4  13
ATOM     13  O1  <0> d          -0.070  -0.353   2.560  0.00  0.00    -0.396 OA
ATOM     14  H18 <0> d          -0.973  -0.695   2.607  0.00  0.00     0.210 HD
ENDBRANCH   4  13
ENDBRANCH   1   4
BRANCH   1  15
ATOM     15  C5  <0> d           0.184   1.261   4.992  0.00  0.00    -0.060 C 
ATOM     16  H9  <0> d           0.203   0.174   5.073  0.00  0.00     0.033 H 
ATOM     17  H10 <0> d           1.203   1.635   4.892  0.00  0.00     0.033 H 
BRANCH  15  18
ATOM     18  C6  <0> d          -0.457   1.855   6.247  0.00  0.00    -0.061 C 
ATOM     19  H11 <0> d          -1.503   1.553   6.299  0.00  0.00     0.038 H 
BRANCH  18  20
ATOM     20  C7  <0> d           0.283   1.349   7.487  0.00  0.00    -0.073 C 
ATOM     21  H12 <0> d           1.329   1.651   7.435  0.00  0.00     0.028 H 
ATOM     22  H13 <0> d          -0.174   1.772   8.381  0.00  0.00     0.028 H 
ATOM     23  H14 <0> d           0.221   0.261   7.527  0.00  0.00     0.028 H 
ENDBRANCH  18  20
BRANCH  18  24
ATOM     24  C8  <0> d          -0.370   3.382   6.190  0.00  0.00    -0.073 C 
ATOM     25  H15 <0> d          -0.827   3.805   7.085  0.00  0.00     0.028 H 
ATOM     26  H16 <0> d           0.676   3.685   6.138  0.00  0.00     0.028 H 
ATOM     27  H17 <0> d          -0.897   3.743   5.307  0.00  0.00     0.028 H 
ENDBRANCH  18  24
ENDBRANCH  15  18
ENDBRANCH   1  15
TORSDOF 8
