REMARK  0 active torsions:
REMARK  status: ('A' for Active; 'I' for Inactive)
ROOT
ATOM      1  C1  <0> d           3.116   2.394   1.179  0.00  0.00    -0.019 A 
ATOM      2  C2  <0> d           3.694   2.673  -0.053  0.00  0.00     0.052 A 
ATOM      3  C3  <0> d           3.002   2.365  -1.208  0.00  0.00     0.000 A 
ATOM      4  N1  <0> d           1.805   1.812  -1.154  0.00  0.00    -0.340 N 
ATOM      5  C4  <0> d           1.222   1.531  -0.001  0.00  0.00     0.217 A 
ATOM      6  C5  <0> d           1.857   1.819   1.203  0.00  0.00     0.171 A 
ATOM      7  F1  <0> d           1.252   1.540   2.379  0.00  0.00    -0.201 F 
ATOM      8  O1  <0> d          -0.011   0.962   0.007  0.00  0.00    -0.169 OA
ATOM      9 Cl1  <0> d           5.267   3.401  -0.140  0.00  0.00    -0.083 Cl
ATOM     10  H1  <0> d           3.588   2.599   2.037  0.00  0.00     0.091 H 
ATOM     11  H2  <0> d           3.408   2.562  -2.101  0.00  0.00     0.114 H 
ATOM     12  H3  <0> d           1.291   1.585  -2.100  0.00  0.00     0.167 HD
ENDROOT
TORSDOF 0
