REMARK  2 active torsions:
REMARK  status: ('A' for Active; 'I' for Inactive)
REMARK    1  A    between atoms: C1_1  and  C2_2 
REMARK    2  A    between atoms: C3_3  and  C5_9 
ROOT
ATOM      1  C2  <0> d           0.002  -0.004   0.002  0.00  0.00     0.021 A 
ATOM      2  C3  <0> d          -1.129  -0.716   0.004  0.00  0.00     0.006 A 
ATOM      3  S1  <0> d          -0.508  -2.388  -0.008  0.00  0.00    -0.032 SA
ATOM      4  C4  <0> d           1.138  -2.048  -0.015  0.00  0.00     0.288 A 
ATOM      5  O1  <0> d           2.072  -2.830  -0.024  0.00  0.00    -0.260 OA
ATOM      6  N1  <0> d           1.176  -0.699  -0.013  0.00  0.00    -0.321 N 
ATOM      7  H1  <0> d           2.025  -0.230  -0.020  0.00  0.00     0.169 HD
ENDROOT
BRANCH   1   8
ATOM      8  C1  <0> d          -0.018   1.503   0.010  0.00  0.00    -0.036 C 
ATOM      9  H2  <0> d           1.004   1.880   0.003  0.00  0.00     0.035 H 
ATOM     10  H3  <0> d          -0.545   1.864  -0.873  0.00  0.00     0.035 H 
ATOM     11  H4  <0> d          -0.529   1.854   0.907  0.00  0.00     0.035 H 
ENDBRANCH   1   8
BRANCH   2  12
ATOM     12  C5  <0> d          -2.556  -0.232   0.014  0.00  0.00    -0.043 C 
ATOM     13  H5  <0> d          -2.905  -0.109  -1.011  0.00  0.00     0.034 H 
ATOM     14  H6  <0> d          -3.183  -0.961   0.527  0.00  0.00     0.034 H 
ATOM     15  H7  <0> d          -2.611   0.725   0.534  0.00  0.00     0.034 H 
ENDBRANCH   2  12
TORSDOF 2
