REMARK  2 active torsions:
REMARK  status: ('A' for Active; 'I' for Inactive)
REMARK    1  A    between atoms: C1_1  and  C2_2 
REMARK    2  A    between atoms: C7_7  and  N1_8 
ROOT
ATOM      1  C2  <0> d           2.397   1.409  -0.013  0.00  0.00    -0.034 A 
ATOM      2  C3  <0> d           2.399   0.028  -0.021  0.00  0.00    -0.075 A 
ATOM      3  C4  <0> d           1.206  -0.675  -0.013  0.00  0.00    -0.081 A 
ATOM      4  C5  <0> d           0.002  -0.004   0.002  0.00  0.00    -0.061 A 
ATOM      5  C6  <0> d          -0.017   1.393   0.010  0.00  0.00     0.071 A 
ATOM      6  C7  <0> d           1.194   2.102   0.002  0.00  0.00     0.052 A 
ATOM      7  C8  <0> d          -1.264   2.096   0.019  0.00  0.00     0.102 C 
ATOM      8  N2  <0> d          -2.253   2.654   0.027  0.00  0.00    -0.191 NA
ATOM      9  H4  <0> d           3.337  -0.507  -0.033  0.00  0.00     0.084 H 
ATOM     10  H5  <0> d           1.219  -1.755  -0.019  0.00  0.00     0.083 H 
ATOM     11  H6  <0> d          -0.925  -0.557   0.008  0.00  0.00     0.086 H 
ENDROOT
BRANCH   6  12
ATOM     12  N1  <0> d           1.190   3.493   0.009  0.00  0.00    -0.397 N 
ATOM     13  H7  <0> d           0.348   3.975   0.019  0.00  0.00     0.156 HD
ATOM     14  H8  <0> d           2.028   3.981   0.004  0.00  0.00     0.156 HD
ENDBRANCH   6  12
BRANCH   1  15
ATOM     15  C1  <0> d           3.701   2.164  -0.020  0.00  0.00    -0.049 C 
ATOM     16  H1  <0> d           4.007   2.351  -1.050  0.00  0.00     0.033 H 
ATOM     17  H2  <0> d           3.575   3.113   0.500  0.00  0.00     0.033 H 
ATOM     18  H3  <0> d           4.466   1.572   0.483  0.00  0.00     0.033 H 
ENDBRANCH   1  15
TORSDOF 2
