REMARK  3 active torsions:
REMARK  status: ('A' for Active; 'I' for Inactive)
REMARK    1  A    between atoms: C2_3  and  N5_9 
REMARK    2  A    between atoms: C3_4  and  N4_8 
REMARK    3  A    between atoms: C4_5  and  N3_7 
ROOT
ATOM      1  C1  <0> d           1.105   2.019   0.002  0.00  0.00     0.091 A 
ATOM      2  N1  <0> d          -0.016   1.327   0.009  0.00  0.00    -0.222 NA
ATOM      3  C2  <0> d           0.002  -0.004   0.002  0.00  0.00     0.152 A 
ATOM      4  C3  <0> d           1.232  -0.663  -0.013  0.00  0.00     0.117 A 
ATOM      5  C4  <0> d           2.395   0.110  -0.020  0.00  0.00     0.152 A 
ATOM      6  N2  <0> d           2.287   1.436  -0.012  0.00  0.00    -0.222 NA
ATOM      7  H1  <0> d           1.054   3.098   0.009  0.00  0.00     0.146 H 
ENDROOT
BRANCH   3   8
ATOM      8  N5  <0> d          -1.185  -0.726   0.010  0.00  0.00    -0.382 N 
ATOM      9  H6  <0> d          -2.036  -0.260   0.021  0.00  0.00     0.157 HD
ATOM     10  H7  <0> d          -1.164  -1.696   0.004  0.00  0.00     0.157 HD
ENDBRANCH   3   8
BRANCH   4  11
ATOM     11  N4  <0> d           1.299  -2.067  -0.022  0.00  0.00    -0.393 N 
ATOM     12  H4  <0> d           0.483  -2.591  -0.017  0.00  0.00     0.156 HD
ATOM     13  H5  <0> d           2.161  -2.511  -0.033  0.00  0.00     0.156 HD
ENDBRANCH   4  11
BRANCH   5  14
ATOM     14  N3  <0> d           3.645  -0.496  -0.035  0.00  0.00    -0.382 N 
ATOM     15  H2  <0> d           3.715  -1.464  -0.041  0.00  0.00     0.157 HD
ATOM     16  H3  <0> d           4.448   0.048  -0.040  0.00  0.00     0.157 HD
ENDBRANCH   5  14
TORSDOF 3
