REMARK  3 active torsions:
REMARK  status: ('A' for Active; 'I' for Inactive)
REMARK    1  A    between atoms: C1_1  and  N1_2 
REMARK    2  A    between atoms: N1_2  and  C2_3 
REMARK    3  A    between atoms: C5_6  and  O1_9 
ROOT
ATOM      1  C2  <0> d          -1.200  -0.720   0.010  0.00  0.00     0.027 A 
ATOM      2  C3  <0> d          -2.412  -0.043   0.019  0.00  0.00    -0.055 A 
ATOM      3  C4  <0> d          -3.598  -0.750   0.026  0.00  0.00    -0.049 A 
ATOM      4  C5  <0> d          -3.579  -2.137   0.024  0.00  0.00     0.065 A 
ATOM      5  C6  <0> d          -2.369  -2.815   0.015  0.00  0.00    -0.049 A 
ATOM      6  C7  <0> d          -1.182  -2.109   0.002  0.00  0.00    -0.055 A 
ATOM      7  H5  <0> d          -2.428   1.037   0.021  0.00  0.00     0.087 H 
ATOM      8  H6  <0> d          -4.541  -0.224   0.034  0.00  0.00     0.087 H 
ATOM      9  H7  <0> d          -2.355  -3.894   0.013  0.00  0.00     0.087 H 
ATOM     10  H8  <0> d          -0.240  -2.636  -0.010  0.00  0.00     0.087 H 
ENDROOT
BRANCH   1  11
ATOM     11  N1  <0> d           0.002  -0.004   0.002  0.00  0.00    -0.394 N 
ATOM     12  H4  <0> d           0.849  -0.478  -0.009  0.00  0.00     0.159 HD
BRANCH  11  13
ATOM     13  C1  <0> d          -0.018   1.461   0.010  0.00  0.00    -0.021 C 
ATOM     14  H1  <0> d           1.005   1.838   0.002  0.00  0.00     0.056 H 
ATOM     15  H2  <0> d          -0.545   1.822  -0.873  0.00  0.00     0.056 H 
ATOM     16  H3  <0> d          -0.528   1.812   0.907  0.00  0.00     0.056 H 
ENDBRANCH  11  13
ENDBRANCH   1  11
BRANCH   4  17
ATOM     17  O1  <0> d          -4.747  -2.833   0.031  0.00  0.00    -0.361 OA
ATOM     18  H9  <0> d          -5.091  -3.033  -0.851  0.00  0.00     0.217 HD
ENDBRANCH   4  17
TORSDOF 3
