REMARK  0 active torsions:
REMARK  status: ('A' for Active; 'I' for Inactive)
ROOT
ATOM      1  C1  <0> d           0.750   3.620   1.976  0.00  0.00    -0.044 C 
ATOM      2  C2  <0> d           2.103   3.295   2.572  0.00  0.00    -0.004 C 
ATOM      3  N1  <0> d           2.674   2.079   2.022  0.00  0.00    -0.360 N 
ATOM      4  C3  <0> d           2.290   1.548   0.862  0.00  0.00     0.231 C 
ATOM      5  O1  <0> d           2.861   0.548   0.481  0.00  0.00    -0.273 OA
ATOM      6  C4  <0> d           1.207   2.097   0.002  0.00  0.00     0.105 C 
ATOM      7  H1  <0> d           1.688   2.149  -0.987  0.00  0.00     0.070 H 
ATOM      8  C5  <0> d           0.698   3.463   0.470  0.00  0.00    -0.017 C 
ATOM      9  H2  <0> d           1.302   4.295   0.079  0.00  0.00     0.044 H 
ATOM     10  C6  <0> d          -0.788   3.400   0.031  0.00  0.00    -0.000 C 
ATOM     11  N2  <0> d          -1.125   1.971   0.018  0.00  0.00    -0.360 N 
ATOM     12  C7  <0> d          -0.014   1.209   0.009  0.00  0.00     0.231 C 
ATOM     13  O2  <0> d           0.002  -0.004   0.002  0.00  0.00    -0.273 OA
ATOM     14  H3  <0> d           0.514   4.660   2.245  0.00  0.00     0.036 H 
ATOM     15  H4  <0> d           0.016   2.945   2.441  0.00  0.00     0.036 H 
ATOM     16  H5  <0> d           2.801   4.121   2.368  0.00  0.00     0.064 H 
ATOM     17  H6  <0> d           2.002   3.161   3.659  0.00  0.00     0.064 H 
ATOM     18  H7  <0> d           3.467   1.548   2.568  0.00  0.00     0.162 HD
ATOM     19  H8  <0> d          -1.407   3.955   0.751  0.00  0.00     0.064 H 
ATOM     20  H9  <0> d          -0.894   3.850  -0.968  0.00  0.00     0.064 H 
ATOM     21  H10 <0> d          -2.179   1.654   0.016  0.00  0.00     0.162 HD
ENDROOT
TORSDOF 0
