REMARK  1 active torsions:
REMARK  status: ('A' for Active; 'I' for Inactive)
REMARK    1  A    between atoms: C2_2  and  C4_6 
ROOT
ATOM      1  C1  <0> d          -0.016   1.296   0.009  0.00  0.00     0.047 A 
ATOM      2  C2  <0> d           1.398   1.704  -0.002  0.00  0.00     0.084 A 
ATOM      3  C3  <0> d           2.063   0.501  -0.015  0.00  0.00     0.061 A 
ATOM      4  O1  <0> d           1.124  -0.447  -0.011  0.00  0.00    -0.225 OA
ATOM      5  N1  <0> d           0.002  -0.004   0.002  0.00  0.00    -0.140 NA
ATOM      6  H1  <0> d          -0.883   1.939   0.017  0.00  0.00     0.119 H 
ATOM      7  H2  <0> d           3.133   0.353  -0.026  0.00  0.00     0.128 H 
ENDROOT
BRANCH   2   8
ATOM      8  C4  <0> d           1.961   3.065  -0.001  0.00  0.00     0.212 C 
ATOM      9  O2  <0> d           1.221   4.028   0.011  0.00  0.00    -0.644 OA
ATOM     10  O3  <0> d           3.297   3.241  -0.012  0.00  0.00    -0.644 OA
ENDBRANCH   2   8
TORSDOF 1
