REMARK  1 active torsions:
REMARK  status: ('A' for Active; 'I' for Inactive)
REMARK    1  A    between atoms: C4_5  and  C5_6 
ROOT
ATOM      1  C1  <0> d          -1.077   1.915   0.017  0.00  0.00    -0.061 A 
ATOM      2  C2  <0> d          -0.013   1.076   0.008  0.00  0.00    -0.044 A 
ATOM      3  S1  <0> d           1.359   2.219   0.001  0.00  0.00    -0.113 SA
ATOM      4  C3  <0> d           0.421   3.738   0.017  0.00  0.00    -0.030 A 
ATOM      5  C4  <0> d          -0.855   3.279   0.027  0.00  0.00     0.054 A 
ATOM      6  H1  <0> d          -2.083   1.524   0.018  0.00  0.00     0.085 H 
ATOM      7  H2  <0> d           0.002  -0.004   0.002  0.00  0.00     0.095 H 
ATOM      8  H3  <0> d           0.777   4.757   0.019  0.00  0.00     0.096 H 
ENDROOT
BRANCH   5   9
ATOM      9  C5  <0> d          -2.014   4.243   0.043  0.00  0.00     0.417 C 
ATOM     10  F1  <0> d          -1.529   5.555   0.045  0.00  0.00    -0.166 F 
ATOM     11  F2  <0> d          -2.805   4.040  -1.093  0.00  0.00    -0.166 F 
ATOM     12  F3  <0> d          -2.783   4.028   1.192  0.00  0.00    -0.166 F 
ENDBRANCH   5   9
TORSDOF 1
