REMARK  5 active torsions:
REMARK  status: ('A' for Active; 'I' for Inactive)
REMARK    1  A    between atoms: C1_1  and  C2_2 
REMARK    2  A    between atoms: C4_4  and  C10_11 
REMARK    3  A    between atoms: C6_6  and  C8_8 
REMARK    4  A    between atoms: C8_8  and  C9_9 
REMARK    5  A    between atoms: C9_9  and  O1_10 
ROOT
ATOM      1  C2  <0> d           1.359   5.541  -1.178  0.00  0.00    -0.061 A 
ATOM      2  C3  <0> d           1.361   6.226   0.022  0.00  0.00    -0.071 A 
ATOM      3  C4  <0> d           1.381   5.528   1.216  0.00  0.00    -0.061 A 
ATOM      4  C5  <0> d           1.400   4.146   1.208  0.00  0.00    -0.071 A 
ATOM      5  C6  <0> d           1.398   3.461   0.007  0.00  0.00    -0.055 A 
ATOM      6  C7  <0> d           1.383   4.159  -1.186  0.00  0.00    -0.071 A 
ATOM      7  H4  <0> d           1.345   7.306   0.028  0.00  0.00     0.085 H 
ATOM      8  H5  <0> d           1.416   3.601   2.140  0.00  0.00     0.085 H 
ATOM      9  H6  <0> d           1.385   3.624  -2.124  0.00  0.00     0.085 H 
ENDROOT
BRANCH   5  10
ATOM     10  C8  <0> d           1.418   1.954  -0.001  0.00  0.00    -0.021 C 
ATOM     11  H7  <0> d           1.945   1.593   0.882  0.00  0.00     0.043 H 
ATOM     12  H8  <0> d           1.928   1.603  -0.898  0.00  0.00     0.043 H 
BRANCH  10  13
ATOM     13  C9  <0> d          -0.017   1.425   0.010  0.00  0.00     0.020 C 
ATOM     14  H9  <0> d          -0.544   1.786  -0.873  0.00  0.00     0.074 H 
ATOM     15  H10 <0> d          -0.527   1.776   0.907  0.00  0.00     0.074 H 
BRANCH  13  16
ATOM     16  O1  <0> d           0.002  -0.004   0.002  0.00  0.00    -0.401 OA
ATOM     17  H11 <0> d          -0.876  -0.409   0.008  0.00  0.00     0.209 HD
ENDBRANCH  13  16
ENDBRANCH  10  13
ENDBRANCH   5  10
BRANCH   3  18
ATOM     18  C10 <0> d           1.382   6.274   2.525  0.00  0.00    -0.051 C 
ATOM     19  H12 <0> d           2.410   6.468   2.832  0.00  0.00     0.033 H 
ATOM     20  H13 <0> d           0.854   7.221   2.404  0.00  0.00     0.033 H 
ATOM     21  H14 <0> d           0.883   5.674   3.286  0.00  0.00     0.033 H 
ENDBRANCH   3  18
BRANCH   1  22
ATOM     22  C1  <0> d           1.337   6.301  -2.479  0.00  0.00    -0.051 C 
ATOM     23  H1  <0> d           2.359   6.499  -2.802  0.00  0.00     0.033 H 
ATOM     24  H2  <0> d           0.824   5.709  -3.237  0.00  0.00     0.033 H 
ATOM     25  H3  <0> d           0.810   7.246  -2.339  0.00  0.00     0.033 H 
ENDBRANCH   1  22
TORSDOF 5
