REMARK  0 active torsions:
REMARK  status: ('A' for Active; 'I' for Inactive)
ROOT
ATOM      1  C1  <0> d           1.204  -0.680  -0.013  0.00  0.00    -0.060 A 
ATOM      2  C2  <0> d           0.002  -0.004   0.002  0.00  0.00    -0.043 A 
ATOM      3  C3  <0> d          -0.017   1.382   0.010  0.00  0.00     0.138 A 
ATOM      4  C4  <0> d           1.172   2.097   0.002  0.00  0.00     0.074 A 
ATOM      5  C5  <0> d           2.380   1.431  -0.013  0.00  0.00    -0.039 A 
ATOM      6  C6  <0> d           2.404   0.034  -0.021  0.00  0.00     0.046 A 
ATOM      7  C7  <0> d           3.655  -0.663  -0.037  0.00  0.00     0.099 C 
ATOM      8  N1  <0> d           4.647  -1.216  -0.050  0.00  0.00    -0.191 NA
ATOM      9 Cl1  <0> d           1.140   3.832   0.011  0.00  0.00    -0.081 Cl
ATOM     10  F1  <0> d          -1.197   2.039   0.019  0.00  0.00    -0.204 F 
ATOM     11  H1  <0> d           1.217  -1.760  -0.019  0.00  0.00     0.086 H 
ATOM     12  H2  <0> d          -0.926  -0.556   0.007  0.00  0.00     0.088 H 
ATOM     13  H3  <0> d           3.305   1.988  -0.019  0.00  0.00     0.088 H 
ENDROOT
TORSDOF 0
