REMARK  6 active torsions:
REMARK  status: ('A' for Active; 'I' for Inactive)
REMARK    1  A    between atoms: C1_1  and  C2_2 
REMARK    2  A    between atoms: C2_2  and  C3_3 
REMARK    3  A    between atoms: C3_3  and  C4_5 
REMARK    4  A    between atoms: C3_3  and  C5_6 
REMARK    5  A    between atoms: C5_6  and  O2_8 
REMARK    6  A    between atoms: O2_8  and  C6_9 
ROOT
ATOM      1  C3  <0> d          -0.729   1.579   1.267  0.00  0.00     0.026 C 
ATOM      2  H1  <0> d          -0.822   2.665   1.230  0.00  0.00     0.054 H 
ENDROOT
BRANCH   1   3
ATOM      3  C2  <0> d          -0.013   1.086   0.008  0.00  0.00    -0.057 C 
ATOM      4  H5  <0> d           0.002  -0.004   0.002  0.00  0.00     0.033 H 
ATOM      5  H6  <0> d           1.010   1.463   0.000  0.00  0.00     0.033 H 
BRANCH   3   6
ATOM      6  C1  <0> d          -0.753   1.593  -1.232  0.00  0.00    -0.076 C 
ATOM      7  H2  <0> d          -0.242   1.241  -2.128  0.00  0.00     0.027 H 
ATOM      8  H3  <0> d          -1.775   1.215  -1.224  0.00  0.00     0.027 H 
ATOM      9  H4  <0> d          -0.767   2.683  -1.226  0.00  0.00     0.027 H 
ENDBRANCH   3   6
ENDBRANCH   1   3
BRANCH   1  10
ATOM     10  C4  <0> d          -2.121   0.950   1.341  0.00  0.00    -0.064 C 
ATOM     11  H7  <0> d          -2.697   1.235   0.460  0.00  0.00     0.028 H 
ATOM     12  H8  <0> d          -2.028  -0.136   1.378  0.00  0.00     0.028 H 
ATOM     13  H9  <0> d          -2.632   1.301   2.238  0.00  0.00     0.028 H 
ENDBRANCH   1  10
BRANCH   1  14
ATOM     14  C5  <0> d           0.067   1.185   2.485  0.00  0.00     0.262 C 
ATOM     15  O1  <0> d           1.100   0.572   2.358  0.00  0.00    -0.265 OA
BRANCH  14  16
ATOM     16  O2  <0> d          -0.373   1.514   3.709  0.00  0.00    -0.326 OA
BRANCH  16  17
ATOM     17  C6  <0> d           0.444   1.101   4.836  0.00  0.00     0.013 C 
ATOM     18  H10 <0> d          -0.024   1.430   5.764  0.00  0.00     0.067 H 
ATOM     19  H11 <0> d           0.535   0.015   4.840  0.00  0.00     0.067 H 
ATOM     20  H12 <0> d           1.434   1.549   4.750  0.00  0.00     0.067 H 
ENDBRANCH  16  17
ENDBRANCH  14  16
ENDBRANCH   1  14
TORSDOF 6
