REMARK  2 active torsions:
REMARK  status: ('A' for Active; 'I' for Inactive)
REMARK    1  A    between atoms: C1_1  and  C2_2 
REMARK    2  A    between atoms: C6_7  and  C7_8 
ROOT
ATOM      1  C2  <0> d          -0.120   1.506  -0.027  0.00  0.00    -0.028 A 
ATOM      2  C3  <0> d           1.085   2.143  -0.255  0.00  0.00     0.009 A 
ATOM      3  N1  <0> d           1.174   3.458  -0.214  0.00  0.00    -0.273 NA
ATOM      4  C4  <0> d           0.131   4.222   0.044  0.00  0.00     0.003 A 
ATOM      5  C5  <0> d          -1.112   3.668   0.284  0.00  0.00    -0.049 A 
ATOM      6  C6  <0> d          -1.254   2.277   0.245  0.00  0.00     0.049 A 
ATOM      7  H4  <0> d           1.966   1.556  -0.470  0.00  0.00     0.115 H 
ATOM      8  H5  <0> d           0.249   5.295   0.068  0.00  0.00     0.114 H 
ATOM      9  H6  <0> d          -1.962   4.300   0.494  0.00  0.00     0.087 H 
ENDROOT
BRANCH   1  10
ATOM     10  C1  <0> d          -0.211   0.003  -0.077  0.00  0.00    -0.049 C 
ATOM     11  H1  <0> d          -0.129  -0.400   0.932  0.00  0.00     0.033 H 
ATOM     12  H2  <0> d          -1.169  -0.289  -0.508  0.00  0.00     0.033 H 
ATOM     13  H3  <0> d           0.599  -0.391  -0.692  0.00  0.00     0.033 H 
ENDBRANCH   1  10
BRANCH   6  14
ATOM     14  C7  <0> d          -2.567   1.639   0.489  0.00  0.00     0.210 C 
ATOM     15  O1  <0> d          -2.651   0.430   0.562  0.00  0.00    -0.644 OA
ATOM     16  O2  <0> d          -3.669   2.400   0.632  0.00  0.00    -0.644 OA
ENDBRANCH   6  14
TORSDOF 2
