REMARK  3 active torsions:
REMARK  status: ('A' for Active; 'I' for Inactive)
REMARK    1  A    between atoms: C1_1  and  C2_2 
REMARK    2  A    between atoms: C2_2  and  C4_4 
REMARK    3  A    between atoms: C4_4  and  N1_5 
ROOT
ATOM      1  C4  <0> d          -0.000  -0.750  -1.307  0.00  0.00     0.035 C 
ATOM      2  H6  <0> d           0.575  -0.191  -2.045  0.00  0.00     0.074 H 
ATOM      3  H7  <0> d           0.449  -1.734  -1.166  0.00  0.00     0.074 H 
ENDROOT
BRANCH   1   4
ATOM      4  C2  <0> d           0.002  -0.004   0.002  0.00  0.00    -0.073 C 
ATOM      5  C3  <0> d           0.022  -0.665   1.133  0.00  0.00    -0.118 C 
ATOM      6  H4  <0> d           0.036  -1.745   1.127  0.00  0.00     0.067 H 
ATOM      7  H5  <0> d           0.023  -0.130   2.071  0.00  0.00     0.067 H 
BRANCH   4   8
ATOM      8  C1  <0> d          -0.018   1.503   0.010  0.00  0.00    -0.054 C 
ATOM      9  H1  <0> d           1.004   1.880   0.003  0.00  0.00     0.033 H 
ATOM     10  H2  <0> d          -0.545   1.864  -0.873  0.00  0.00     0.033 H 
ATOM     11  H3  <0> d          -0.529   1.854   0.907  0.00  0.00     0.033 H 
ENDBRANCH   4   8
ENDBRANCH   1   4
BRANCH   1  12
ATOM     12  N1  <0> d          -1.379  -0.906  -1.778  0.00  0.00    -0.277 N 
ATOM     13  N2  <0> d          -2.435  -1.482  -1.060  0.00  0.00    -0.185 NA
ATOM     14  C7  <0> d          -3.508  -1.438  -1.806  0.00  0.00     0.023 A 
ATOM     15  C6  <0> d          -3.169  -0.844  -3.026  0.00  0.00    -0.048 A 
ATOM     16  H10 <0> d          -4.487  -1.803  -1.530  0.00  0.00     0.117 H 
ATOM     17  C5  <0> d          -1.854  -0.527  -2.982  0.00  0.00     0.000 A 
ATOM     18  H9  <0> d          -3.838  -0.669  -3.856  0.00  0.00     0.087 H 
ATOM     19  H8  <0> d          -1.287  -0.053  -3.770  0.00  0.00     0.114 H 
ENDBRANCH   1  12
TORSDOF 3
