REMARK  3 active torsions:
REMARK  status: ('A' for Active; 'I' for Inactive)
REMARK    1  A    between atoms: C1_1  and  C2_2 
REMARK    2  A    between atoms: C2_2  and  N1_3 
REMARK       I    between atoms: N1_3  and  C3_4 
REMARK    3  A    between atoms: C3_4  and  C4_6 
ROOT
ATOM      1  N1  <0> d           2.257   5.349   0.010  0.00  0.00    -0.357 N 
ATOM      2  C3  <0> d           2.337   4.003   0.002  0.00  0.00     0.253 C 
ATOM      3  O1  <0> d           3.424   3.459  -0.011  0.00  0.00    -0.268 OA
ATOM      4  H6  <0> d           1.390   5.783   0.020  0.00  0.00     0.162 HD
ENDROOT
BRANCH   2   5
ATOM      5  C4  <0> d           1.103   3.189   0.009  0.00  0.00     0.049 A 
ATOM      6  C8  <0> d          -0.151   3.802   0.024  0.00  0.00     0.017 A 
ATOM      7  N2  <0> d          -1.250   3.077   0.031  0.00  0.00    -0.272 NA
ATOM      8  H10 <0> d          -0.220   4.880   0.030  0.00  0.00     0.116 H 
ATOM      9  C7  <0> d          -1.216   1.758   0.017  0.00  0.00     0.002 A 
ATOM     10  C6  <0> d          -0.013   1.076   0.008  0.00  0.00    -0.065 A 
ATOM     11  H9  <0> d          -2.142   1.203   0.018  0.00  0.00     0.114 H 
ATOM     12  C5  <0> d           1.172   1.791   0.001  0.00  0.00    -0.065 A 
ATOM     13  H8  <0> d           0.002  -0.004   0.002  0.00  0.00     0.085 H 
ATOM     14  H7  <0> d           2.125   1.284  -0.012  0.00  0.00     0.085 H 
ENDBRANCH   2   5
BRANCH   1  15
ATOM     15  C2  <0> d           3.480   6.155   0.003  0.00  0.00    -0.008 C 
ATOM     16  H4  <0> d           4.074   5.921   0.886  0.00  0.00     0.063 H 
ATOM     17  H5  <0> d           4.058   5.931  -0.894  0.00  0.00     0.063 H 
BRANCH  15  18
ATOM     18  C1  <0> d           3.112   7.640   0.014  0.00  0.00    -0.061 C 
ATOM     19  H1  <0> d           4.022   8.240   0.009  0.00  0.00     0.029 H 
ATOM     20  H2  <0> d           2.517   7.874  -0.869  0.00  0.00     0.029 H 
ATOM     21  H3  <0> d           2.534   7.864   0.911  0.00  0.00     0.029 H 
ENDBRANCH  15  18
ENDBRANCH   1  15
TORSDOF 3
