REMARK  2 active torsions:
REMARK  status: ('A' for Active; 'I' for Inactive)
REMARK    1  A    between atoms: C1_1  and  C2_2 
REMARK    2  A    between atoms: C5_6  and  N3_8 
REMARK       I    between atoms: N3_8  and  C6_9 
REMARK       I    between atoms: C6_9  and  N4_11 
ROOT
ATOM      1  C2  <0> d          -0.718   1.572   1.248  0.00  0.00     0.051 A 
ATOM      2  C3  <0> d          -2.087   1.793   1.236  0.00  0.00    -0.041 A 
ATOM      3  C4  <0> d          -2.696   2.235   2.399  0.00  0.00     0.023 A 
ATOM      4  N1  <0> d          -1.957   2.442   3.476  0.00  0.00    -0.075 NA
ATOM      5  C5  <0> d          -0.651   2.226   3.453  0.00  0.00     0.730 A 
ATOM      6  N2  <0> d          -0.038   1.798   2.360  0.00  0.00    -0.068 NA
ATOM      7  H4  <0> d          -2.666   1.620   0.340  0.00  0.00     0.088 H 
ATOM      8  H5  <0> d          -3.761   2.413   2.424  0.00  0.00     0.115 H 
ENDROOT
BRANCH   5   9
ATOM      9  N3  <0> d           0.094   2.453   4.603  0.00  0.00    -0.138 N 
ATOM     10  C6  <0> d          -0.513   2.888   5.724  0.00  0.00     0.332 C 
ATOM     11  O1  <0> d          -1.714   3.082   5.730  0.00  0.00    -0.247 OA
ATOM     12  N4  <0> d           0.210   3.108   6.840  0.00  0.00    -0.351 N 
ATOM     13  H7  <0> d           1.167   2.953   6.836  0.00  0.00     0.160 HD
ATOM     14  H8  <0> d          -0.227   3.421   7.648  0.00  0.00     0.160 HD
ATOM     15  H6  <0> d           1.052   2.298   4.599  0.00  0.00     0.189 HD
ENDBRANCH   5   9
BRANCH   1  16
ATOM     16  C1  <0> d          -0.013   1.086   0.008  0.00  0.00    -0.035 C 
ATOM     17  H1  <0> d           0.002  -0.004   0.002  0.00  0.00     0.035 H 
ATOM     18  H2  <0> d           1.010   1.463   0.000  0.00  0.00     0.035 H 
ATOM     19  H3  <0> d          -0.540   1.447  -0.875  0.00  0.00     0.035 H 
ENDBRANCH   1  16
TORSDOF 2
