REMARK  7 active torsions:
REMARK  status: ('A' for Active; 'I' for Inactive)
REMARK    1  A    between atoms: C1_1  and  C2_2 
REMARK    2  A    between atoms: C2_2  and  C3_4 
REMARK    3  A    between atoms: C2_2  and  O1_10 
REMARK    4  A    between atoms: C3_4  and  C4_5 
REMARK    5  A    between atoms: C4_5  and  C5_6 
REMARK    6  A    between atoms: C6_7  and  C7_8 
REMARK    7  A    between atoms: C6_7  and  C8_9 
ROOT
ATOM      1  C4  <0> d           2.512   0.474   1.447  0.00  0.00    -0.047 C 
ATOM      2  H7  <0> d           2.070   0.675   2.423  0.00  0.00     0.038 H 
ATOM      3  H8  <0> d           2.829  -0.568   1.399  0.00  0.00     0.038 H 
ENDROOT
BRANCH   1   4
ATOM      4  C3  <0> d           1.476   0.743   0.353  0.00  0.00    -0.038 C 
ATOM      5  H5  <0> d           1.918   0.541  -0.623  0.00  0.00     0.037 H 
ATOM      6  H6  <0> d           1.159   1.784   0.401  0.00  0.00     0.037 H 
BRANCH   4   7
ATOM      7  C2  <0> d           0.265  -0.169   0.563  0.00  0.00     0.032 C 
ATOM      8  H1  <0> d           0.595  -1.207   0.604  0.00  0.00     0.082 H 
BRANCH   7   9
ATOM      9  C1  <0> d          -0.715   0.010  -0.599  0.00  0.00    -0.052 C 
ATOM     10  H2  <0> d          -0.221  -0.252  -1.534  0.00  0.00     0.030 H 
ATOM     11  H3  <0> d          -1.577  -0.639  -0.449  0.00  0.00     0.030 H 
ATOM     12  H4  <0> d          -1.044   1.048  -0.640  0.00  0.00     0.030 H 
ENDBRANCH   7   9
BRANCH   7  13
ATOM     13  O1  <0> d          -0.383   0.174   1.790  0.00  0.00    -0.396 OA
ATOM     14  H16 <0> d          -0.702   1.086   1.824  0.00  0.00     0.210 HD
ENDBRANCH   7  13
ENDBRANCH   4   7
ENDBRANCH   1   4
BRANCH   1  15
ATOM     15  C5  <0> d           3.705   1.372   1.240  0.00  0.00    -0.101 C 
ATOM     16  C6  <0> d           4.071   2.202   2.185  0.00  0.00    -0.091 C 
ATOM     17  H9  <0> d           4.258   1.330   0.314  0.00  0.00     0.077 H 
BRANCH  16  18
ATOM     18  C7  <0> d           3.225   2.356   3.423  0.00  0.00    -0.055 C 
ATOM     19  H10 <0> d           3.489   1.580   4.142  0.00  0.00     0.033 H 
ATOM     20  H11 <0> d           3.402   3.337   3.864  0.00  0.00     0.033 H 
ATOM     21  H12 <0> d           2.172   2.262   3.157  0.00  0.00     0.033 H 
ENDBRANCH  16  18
BRANCH  16  22
ATOM     22  C8  <0> d           5.338   3.003   2.034  0.00  0.00    -0.055 C 
ATOM     23  H13 <0> d           5.811   2.760   1.083  0.00  0.00     0.033 H 
ATOM     24  H14 <0> d           5.101   4.067   2.060  0.00  0.00     0.033 H 
ATOM     25  H15 <0> d           6.019   2.763   2.850  0.00  0.00     0.033 H 
ENDBRANCH  16  22
ENDBRANCH   1  15
TORSDOF 7
