REMARK  2 active torsions:
REMARK  status: ('A' for Active; 'I' for Inactive)
REMARK    1  A    between atoms: C1_1  and  C2_2 
REMARK    2  A    between atoms: C6_6  and  N1_11 
ROOT
ATOM      1  C2  <0> d           0.002  -0.004   0.002  0.00  0.00     0.050 A 
ATOM      2  C3  <0> d          -0.016   1.336   0.009  0.00  0.00    -0.042 A 
ATOM      3  C4  <0> d           1.388   1.764  -0.002  0.00  0.00     0.002 A 
ATOM      4  C5  <0> d           2.027   3.003  -0.001  0.00  0.00    -0.045 A 
ATOM      5  C6  <0> d           3.409   3.058  -0.015  0.00  0.00     0.026 A 
ATOM      6  C7  <0> d           4.155   1.881  -0.029  0.00  0.00    -0.055 A 
ATOM      7  C8  <0> d           3.530   0.654  -0.029  0.00  0.00    -0.047 A 
ATOM      8  C9  <0> d           2.142   0.580  -0.015  0.00  0.00     0.086 A 
ATOM      9  O1  <0> d           1.270  -0.450  -0.013  0.00  0.00    -0.315 OA
ATOM     10  H4  <0> d          -0.888   1.972   0.017  0.00  0.00     0.088 H 
ATOM     11  H5  <0> d           1.447   3.914   0.010  0.00  0.00     0.088 H 
ATOM     12  H6  <0> d           5.234   1.931  -0.039  0.00  0.00     0.087 H 
ATOM     13  H7  <0> d           4.118  -0.252  -0.039  0.00  0.00     0.087 H 
ENDROOT
BRANCH   1  14
ATOM     14  C1  <0> d          -1.222  -0.883   0.008  0.00  0.00    -0.031 C 
ATOM     15  H1  <0> d          -1.526  -1.090  -1.018  0.00  0.00     0.036 H 
ATOM     16  H2  <0> d          -0.993  -1.821   0.515  0.00  0.00     0.036 H 
ATOM     17  H3  <0> d          -2.031  -0.376   0.532  0.00  0.00     0.036 H 
ENDBRANCH   1  14
BRANCH   5  18
ATOM     18  N1  <0> d           4.060   4.297  -0.015  0.00  0.00    -0.399 N 
ATOM     19  H8  <0> d           5.029   4.336  -0.024  0.00  0.00     0.156 HD
ATOM     20  H9  <0> d           3.541   5.117  -0.005  0.00  0.00     0.156 HD
ENDBRANCH   5  18
TORSDOF 2
