REMARK  4 active torsions:
REMARK  status: ('A' for Active; 'I' for Inactive)
REMARK    1  A    between atoms: C1_1  and  C2_2 
REMARK    2  A    between atoms: C2_2  and  C3_3 
REMARK    3  A    between atoms: C3_3  and  C4_4 
REMARK    4  A    between atoms: C4_4  and  C5_5 
ROOT
ATOM      1  C5  <0> d           1.455  -2.521  -2.524  0.00  0.00     0.048 C 
ATOM      2  H1  <0> d           2.448  -2.074  -2.577  0.00  0.00     0.084 H 
ATOM      3  C6  <0> d           1.580  -4.046  -2.477  0.00  0.00    -0.040 C 
ATOM      4  C7  <0> d           2.250  -4.541  -3.763  0.00  0.00    -0.054 C 
ATOM      5  C8  <0> d           1.391  -4.126  -4.963  0.00  0.00     0.016 C 
ATOM      6  C9  <0> d           1.132  -2.638  -4.874  0.00  0.00     0.259 C 
ATOM      7  O1  <0> d           1.316  -1.917  -5.825  0.00  0.00    -0.265 OA
ATOM      8  O2  <0> d           0.688  -2.140  -3.701  0.00  0.00    -0.316 OA
ATOM      9  H11 <0> d           2.185  -4.335  -1.617  0.00  0.00     0.036 H 
ATOM     10  H12 <0> d           0.588  -4.490  -2.389  0.00  0.00     0.036 H 
ATOM     11  H13 <0> d           2.337  -5.627  -3.734  0.00  0.00     0.033 H 
ATOM     12  H14 <0> d           3.242  -4.097  -3.853  0.00  0.00     0.033 H 
ATOM     13  H15 <0> d           0.444  -4.665  -4.941  0.00  0.00     0.048 H 
ATOM     14  H16 <0> d           1.920  -4.351  -5.889  0.00  0.00     0.048 H 
ENDROOT
BRANCH   1  15
ATOM     15  C4  <0> d           0.739  -2.027  -1.265  0.00  0.00    -0.040 C 
ATOM     16  H9  <0> d           1.266  -2.388  -0.382  0.00  0.00     0.036 H 
ATOM     17  H10 <0> d          -0.284  -2.405  -1.258  0.00  0.00     0.036 H 
BRANCH  15  18
ATOM     18  C3  <0> d           0.718  -0.497  -1.257  0.00  0.00    -0.063 C 
ATOM     19  H7  <0> d           0.191  -0.136  -2.140  0.00  0.00     0.033 H 
ATOM     20  H8  <0> d           1.741  -0.120  -1.264  0.00  0.00     0.033 H 
BRANCH  18  21
ATOM     21  C2  <0> d           0.002  -0.004   0.002  0.00  0.00    -0.068 C 
ATOM     22  H5  <0> d           0.529  -0.365   0.885  0.00  0.00     0.032 H 
ATOM     23  H6  <0> d          -1.020  -0.381   0.010  0.00  0.00     0.032 H 
BRANCH  21  24
ATOM     24  C1  <0> d          -0.019   1.526   0.010  0.00  0.00    -0.077 C 
ATOM     25  H2  <0> d           1.004   1.903   0.003  0.00  0.00     0.027 H 
ATOM     26  H3  <0> d          -0.546   1.887  -0.873  0.00  0.00     0.027 H 
ATOM     27  H4  <0> d          -0.529   1.877   0.907  0.00  0.00     0.027 H 
ENDBRANCH  21  24
ENDBRANCH  18  21
ENDBRANCH  15  18
ENDBRANCH   1  15
TORSDOF 4
