REMARK  5 active torsions:
REMARK  status: ('A' for Active; 'I' for Inactive)
REMARK    1  A    between atoms: C1_1  and  C2_2 
REMARK    2  A    between atoms: C3_3  and  C9_11 
REMARK    3  A    between atoms: C4_4  and  O2_9 
REMARK    4  A    between atoms: C7_7  and  O1_8 
REMARK    5  A    between atoms: O2_9  and  C8_10 
ROOT
ATOM      1  C2  <0> d           0.000   1.806   2.405  0.00  0.00    -0.020 A 
ATOM      2  C3  <0> d          -0.718   1.572   1.248  0.00  0.00    -0.020 A 
ATOM      3  C4  <0> d          -2.087   1.790   1.226  0.00  0.00     0.074 A 
ATOM      4  C5  <0> d          -2.737   2.234   2.369  0.00  0.00    -0.048 A 
ATOM      5  C6  <0> d          -2.019   2.466   3.525  0.00  0.00    -0.048 A 
ATOM      6  C7  <0> d          -0.649   2.253   3.545  0.00  0.00     0.072 A 
ATOM      7  H4  <0> d          -3.804   2.400   2.353  0.00  0.00     0.087 H 
ATOM      8  H5  <0> d          -2.525   2.815   4.414  0.00  0.00     0.087 H 
ENDROOT
BRANCH   3   9
ATOM      9  O2  <0> d          -2.794   1.565   0.086  0.00  0.00    -0.355 OA
BRANCH   9  10
ATOM     10  C8  <0> d          -4.200   1.811   0.135  0.00  0.00     0.010 C 
ATOM     11  H7  <0> d          -4.646   1.591  -0.846  0.00  0.00     0.066 H 
ATOM     12  H8  <0> d          -4.380   2.866   0.391  0.00  0.00     0.066 H 
ATOM     13  H9  <0> d          -4.659   1.165   0.899  0.00  0.00     0.066 H 
ENDBRANCH   9  10
ENDBRANCH   3   9
BRANCH   2  14
ATOM     14  C9  <0> d          -0.013   1.086   0.008  0.00  0.00    -0.048 C 
ATOM     15  H10 <0> d          -0.744   0.958  -0.804  0.00  0.00     0.033 H 
ATOM     16  H11 <0> d           0.475   0.122   0.217  0.00  0.00     0.033 H 
ATOM     17  H12 <0> d           0.746   1.822  -0.295  0.00  0.00     0.033 H 
ENDBRANCH   2  14
BRANCH   1  18
ATOM     18  C1  <0> d           1.489   1.574   2.426  0.00  0.00    -0.048 C 
ATOM     19  H1  <0> d           1.820   1.223   1.438  0.00  0.00     0.033 H 
ATOM     20  H2  <0> d           1.731   0.815   3.185  0.00  0.00     0.033 H 
ATOM     21  H3  <0> d           2.003   2.515   2.672  0.00  0.00     0.033 H 
ENDBRANCH   1  18
BRANCH   6  22
ATOM     22  O1  <0> d           0.058   2.483   4.684  0.00  0.00    -0.360 OA
ATOM     23  H6  <0> d          -0.457   2.838   5.589  0.00  0.00     0.217 HD
ENDBRANCH   6  22
TORSDOF 5
