REMARK  2 active torsions:
REMARK  status: ('A' for Active; 'I' for Inactive)
REMARK    1  A    between atoms: C2_2  and  C5_8 
REMARK    2  A    between atoms: C5_8  and  O2_9 
ROOT
ATOM      1  C1  <0> d          -0.018   1.509   0.010  0.00  0.00     0.016 C 
ATOM      2  C2  <0> d           1.475   1.908  -0.002  0.00  0.00    -0.010 C 
ATOM      3  H1  <0> d           1.827   2.071  -1.020  0.00  0.00     0.046 H 
ATOM      4  C3  <0> d           2.140   0.660   0.620  0.00  0.00     0.001 C 
ATOM      5  N1  <0> d           1.223  -0.452   0.341  0.00  0.00    -0.361 N 
ATOM      6  C4  <0> d           0.002  -0.004   0.002  0.00  0.00     0.218 C 
ATOM      7  O1  <0> d          -0.946  -0.710  -0.271  0.00  0.00    -0.274 OA
ATOM      8  H2  <0> d          -0.505   1.879   0.913  0.00  0.00     0.048 H 
ATOM      9  H3  <0> d          -0.522   1.888  -0.879  0.00  0.00     0.048 H 
ATOM     10  H4  <0> d           3.108   0.476   0.153  0.00  0.00     0.064 H 
ATOM     11  H5  <0> d           2.258   0.791   1.695  0.00  0.00     0.064 H 
ATOM     12  H6  <0> d           1.467  -1.389   0.395  0.00  0.00     0.162 HD
ENDROOT
BRANCH   2  13
ATOM     13  C5  <0> d           1.718   3.147   0.863  0.00  0.00     0.022 C 
ATOM     14  H7  <0> d           1.064   3.954   0.533  0.00  0.00     0.074 H 
ATOM     15  H8  <0> d           1.505   2.909   1.906  0.00  0.00     0.074 H 
BRANCH  13  16
ATOM     16  O2  <0> d           3.081   3.556   0.737  0.00  0.00    -0.400 OA
ATOM     17  H9  <0> d           3.307   4.338   1.260  0.00  0.00     0.209 HD
ENDBRANCH  13  16
ENDBRANCH   2  13
TORSDOF 2
