REMARK  2 active torsions:
REMARK  status: ('A' for Active; 'I' for Inactive)
REMARK    1  A    between atoms: C5_7  and  C6_9 
REMARK    2  A    between atoms: C6_9  and  O1_10 
ROOT
ATOM      1  C1  <0> d           0.002  -0.004   0.002  0.00  0.00    -0.007 A 
ATOM      2  C2  <0> d          -0.016   1.328   0.009  0.00  0.00    -0.026 A 
ATOM      3  S1  <0> d           1.726   1.720  -0.005  0.00  0.00    -0.062 SA
ATOM      4  C3  <0> d           2.343   0.054  -0.020  0.00  0.00     0.177 A 
ATOM      5  N1  <0> d           1.195  -0.694  -0.013  0.00  0.00    -0.309 N 
ATOM      6  C4  <0> d           1.631  -2.016  -0.024  0.00  0.00     0.013 A 
ATOM      7  C5  <0> d           2.974  -2.003  -0.037  0.00  0.00     0.076 A 
ATOM      8  N2  <0> d           3.386  -0.726  -0.034  0.00  0.00    -0.225 NA
ATOM      9  H1  <0> d          -0.930  -0.550   0.008  0.00  0.00     0.113 H 
ATOM     10  H2  <0> d          -0.864   1.997   0.017  0.00  0.00     0.097 H 
ATOM     11  H3  <0> d           1.002  -2.894  -0.022  0.00  0.00     0.115 H 
ENDROOT
BRANCH   7  12
ATOM     12  C6  <0> d           3.867  -3.217  -0.052  0.00  0.00     0.058 C 
ATOM     13  H4  <0> d           4.488  -3.200  -0.948  0.00  0.00     0.083 H 
ATOM     14  H5  <0> d           4.505  -3.211   0.832  0.00  0.00     0.083 H 
BRANCH  12  15
ATOM     15  O1  <0> d           3.064  -4.399  -0.051  0.00  0.00    -0.395 OA
ATOM     16  H6  <0> d           3.573  -5.221  -0.061  0.00  0.00     0.209 HD
ENDBRANCH  12  15
ENDBRANCH   7  12
TORSDOF 2
