REMARK  2 active torsions:
REMARK  status: ('A' for Active; 'I' for Inactive)
REMARK    1  A    between atoms: C1_1  and  C2_2 
REMARK    2  A    between atoms: C2_2  and  C4_6 
ROOT
ATOM      1  C2  <0> d          -0.013   1.086   0.008  0.00  0.00     0.110 C 
ATOM      2  H1  <0> d           0.002  -0.004   0.002  0.00  0.00     0.079 H 
ATOM      3  C3  <0> d          -0.702   1.560   1.219  0.00  0.00     0.074 C 
ATOM      4  N1  <0> d          -1.233   1.927   2.154  0.00  0.00    -0.196 NA
ENDROOT
BRANCH   1   5
ATOM      5  C1  <0> d          -0.753   1.593  -1.232  0.00  0.00    -0.052 C 
ATOM      6  H2  <0> d          -1.775   1.215  -1.224  0.00  0.00     0.029 H 
ATOM      7  H3  <0> d          -0.767   2.683  -1.226  0.00  0.00     0.029 H 
ATOM      8  H4  <0> d          -0.242   1.241  -2.128  0.00  0.00     0.029 H 
ENDBRANCH   1   5
BRANCH   1   9
ATOM      9  C4  <0> d           1.401   1.607  -0.003  0.00  0.00     0.190 C 
ATOM     10  O1  <0> d           1.796   2.303   0.903  0.00  0.00    -0.647 OA
ATOM     11  O2  <0> d           2.222   1.300  -1.019  0.00  0.00    -0.647 OA
ENDBRANCH   1   9
TORSDOF 2
