REMARK  3 active torsions:
REMARK  status: ('A' for Active; 'I' for Inactive)
REMARK    1  A    between atoms: C1_1  and  C2_2 
REMARK    2  A    between atoms: C2_2  and  C3_4 
REMARK    3  A    between atoms: N2_8  and  C6_9 
ROOT
ATOM      1  C3  <0> d          -1.257  -0.754   0.010  0.00  0.00     0.175 A 
ATOM      2  N1  <0> d          -2.468  -0.232   0.019  0.00  0.00    -0.238 NA
ATOM      3  C4  <0> d          -3.364  -1.213   0.024  0.00  0.00     0.019 A 
ATOM      4  C5  <0> d          -2.702  -2.398   0.019  0.00  0.00    -0.002 A 
ATOM      5  N2  <0> d          -1.379  -2.117   0.004  0.00  0.00    -0.342 N 
ATOM      6  H4  <0> d          -4.437  -1.088   0.031  0.00  0.00     0.117 H 
ATOM      7  H5  <0> d          -3.148  -3.382   0.021  0.00  0.00     0.113 H 
ENDROOT
BRANCH   1   8
ATOM      8  C2  <0> d           0.002  -0.004   0.002  0.00  0.00     0.191 C 
ATOM      9  O1  <0> d           1.061  -0.596  -0.011  0.00  0.00    -0.290 OA
BRANCH   8  10
ATOM     10  C1  <0> d          -0.018   1.503   0.010  0.00  0.00    -0.014 C 
ATOM     11  H1  <0> d           1.004   1.880   0.003  0.00  0.00     0.038 H 
ATOM     12  H2  <0> d          -0.545   1.864  -0.873  0.00  0.00     0.038 H 
ATOM     13  H3  <0> d          -0.529   1.854   0.907  0.00  0.00     0.038 H 
ENDBRANCH   8  10
ENDBRANCH   1   8
BRANCH   5  14
ATOM     14  C6  <0> d          -0.283  -3.089  -0.012  0.00  0.00    -0.013 C 
ATOM     15  H6  <0> d          -0.001  -3.336   1.011  0.00  0.00     0.057 H 
ATOM     16  H7  <0> d          -0.607  -3.994  -0.528  0.00  0.00     0.057 H 
ATOM     17  H8  <0> d           0.574  -2.662  -0.532  0.00  0.00     0.057 H 
ENDBRANCH   5  14
TORSDOF 3
