REMARK  2 active torsions:
REMARK  status: ('A' for Active; 'I' for Inactive)
REMARK    1  A    between atoms: C1_1  and  S1_2 
REMARK    2  A    between atoms: S1_2  and  C2_5 
ROOT
ATOM      1  C2  <0> d          -0.132   3.793   0.024  0.00  0.00     0.150 A 
ATOM      2  C3  <0> d           1.107   3.179   0.009  0.00  0.00    -0.044 A 
ATOM      3  C4  <0> d           1.174   1.794   0.001  0.00  0.00    -0.079 A 
ATOM      4  C5  <0> d          -0.013   1.076   0.008  0.00  0.00    -0.066 A 
ATOM      5  C6  <0> d          -1.214   1.759   0.017  0.00  0.00     0.004 A 
ATOM      6  N1  <0> d          -1.239   3.078   0.030  0.00  0.00    -0.249 NA
ATOM      7  H4  <0> d           2.010   3.770   0.004  0.00  0.00     0.088 H 
ATOM      8  H5  <0> d           2.127   1.287  -0.011  0.00  0.00     0.083 H 
ATOM      9  H6  <0> d           0.002  -0.004   0.002  0.00  0.00     0.085 H 
ATOM     10  H7  <0> d          -2.142   1.207   0.018  0.00  0.00     0.114 H 
ENDROOT
BRANCH   1  11
ATOM     11  S1  <0> d          -0.231   5.552   0.034  0.00  0.00     0.189 S 
ATOM     12  O1  <0> d          -1.478   5.841   0.650  0.00  0.00    -0.222 OA
ATOM     13  O2  <0> d           0.987   5.981   0.627  0.00  0.00    -0.222 OA
BRANCH  11  14
ATOM     14  C1  <0> d          -0.274   6.027  -1.717  0.00  0.00     0.021 C 
ATOM     15  H1  <0> d          -1.145   5.576  -2.194  0.00  0.00     0.049 H 
ATOM     16  H2  <0> d          -0.337   7.112  -1.798  0.00  0.00     0.049 H 
ATOM     17  H3  <0> d           0.632   5.677  -2.211  0.00  0.00     0.049 H 
ENDBRANCH  11  14
ENDBRANCH   1  11
TORSDOF 2
