REMARK  4 active torsions:
REMARK  status: ('A' for Active; 'I' for Inactive)
REMARK    1  A    between atoms: C1_1  and  O1_2 
REMARK    2  A    between atoms: O1_2  and  C2_3 
REMARK    3  A    between atoms: C6_7  and  O2_10 
REMARK    4  A    between atoms: O2_10  and  C8_11 
ROOT
ATOM      1  C2  <0> d           0.626  -0.619   1.042  0.00  0.00     0.109 A 
ATOM      2  C3  <0> d           1.202   0.139   2.051  0.00  0.00    -0.048 A 
ATOM      3  C4  <0> d           1.837  -0.485   3.109  0.00  0.00    -0.077 A 
ATOM      4  C5  <0> d           1.899  -1.865   3.164  0.00  0.00    -0.048 A 
ATOM      5  C6  <0> d           1.325  -2.628   2.158  0.00  0.00     0.109 A 
ATOM      6  C7  <0> d           0.682  -2.004   1.097  0.00  0.00     0.182 A 
ATOM      7  F1  <0> d           0.117  -2.744   0.119  0.00  0.00    -0.200 F 
ATOM      8  H4  <0> d           1.155   1.217   2.011  0.00  0.00     0.087 H 
ATOM      9  H5  <0> d           2.285   0.106   3.893  0.00  0.00     0.083 H 
ATOM     10  H6  <0> d           2.396  -2.349   3.991  0.00  0.00     0.087 H 
ENDROOT
BRANCH   1  11
ATOM     11  O1  <0> d           0.002  -0.004   0.002  0.00  0.00    -0.353 OA
BRANCH  11  12
ATOM     12  C1  <0> d          -0.017   1.425   0.010  0.00  0.00     0.011 C 
ATOM     13  H1  <0> d           1.005   1.802   0.002  0.00  0.00     0.066 H 
ATOM     14  H2  <0> d          -0.544   1.786  -0.873  0.00  0.00     0.066 H 
ATOM     15  H3  <0> d          -0.527   1.776   0.907  0.00  0.00     0.066 H 
ENDBRANCH  11  12
ENDBRANCH   1  11
BRANCH   5  16
ATOM     16  O2  <0> d           1.387  -3.985   2.213  0.00  0.00    -0.353 OA
BRANCH  16  17
ATOM     17  C8  <0> d           2.060  -4.558   3.336  0.00  0.00     0.011 C 
ATOM     18  H7  <0> d           2.037  -5.645   3.256  0.00  0.00     0.066 H 
ATOM     19  H8  <0> d           3.095  -4.217   3.353  0.00  0.00     0.066 H 
ATOM     20  H9  <0> d           1.560  -4.251   4.254  0.00  0.00     0.066 H 
ENDBRANCH  16  17
ENDBRANCH   5  16
TORSDOF 4
