REMARK  1 active torsions:
REMARK  status: ('A' for Active; 'I' for Inactive)
REMARK    1  A    between atoms: C3_3  and  C6_8 
ROOT
ATOM      1  C1  <0> d          -0.733   1.582   1.266  0.00  0.00    -0.044 C 
ATOM      2  C2  <0> d          -0.013   1.086   0.008  0.00  0.00    -0.049 C 
ATOM      3  C3  <0> d          -0.757   1.595  -1.230  0.00  0.00     0.051 C 
ATOM      4  H1  <0> d          -0.728   2.684  -1.250  0.00  0.00     0.059 H 
ATOM      5  C4  <0> d          -2.212   1.122  -1.172  0.00  0.00     0.032 C 
ATOM      6  O1  <0> d          -2.816   1.591   0.035  0.00  0.00    -0.390 OA
ATOM      7  C5  <0> d          -2.191   1.109   1.226  0.00  0.00     0.019 C 
ATOM      8  H2  <0> d          -0.241   1.178   2.150  0.00  0.00     0.036 H 
ATOM      9  H3  <0> d          -0.705   2.671   1.296  0.00  0.00     0.036 H 
ATOM     10  H4  <0> d           0.002  -0.004   0.002  0.00  0.00     0.034 H 
ATOM     11  H5  <0> d           1.009   1.464   0.000  0.00  0.00     0.034 H 
ATOM     12  H6  <0> d          -2.757   1.517  -2.029  0.00  0.00     0.075 H 
ATOM     13  H7  <0> d          -2.241   0.033  -1.193  0.00  0.00     0.075 H 
ATOM     14  H8  <0> d          -2.721   1.495   2.097  0.00  0.00     0.074 H 
ATOM     15  H9  <0> d          -2.220   0.019   1.237  0.00  0.00     0.074 H 
ENDROOT
BRANCH   3  16
ATOM     16  C6  <0> d          -0.100   1.050  -2.472  0.00  0.00     0.179 C 
ATOM     17  O2  <0> d           0.865   0.329  -2.378  0.00  0.00    -0.648 OA
ATOM     18  O3  <0> d          -0.586   1.367  -3.683  0.00  0.00    -0.648 OA
ENDBRANCH   3  16
TORSDOF 1
