REMARK  5 active torsions:
REMARK  status: ('A' for Active; 'I' for Inactive)
REMARK    1  A    between atoms: C1_1  and  C2_2 
REMARK    2  A    between atoms: C2_2  and  C3_3 
REMARK    3  A    between atoms: C2_2  and  C4_4 
REMARK    4  A    between atoms: C2_2  and  S1_5 
REMARK    5  A    between atoms: S1_5  and  N1_7 
ROOT
ATOM      1  C2  <0> d           1.685   2.045  -0.003  0.00  0.00     0.046 C 
ENDROOT
BRANCH   1   2
ATOM      2  C1  <0> d           1.668   3.558  -0.229  0.00  0.00    -0.057 C 
ATOM      3  H1  <0> d           1.109   4.039   0.573  0.00  0.00     0.029 H 
ATOM      4  H2  <0> d           2.691   3.935  -0.237  0.00  0.00     0.029 H 
ATOM      5  H3  <0> d           1.193   3.777  -1.185  0.00  0.00     0.029 H 
ENDBRANCH   1   2
BRANCH   1   6
ATOM      6  C3  <0> d           2.352   1.737   1.339  0.00  0.00    -0.057 C 
ATOM      7  H4  <0> d           2.364   0.659   1.500  0.00  0.00     0.029 H 
ATOM      8  H5  <0> d           3.375   2.114   1.331  0.00  0.00     0.029 H 
ATOM      9  H6  <0> d           1.793   2.218   2.142  0.00  0.00     0.029 H 
ENDBRANCH   1   6
BRANCH   1  10
ATOM     10  C4  <0> d           2.469   1.369  -1.130  0.00  0.00    -0.057 C 
ATOM     11  H7  <0> d           1.994   1.588  -2.086  0.00  0.00     0.029 H 
ATOM     12  H8  <0> d           3.492   1.746  -1.137  0.00  0.00     0.029 H 
ATOM     13  H9  <0> d           2.481   0.291  -0.969  0.00  0.00     0.029 H 
ENDBRANCH   1  10
BRANCH   1  14
ATOM     14  S1  <0> d          -0.017   1.417   0.010  0.00  0.00     0.116 S 
ATOM     15  O1  <0> d           0.002  -0.004   0.002  0.00  0.00    -0.235 OA
BRANCH  14  16
ATOM     16  N1  <0> d          -0.604   1.818  -1.486  0.00  0.00    -0.349 N 
ATOM     17  H10 <0> d          -1.044   2.671  -1.621  0.00  0.00     0.166 HD
ATOM     18  H11 <0> d          -0.506   1.199  -2.227  0.00  0.00     0.166 HD
ENDBRANCH  14  16
ENDBRANCH   1  14
TORSDOF 5
