REMARK  2 active torsions:
REMARK  status: ('A' for Active; 'I' for Inactive)
REMARK    1  A    between atoms: C2_2  and  C5_7 
REMARK    2  A    between atoms: C5_7  and  C6_8 
ROOT
ATOM      1  C1  <0> d          -0.013   1.076   0.008  0.00  0.00     0.011 A 
ATOM      2  C2  <0> d           1.173   1.794   0.001  0.00  0.00    -0.013 A 
ATOM      3  C3  <0> d           1.104   3.179   0.009  0.00  0.00     0.011 A 
ATOM      4  N1  <0> d          -0.082   3.764   0.023  0.00  0.00    -0.254 NA
ATOM      5  C4  <0> d          -1.189   3.049   0.030  0.00  0.00     0.085 A 
ATOM      6  N2  <0> d          -1.162   1.731   0.017  0.00  0.00    -0.254 NA
ATOM      7  H1  <0> d           0.002  -0.004   0.002  0.00  0.00     0.115 H 
ATOM      8  H2  <0> d           2.007   3.771   0.003  0.00  0.00     0.115 H 
ATOM      9  H3  <0> d          -2.143   3.555   0.042  0.00  0.00     0.146 H 
ENDROOT
BRANCH   2  10
ATOM     10  C5  <0> d           2.503   1.087  -0.017  0.00  0.00     0.042 C 
ATOM     11  H4  <0> d           3.247   1.700   0.494  0.00  0.00     0.056 H 
ATOM     12  H5  <0> d           2.412   0.128   0.493  0.00  0.00     0.056 H 
BRANCH  10  13
ATOM     13  C6  <0> d           2.933   0.860  -1.443  0.00  0.00     0.177 C 
ATOM     14  O1  <0> d           2.231   1.234  -2.352  0.00  0.00    -0.648 OA
ATOM     15  O2  <0> d           4.096   0.242  -1.703  0.00  0.00    -0.648 OA
ENDBRANCH  10  13
ENDBRANCH   2  10
TORSDOF 2
