REMARK  3 active torsions:
REMARK  status: ('A' for Active; 'I' for Inactive)
REMARK    1  A    between atoms: C1_1  and  C2_2 
REMARK    2  A    between atoms: C2_2  and  O1_3 
REMARK    3  A    between atoms: O1_3  and  C3_4 
ROOT
ATOM      1  C3  <0> d           0.746  -1.888  -1.280  0.00  0.00     0.234 C 
ATOM      2  O2  <0> d          -0.575  -2.434  -1.304  0.00  0.00    -0.339 OA
ATOM      3  C4  <0> d          -0.608  -3.863  -1.382  0.00  0.00     0.027 C 
ATOM      4  C5  <0> d           0.155  -4.443  -0.186  0.00  0.00    -0.025 C 
ATOM      5  C6  <0> d           1.563  -3.840  -0.156  0.00  0.00     0.027 C 
ATOM      6  O3  <0> d           1.457  -2.413  -0.156  0.00  0.00    -0.339 OA
ATOM      7  H6  <0> d           1.267  -2.157  -2.198  0.00  0.00     0.179 H 
ATOM      8  H7  <0> d          -1.642  -4.206  -1.357  0.00  0.00     0.074 H 
ATOM      9  H8  <0> d          -0.135  -4.188  -2.309  0.00  0.00     0.074 H 
ATOM     10  H9  <0> d          -0.369  -4.193   0.737  0.00  0.00     0.039 H 
ATOM     11  H10 <0> d           0.223  -5.526  -0.287  0.00  0.00     0.039 H 
ATOM     12  H11 <0> d           2.081  -4.167   0.745  0.00  0.00     0.074 H 
ATOM     13  H12 <0> d           2.118  -4.165  -1.036  0.00  0.00     0.074 H 
ENDROOT
BRANCH   1  14
ATOM     14  O1  <0> d           0.671  -0.465  -1.174  0.00  0.00    -0.339 OA
BRANCH  14  15
ATOM     15  C2  <0> d           0.002  -0.004   0.002  0.00  0.00     0.021 C 
ATOM     16  H4  <0> d           0.529  -0.365   0.885  0.00  0.00     0.074 H 
ATOM     17  H5  <0> d          -1.020  -0.381   0.010  0.00  0.00     0.074 H 
BRANCH  15  18
ATOM     18  C1  <0> d          -0.019   1.526   0.010  0.00  0.00    -0.056 C 
ATOM     19  H1  <0> d           1.004   1.903   0.003  0.00  0.00     0.030 H 
ATOM     20  H2  <0> d          -0.546   1.887  -0.873  0.00  0.00     0.030 H 
ATOM     21  H3  <0> d          -0.529   1.877   0.907  0.00  0.00     0.030 H 
ENDBRANCH  15  18
ENDBRANCH  14  15
ENDBRANCH   1  14
TORSDOF 3
