REMARK  2 active torsions:
REMARK  status: ('A' for Active; 'I' for Inactive)
REMARK    1  A    between atoms: C5_6  and  C6_7 
REMARK    2  A    between atoms: C6_7  and  O1_8 
ROOT
ATOM      1  C1  <0> d          -0.017   1.383   0.010  0.00  0.00    -0.058 A 
ATOM      2  C2  <0> d           1.180   2.073   0.002  0.00  0.00     0.004 A 
ATOM      3  N1  <0> d           2.331   1.429  -0.013  0.00  0.00    -0.249 NA
ATOM      4  C3  <0> d           2.388   0.110  -0.020  0.00  0.00     0.126 A 
ATOM      5  C4  <0> d           1.230  -0.647  -0.014  0.00  0.00    -0.036 A 
ATOM      6  C5  <0> d           0.002  -0.004   0.002  0.00  0.00    -0.030 A 
ATOM      7 Cl1  <0> d           3.932  -0.683  -0.039  0.00  0.00    -0.062 Cl
ATOM      8  H1  <0> d          -0.955   1.916   0.026  0.00  0.00     0.086 H 
ATOM      9  H2  <0> d           1.174   3.153   0.007  0.00  0.00     0.114 H 
ATOM     10  H3  <0> d           1.282  -1.726  -0.021  0.00  0.00     0.089 H 
ENDROOT
BRANCH   6  11
ATOM     11  C6  <0> d          -1.282  -0.793   0.011  0.00  0.00     0.041 C 
ATOM     12  H4  <0> d          -1.121  -1.744   0.518  0.00  0.00     0.081 H 
ATOM     13  H5  <0> d          -2.052  -0.228   0.535  0.00  0.00     0.081 H 
BRANCH  11  14
ATOM     14  O1  <0> d          -1.701  -1.035  -1.334  0.00  0.00    -0.396 OA
ATOM     15  H6  <0> d          -2.523  -1.539  -1.405  0.00  0.00     0.209 HD
ENDBRANCH  11  14
ENDBRANCH   6  11
TORSDOF 2
