REMARK  5 active torsions:
REMARK  status: ('A' for Active; 'I' for Inactive)
REMARK    1  A    between atoms: C1_1  and  C2_2 
REMARK    2  A    between atoms: C3_3  and  C8_10 
REMARK    3  A    between atoms: N2_6  and  C5_7 
REMARK    4  A    between atoms: C5_7  and  C6_8 
REMARK    5  A    between atoms: C8_10  and  O1_11 
ROOT
ATOM      1  C2  <0> d           1.261   1.829  -0.000  0.00  0.00     0.037 A 
ATOM      2  C3  <0> d           2.065   0.741  -0.014  0.00  0.00     0.008 A 
ATOM      3  C4  <0> d           1.250  -0.396  -0.012  0.00  0.00     0.032 A 
ATOM      4  N1  <0> d           0.002  -0.004   0.002  0.00  0.00    -0.184 NA
ATOM      5  N2  <0> d          -0.017   1.397   0.010  0.00  0.00    -0.271 N 
ATOM      6  H4  <0> d           1.593  -1.420  -0.021  0.00  0.00     0.118 H 
ENDROOT
BRANCH   5   7
ATOM      7  C5  <0> d          -1.213   2.242   0.020  0.00  0.00     0.031 C 
ATOM      8  H5  <0> d          -0.999   3.181  -0.490  0.00  0.00     0.073 H 
ATOM      9  H6  <0> d          -2.026   1.728  -0.492  0.00  0.00     0.073 H 
BRANCH   7  10
ATOM     10  C6  <0> d          -1.616   2.525   1.445  0.00  0.00    -0.093 C 
ATOM     11  C7  <0> d          -1.757   3.762   1.852  0.00  0.00    -0.123 C 
ATOM     12  H8  <0> d          -1.584   4.579   1.168  0.00  0.00     0.066 H 
ATOM     13  H9  <0> d          -2.045   3.965   2.873  0.00  0.00     0.066 H 
ATOM     14  H7  <0> d          -1.789   1.708   2.129  0.00  0.00     0.078 H 
ENDBRANCH   7  10
ENDBRANCH   5   7
BRANCH   1  15
ATOM     15  C1  <0> d           1.712   3.267   0.003  0.00  0.00    -0.035 C 
ATOM     16  H1  <0> d           1.831   3.608   1.032  0.00  0.00     0.035 H 
ATOM     17  H2  <0> d           2.666   3.350  -0.519  0.00  0.00     0.035 H 
ATOM     18  H3  <0> d           0.967   3.883  -0.500  0.00  0.00     0.035 H 
ENDBRANCH   1  15
BRANCH   2  19
ATOM     19  C8  <0> d           3.572   0.752  -0.028  0.00  0.00     0.044 C 
ATOM     20  H10 <0> d           3.923   1.272  -0.918  0.00  0.00     0.081 H 
ATOM     21  H11 <0> d           3.940   1.264   0.862  0.00  0.00     0.081 H 
BRANCH  19  22
ATOM     22  O1  <0> d           4.058  -0.592  -0.038  0.00  0.00    -0.396 OA
ATOM     23  H12 <0> d           5.022  -0.661  -0.048  0.00  0.00     0.209 HD
ENDBRANCH  19  22
ENDBRANCH   2  19
TORSDOF 5
