REMARK  1 active torsions:
REMARK  status: ('A' for Active; 'I' for Inactive)
REMARK    1  A    between atoms: C1_1  and  C2_2 
ROOT
ATOM      1  C2  <0> d          -0.018   1.468   0.010  0.00  0.00     0.118 C 
ATOM      2  C3  <0> d          -0.803   1.998  -1.210  0.00  0.00    -0.021 C 
ATOM      3  C4  <0> d          -2.222   2.174  -0.619  0.00  0.00     0.012 C 
ATOM      4  C5  <0> d          -1.986   2.357   0.864  0.00  0.00     0.219 C 
ATOM      5  O1  <0> d          -2.800   2.799   1.647  0.00  0.00    -0.274 OA
ATOM      6  N1  <0> d          -0.742   1.959   1.188  0.00  0.00    -0.339 N 
ATOM      7  C6  <0> d           0.002  -0.004   0.002  0.00  0.00     0.090 C 
ATOM      8  N2  <0> d           0.018  -1.140  -0.004  0.00  0.00    -0.195 NA
ATOM      9  H4  <0> d          -0.401   2.953  -1.548  0.00  0.00     0.038 H 
ATOM     10  H5  <0> d          -0.805   1.269  -2.020  0.00  0.00     0.038 H 
ATOM     11  H6  <0> d          -2.704   3.056  -1.041  0.00  0.00     0.047 H 
ATOM     12  H7  <0> d          -2.824   1.284  -0.803  0.00  0.00     0.047 H 
ATOM     13  H8  <0> d          -0.371   1.993   2.084  0.00  0.00     0.164 HD
ENDROOT
BRANCH   1  14
ATOM     14  C1  <0> d           1.411   2.016  -0.001  0.00  0.00    -0.041 C 
ATOM     15  H1  <0> d           1.921   1.681  -0.903  0.00  0.00     0.032 H 
ATOM     16  H2  <0> d           1.382   3.105   0.018  0.00  0.00     0.032 H 
ATOM     17  H3  <0> d           1.946   1.652   0.876  0.00  0.00     0.032 H 
ENDBRANCH   1  14
TORSDOF 1
