REMARK  2 active torsions:
REMARK  status: ('A' for Active; 'I' for Inactive)
REMARK    1  A    between atoms: C1_1  and  O1_2 
REMARK    2  A    between atoms: O1_2  and  C2_3 
ROOT
ATOM      1  C2  <0> d          -0.016   1.313   0.009  0.00  0.00     0.014 C 
ATOM      2  C3  <0> d           0.002  -0.004   0.002  0.00  0.00    -0.058 C 
ATOM      3  C4  <0> d           1.311  -0.762  -0.021  0.00  0.00    -0.043 C 
ATOM      4  C5  <0> d           1.289  -1.798   1.114  0.00  0.00    -0.061 C 
ATOM      5  C6  <0> d           0.048  -2.680   0.970  0.00  0.00    -0.065 C 
ATOM      6  C7  <0> d          -1.214  -1.832   1.138  0.00  0.00    -0.061 C 
ATOM      7  C8  <0> d          -1.286  -0.797   0.010  0.00  0.00    -0.043 C 
ATOM      8  H4  <0> d          -0.958   1.840   0.017  0.00  0.00     0.122 H 
ATOM      9  H5  <0> d           1.425  -1.268  -0.980  0.00  0.00     0.039 H 
ATOM     10  H6  <0> d           2.138  -0.069   0.131  0.00  0.00     0.039 H 
ATOM     11  H7  <0> d           1.262  -1.286   2.076  0.00  0.00     0.033 H 
ATOM     12  H8  <0> d           2.184  -2.417   1.057  0.00  0.00     0.033 H 
ATOM     13  H9  <0> d           0.066  -3.458   1.733  0.00  0.00     0.033 H 
ATOM     14  H10 <0> d           0.045  -3.141  -0.018  0.00  0.00     0.033 H 
ATOM     15  H11 <0> d          -1.182  -1.320   2.100  0.00  0.00     0.033 H 
ATOM     16  H12 <0> d          -2.093  -2.475   1.098  0.00  0.00     0.033 H 
ATOM     17  H13 <0> d          -2.128  -0.127   0.182  0.00  0.00     0.039 H 
ATOM     18  H14 <0> d          -1.410  -1.303  -0.947  0.00  0.00     0.039 H 
ENDROOT
BRANCH   1  19
ATOM     19  O1  <0> d           1.150   2.007   0.002  0.00  0.00    -0.368 OA
BRANCH  19  20
ATOM     20  C1  <0> d           1.056   3.433   0.010  0.00  0.00     0.009 C 
ATOM     21  H1  <0> d           0.510   3.766  -0.873  0.00  0.00     0.066 H 
ATOM     22  H2  <0> d           0.527   3.757   0.907  0.00  0.00     0.066 H 
ATOM     23  H3  <0> d           2.057   3.863   0.003  0.00  0.00     0.066 H 
ENDBRANCH  19  20
ENDBRANCH   1  19
TORSDOF 2
