REMARK  3 active torsions:
REMARK  status: ('A' for Active; 'I' for Inactive)
REMARK    1  A    between atoms: C1_1  and  C2_2 
REMARK    2  A    between atoms: C3_3  and  C6_7 
REMARK    3  A    between atoms: C6_7  and  C7_9 
ROOT
ATOM      1  C7  <0> d          -1.333   2.197   0.020  0.00  0.00     0.074 C 
ATOM      2  C8  <0> d          -1.084   3.648   0.027  0.00  0.00     0.067 C 
ATOM      3  N1  <0> d          -0.891   4.768   0.032  0.00  0.00    -0.197 NA
ATOM      4  H6  <0> d          -1.858   1.953  -0.795  0.00  0.00     0.067 H 
ATOM      5  H7  <0> d          -1.897   1.921   0.911  0.00  0.00     0.067 H 
ENDROOT
BRANCH   1   6
ATOM      6  C6  <0> d          -0.018   1.462   0.010  0.00  0.00     0.174 C 
ATOM      7  O2  <0> d           1.025   2.083   0.004  0.00  0.00    -0.291 OA
BRANCH   6   8
ATOM      8  C3  <0> d           0.002  -0.004   0.002  0.00  0.00     0.042 A 
ATOM      9  C2  <0> d           1.103  -0.817  -0.013  0.00  0.00     0.062 A 
ATOM     10  O1  <0> d           0.687  -2.086  -0.015  0.00  0.00    -0.326 OA
ATOM     11  C5  <0> d          -0.654  -2.153  -0.003  0.00  0.00     0.020 A 
ATOM     12  C4  <0> d          -1.157  -0.911   0.015  0.00  0.00    -0.045 A 
ATOM     13  H5  <0> d          -1.234  -3.064  -0.001  0.00  0.00     0.123 H 
ATOM     14  H4  <0> d          -2.201  -0.632   0.032  0.00  0.00     0.087 H 
BRANCH   9  15
ATOM     15  C1  <0> d           2.538  -0.359  -0.024  0.00  0.00    -0.030 C 
ATOM     16  H1  <0> d           2.894  -0.254   1.001  0.00  0.00     0.036 H 
ATOM     17  H2  <0> d           3.150  -1.093  -0.548  0.00  0.00     0.036 H 
ATOM     18  H3  <0> d           2.609   0.602  -0.533  0.00  0.00     0.036 H 
ENDBRANCH   9  15
ENDBRANCH   6   8
ENDBRANCH   1   6
TORSDOF 3
