REMARK  9 active torsions:
REMARK  status: ('A' for Active; 'I' for Inactive)
REMARK    1  A    between atoms: C1_1  and  C2_2 
REMARK    2  A    between atoms: C2_2  and  C3_3 
REMARK    3  A    between atoms: C3_3  and  C4_4 
REMARK    4  A    between atoms: C4_4  and  O1_5 
REMARK    5  A    between atoms: O1_5  and  C5_6 
REMARK    6  A    between atoms: C5_6  and  C6_8 
REMARK    7  A    between atoms: C6_8  and  C7_10 
REMARK    8  A    between atoms: C6_8  and  C8_11 
REMARK    9  A    between atoms: C8_11  and  C9_12 
ROOT
ATOM      1  C5  <0> d          -0.761   1.454   3.743  0.00  0.00     0.262 C 
ATOM      2  O2  <0> d          -1.796   2.068   3.643  0.00  0.00    -0.265 OA
ENDROOT
BRANCH   1   3
ATOM      3  O1  <0> d          -0.298   1.111   4.956  0.00  0.00    -0.321 OA
BRANCH   3   4
ATOM      4  C4  <0> d          -1.093   1.512   6.102  0.00  0.00     0.029 C 
ATOM      5  H9  <0> d          -1.184   2.598   6.120  0.00  0.00     0.075 H 
ATOM      6  H10 <0> d          -2.085   1.065   6.031  0.00  0.00     0.075 H 
BRANCH   4   7
ATOM      7  C3  <0> d          -0.411   1.036   7.387  0.00  0.00    -0.045 C 
ATOM      8  H7  <0> d          -0.320  -0.050   7.370  0.00  0.00     0.036 H 
ATOM      9  H8  <0> d           0.580   1.483   7.459  0.00  0.00     0.036 H 
BRANCH   7  10
ATOM     10  C2  <0> d          -1.250   1.459   8.595  0.00  0.00    -0.067 C 
ATOM     11  H5  <0> d          -1.341   2.545   8.613  0.00  0.00     0.032 H 
ATOM     12  H6  <0> d          -2.241   1.012   8.524  0.00  0.00     0.032 H 
BRANCH  10  13
ATOM     13  C1  <0> d          -0.568   0.983   9.880  0.00  0.00    -0.076 C 
ATOM     14  H2  <0> d          -1.165   1.284  10.741  0.00  0.00     0.027 H 
ATOM     15  H3  <0> d          -0.476  -0.103   9.863  0.00  0.00     0.027 H 
ATOM     16  H4  <0> d           0.424   1.430   9.952  0.00  0.00     0.027 H 
ENDBRANCH  10  13
ENDBRANCH   7  10
ENDBRANCH   4   7
ENDBRANCH   3   4
ENDBRANCH   1   3
BRANCH   1  17
ATOM     17  C6  <0> d           0.011   1.072   2.506  0.00  0.00     0.026 C 
ATOM     18  H1  <0> d           0.104  -0.013   2.456  0.00  0.00     0.054 H 
BRANCH  17  19
ATOM     19  C7  <0> d           1.405   1.701   2.561  0.00  0.00    -0.064 C 
ATOM     20  H11 <0> d           1.932   1.340   3.444  0.00  0.00     0.028 H 
ATOM     21  H12 <0> d           1.963   1.425   1.666  0.00  0.00     0.028 H 
ATOM     22  H13 <0> d           1.312   2.786   2.611  0.00  0.00     0.028 H 
ENDBRANCH  17  19
BRANCH  17  23
ATOM     23  C8  <0> d          -0.729   1.579   1.267  0.00  0.00    -0.057 C 
ATOM     24  H14 <0> d          -0.744   2.669   1.273  0.00  0.00     0.033 H 
ATOM     25  H15 <0> d          -1.751   1.202   1.275  0.00  0.00     0.033 H 
BRANCH  23  26
ATOM     26  C9  <0> d          -0.013   1.086   0.008  0.00  0.00    -0.076 C 
ATOM     27  H16 <0> d           0.002  -0.004   0.002  0.00  0.00     0.027 H 
ATOM     28  H17 <0> d           1.010   1.463   0.000  0.00  0.00     0.027 H 
ATOM     29  H18 <0> d          -0.540   1.447  -0.875  0.00  0.00     0.027 H 
ENDBRANCH  23  26
ENDBRANCH  17  23
ENDBRANCH   1  17
TORSDOF 9
