REMARK  3 active torsions:
REMARK  status: ('A' for Active; 'I' for Inactive)
REMARK    1  A    between atoms: C1_1  and  C2_2 
REMARK    2  A    between atoms: C2_2  and  C3_3 
REMARK    3  A    between atoms: C3_3  and  S1_4 
ROOT
ATOM      1  C2  <0> d           0.002  -0.004   0.002  0.00  0.00    -0.054 C 
ATOM      2  H4  <0> d           0.512  -0.356  -0.895  0.00  0.00     0.033 H 
ATOM      3  H5  <0> d           0.529  -0.365   0.885  0.00  0.00     0.033 H 
ENDROOT
BRANCH   1   4
ATOM      4  C1  <0> d          -0.019   1.526   0.010  0.00  0.00    -0.076 C 
ATOM      5  H1  <0> d           1.004   1.903   0.003  0.00  0.00     0.027 H 
ATOM      6  H2  <0> d          -0.546   1.887  -0.873  0.00  0.00     0.027 H 
ATOM      7  H3  <0> d          -0.529   1.877   0.907  0.00  0.00     0.027 H 
ENDBRANCH   1   4
BRANCH   1   8
ATOM      8  C3  <0> d          -1.433  -0.534   0.013  0.00  0.00     0.045 C 
ATOM      9  H6  <0> d          -1.944  -0.182   0.910  0.00  0.00     0.060 H 
ATOM     10  H7  <0> d          -1.960  -0.173  -0.870  0.00  0.00     0.060 H 
BRANCH   8  11
ATOM     11  S1  <0> d          -1.409  -2.348   0.003  0.00  0.00     0.101 S 
ATOM     12  O1  <0> d          -2.781  -2.831   0.013  0.00  0.00    -0.595 OA
ATOM     13  O2  <0> d          -0.725  -2.796  -1.200  0.00  0.00    -0.595 OA
ATOM     14  O3  <0> d          -0.702  -2.809   1.188  0.00  0.00    -0.595 OA
ENDBRANCH   8  11
ENDBRANCH   1   8
TORSDOF 3
