REMARK  1 active torsions:
REMARK  status: ('A' for Active; 'I' for Inactive)
REMARK    1  A    between atoms: C2_2  and  N1_3 
ROOT
ATOM      1  N1  <0> d          -0.017   1.390   0.010  0.00  0.00    -0.286 N 
ATOM      2  C3  <0> d          -1.216   2.052   0.013  0.00  0.00    -0.006 A 
ATOM      3  C4  <0> d          -1.233   3.402   0.027  0.00  0.00    -0.002 A 
ATOM      4  C5  <0> d          -0.005   4.107   0.026  0.00  0.00     0.250 A 
ATOM      5  O1  <0> d           0.004   5.325   0.034  0.00  0.00    -0.268 OA
ATOM      6  N2  <0> d           1.153   3.418   0.017  0.00  0.00    -0.275 N 
ATOM      7  H1  <0> d           2.025   3.909   0.016  0.00  0.00     0.173 HD
ATOM      8  C6  <0> d           1.143   2.072   0.010  0.00  0.00     0.333 A 
ATOM      9  O2  <0> d           2.196   1.464   0.002  0.00  0.00    -0.246 OA
ATOM     10  H5  <0> d          -2.143   1.498   0.009  0.00  0.00     0.112 H 
ATOM     11  H6  <0> d          -2.171   3.938   0.034  0.00  0.00     0.094 H 
ENDROOT
BRANCH   1  12
ATOM     12  C2  <0> d           0.002  -0.004   0.002  0.00  0.00    -0.020 C 
ATOM     13  C1  <0> d          -1.126  -0.679   0.109  0.00  0.00    -0.106 C 
ATOM     14  H2  <0> d          -1.105  -1.757   0.184  0.00  0.00     0.068 H 
ATOM     15  H3  <0> d          -2.070  -0.155   0.121  0.00  0.00     0.068 H 
ATOM     16  H4  <0> d           0.940  -0.531  -0.092  0.00  0.00     0.111 H 
ENDBRANCH   1  12
TORSDOF 1
