REMARK  4 active torsions:
REMARK  status: ('A' for Active; 'I' for Inactive)
REMARK    1  A    between atoms: C1_1  and  C2_2 
REMARK    2  A    between atoms: C1_1  and  O2_6 
REMARK    3  A    between atoms: C3_3  and  C4_4 
REMARK    4  A    between atoms: C4_4  and  O1_5 
ROOT
ATOM      1  C2  <0> d           1.042   4.196   0.015  0.00  0.00    -0.079 C 
ATOM      2  C3  <0> d           1.150   3.027   0.007  0.00  0.00    -0.079 C 
ENDROOT
BRANCH   1   3
ATOM      3  C1  <0> d           0.906   5.662   0.024  0.00  0.00     0.071 C 
ATOM      4  H1  <0> d           0.352   5.981  -0.859  0.00  0.00     0.093 H 
ATOM      5  H2  <0> d           0.369   5.971   0.921  0.00  0.00     0.093 H 
BRANCH   3   6
ATOM      6  O2  <0> d           2.203   6.261   0.015  0.00  0.00    -0.389 OA
ATOM      7  H6  <0> d           2.190   7.228   0.020  0.00  0.00     0.210 HD
ENDBRANCH   3   6
ENDBRANCH   1   3
BRANCH   2   8
ATOM      8  C4  <0> d           1.286   1.562  -0.002  0.00  0.00     0.071 C 
ATOM      9  H3  <0> d           1.840   1.243   0.881  0.00  0.00     0.093 H 
ATOM     10  H4  <0> d           1.823   1.252  -0.899  0.00  0.00     0.093 H 
BRANCH   8  11
ATOM     11  O1  <0> d          -0.011   0.963   0.007  0.00  0.00    -0.389 OA
ATOM     12  H5  <0> d           0.002  -0.004   0.002  0.00  0.00     0.210 HD
ENDBRANCH   8  11
ENDBRANCH   2   8
TORSDOF 4
