REMARK  4 active torsions:
REMARK  status: ('A' for Active; 'I' for Inactive)
REMARK    1  A    between atoms: C1_1  and  C2_2 
REMARK    2  A    between atoms: C7_8  and  C9_12 
REMARK    3  A    between atoms: C7_8  and  C10_13 
REMARK    4  A    between atoms: C8_9  and  O1_11 
ROOT
ATOM      1  C2  <0> d           0.102  -0.054   0.015  0.00  0.00    -0.017 C 
ATOM      2  C3  <0> d           0.883  -0.764  -1.134  0.00  0.00    -0.056 C 
ATOM      3  C4  <0> d           1.118  -2.201  -0.616  0.00  0.00    -0.060 C 
ATOM      4  C5  <0> d           0.458  -2.224   0.797  0.00  0.00    -0.044 C 
ATOM      5  H1  <0> d           0.793  -3.016   1.466  0.00  0.00     0.041 H 
ATOM      6  C6  <0> d           0.733  -0.753   1.270  0.00  0.00    -0.052 C 
ATOM      7  C7  <0> d          -1.075  -2.175   0.512  0.00  0.00    -0.017 C 
ATOM      8  C8  <0> d          -1.316  -0.701   0.007  0.00  0.00     0.049 C 
ATOM      9  H2  <0> d          -1.718  -0.724  -1.006  0.00  0.00     0.085 H 
ATOM     10  H6  <0> d           0.285  -0.781  -2.045  0.00  0.00     0.034 H 
ATOM     11  H7  <0> d           1.834  -0.263  -1.312  0.00  0.00     0.034 H 
ATOM     12  H8  <0> d           0.636  -2.925  -1.272  0.00  0.00     0.033 H 
ATOM     13  H9  <0> d           2.186  -2.407  -0.539  0.00  0.00     0.033 H 
ATOM     14  H10 <0> d           1.800  -0.546   1.360  0.00  0.00     0.034 H 
ATOM     15  H11 <0> d           0.195  -0.511   2.187  0.00  0.00     0.034 H 
ENDROOT
BRANCH   7  16
ATOM     16  C9  <0> d          -1.864  -2.417   1.800  0.00  0.00    -0.067 C 
ATOM     17  H13 <0> d          -1.614  -1.647   2.530  0.00  0.00     0.028 H 
ATOM     18  H14 <0> d          -2.932  -2.379   1.584  0.00  0.00     0.028 H 
ATOM     19  H15 <0> d          -1.609  -3.397   2.204  0.00  0.00     0.028 H 
ENDBRANCH   7  16
BRANCH   7  20
ATOM     20  C10 <0> d          -1.453  -3.209  -0.550  0.00  0.00    -0.067 C 
ATOM     21  H16 <0> d          -1.062  -4.185  -0.263  0.00  0.00     0.028 H 
ATOM     22  H17 <0> d          -2.539  -3.263  -0.633  0.00  0.00     0.028 H 
ATOM     23  H18 <0> d          -1.030  -2.915  -1.510  0.00  0.00     0.028 H 
ENDBRANCH   7  20
BRANCH   8  24
ATOM     24  O1  <0> d          -2.196   0.016   0.876  0.00  0.00    -0.394 OA
ATOM     25  H12 <0> d          -3.093  -0.343   0.911  0.00  0.00     0.210 HD
ENDBRANCH   8  24
BRANCH   1  26
ATOM     26  C1  <0> d           0.140   1.476   0.003  0.00  0.00    -0.067 C 
ATOM     27  H3  <0> d           1.175   1.814   0.028  0.00  0.00     0.028 H 
ATOM     28  H4  <0> d          -0.341   1.844  -0.904  0.00  0.00     0.028 H 
ATOM     29  H5  <0> d          -0.389   1.859   0.875  0.00  0.00     0.028 H 
ENDBRANCH   1  26
TORSDOF 4
