REMARK  1 active torsions:
REMARK  status: ('A' for Active; 'I' for Inactive)
REMARK    1  A    between atoms: C2_2  and  N3_8 
ROOT
ATOM      1  C1  <0> d          -2.426   0.939   0.019  0.00  0.00    -0.000 A 
ATOM      2  C2  <0> d          -1.220   1.642   0.017  0.00  0.00     0.125 A 
ATOM      3  N1  <0> d          -1.250   2.972   0.030  0.00  0.00    -0.225 NA
ATOM      4  C3  <0> d          -2.398   3.619   0.033  0.00  0.00     0.090 A 
ATOM      5  N2  <0> d          -3.554   2.986   0.035  0.00  0.00    -0.230 NA
ATOM      6  C4  <0> d          -3.606   1.660   0.028  0.00  0.00     0.131 A 
ATOM      7 Cl1  <0> d          -5.136   0.841   0.032  0.00  0.00    -0.062 Cl
ATOM      8  H1  <0> d          -2.437  -0.141   0.013  0.00  0.00     0.094 H 
ATOM      9  H2  <0> d          -2.392   4.699   0.039  0.00  0.00     0.146 H 
ENDROOT
BRANCH   2  10
ATOM     10  N3  <0> d          -0.011   0.966   0.007  0.00  0.00    -0.384 N 
ATOM     11  H3  <0> d           0.002  -0.004   0.002  0.00  0.00     0.157 HD
ATOM     12  H4  <0> d           0.822   1.462   0.002  0.00  0.00     0.157 HD
ENDBRANCH   2  10
TORSDOF 1
