REMARK  4 active torsions:
REMARK  status: ('A' for Active; 'I' for Inactive)
REMARK    1  A    between atoms: C1_1  and  C2_2 
REMARK    2  A    between atoms: C2_2  and  C3_4 
REMARK    3  A    between atoms: C2_2  and  N2_8 
REMARK       I    between atoms: C3_4  and  N1_6 
REMARK    4  A    between atoms: N1_6  and  C4_7 
ROOT
ATOM      1  C2  <0> d           0.002  -0.004   0.002  0.00  0.00     0.107 C 
ATOM      2  H1  <0> d           0.529  -0.365   0.885  0.00  0.00     0.090 H 
ENDROOT
BRANCH   1   3
ATOM      3  C1  <0> d          -0.019   1.526   0.010  0.00  0.00    -0.047 C 
ATOM      4  H2  <0> d           1.004   1.903   0.003  0.00  0.00     0.030 H 
ATOM      5  H3  <0> d          -0.546   1.887  -0.873  0.00  0.00     0.030 H 
ATOM      6  H4  <0> d          -0.529   1.877   0.907  0.00  0.00     0.030 H 
ENDBRANCH   1   3
BRANCH   1   7
ATOM      7  C3  <0> d          -1.412  -0.526   0.013  0.00  0.00     0.241 C 
ATOM      8  O1  <0> d          -1.808  -1.223  -0.897  0.00  0.00    -0.271 OA
ATOM      9  N1  <0> d          -2.236  -0.217   1.033  0.00  0.00    -0.364 N 
ATOM     10  H5  <0> d          -1.920   0.341   1.761  0.00  0.00     0.161 HD
BRANCH   9  11
ATOM     11  C4  <0> d          -3.611  -0.724   1.044  0.00  0.00    -0.018 C 
ATOM     12  H6  <0> d          -4.121  -0.372   1.940  0.00  0.00     0.056 H 
ATOM     13  H7  <0> d          -4.138  -0.363   0.161  0.00  0.00     0.056 H 
ATOM     14  H8  <0> d          -3.596  -1.814   1.038  0.00  0.00     0.056 H 
ENDBRANCH   9  11
ENDBRANCH   1   7
BRANCH   1  15
ATOM     15  N2  <0> d           0.688  -0.476  -1.203  0.00  0.00    -0.268 N 
ATOM     16  N3  <0> d           1.499  -1.614  -1.297  0.00  0.00    -0.184 NA
ATOM     17  C7  <0> d           1.929  -1.710  -2.530  0.00  0.00     0.023 A 
ATOM     18  C6  <0> d           1.413  -0.632  -3.256  0.00  0.00    -0.048 A 
ATOM     19  H11 <0> d           2.574  -2.484  -2.917  0.00  0.00     0.117 H 
ATOM     20  C5  <0> d           0.654   0.111  -2.418  0.00  0.00     0.001 A 
ATOM     21  H10 <0> d           1.589  -0.428  -4.302  0.00  0.00     0.087 H 
ATOM     22  H9  <0> d           0.117   1.012  -2.675  0.00  0.00     0.114 H 
ENDBRANCH   1  15
TORSDOF 4
