REMARK  2 active torsions:
REMARK  status: ('A' for Active; 'I' for Inactive)
REMARK    1  A    between atoms: C1_1  and  N1_2 
REMARK    2  A    between atoms: C5_6  and  O1_11 
ROOT
ATOM      1  N1  <0> d           0.002  -0.004   0.002  0.00  0.00    -0.274 N 
ATOM      2  C2  <0> d           0.008  -0.794  -1.120  0.00  0.00     0.064 A 
ATOM      3  C3  <0> d          -0.003  -0.525  -2.486  0.00  0.00    -0.052 A 
ATOM      4  C4  <0> d           0.006  -1.552  -3.386  0.00  0.00    -0.049 A 
ATOM      5  C5  <0> d           0.027  -2.877  -2.955  0.00  0.00     0.066 A 
ATOM      6  C6  <0> d           0.037  -3.172  -1.608  0.00  0.00    -0.037 A 
ATOM      7  C7  <0> d           0.029  -2.129  -0.674  0.00  0.00     0.014 A 
ATOM      8  C8  <0> d           0.035  -2.076   0.784  0.00  0.00     0.034 A 
ATOM      9  N2  <0> d           0.024  -0.822   1.137  0.00  0.00    -0.184 NA
ATOM     10  H4  <0> d          -0.020   0.497  -2.835  0.00  0.00     0.087 H 
ATOM     11  H5  <0> d          -0.002  -1.335  -4.444  0.00  0.00     0.087 H 
ATOM     12  H6  <0> d           0.053  -4.200  -1.276  0.00  0.00     0.089 H 
ATOM     13  H7  <0> d           0.050  -2.924   1.452  0.00  0.00     0.118 H 
ENDROOT
BRANCH   1  14
ATOM     14  C1  <0> d          -0.018   1.461   0.010  0.00  0.00     0.003 C 
ATOM     15  H1  <0> d           1.005   1.838   0.002  0.00  0.00     0.059 H 
ATOM     16  H2  <0> d          -0.545   1.822  -0.873  0.00  0.00     0.059 H 
ATOM     17  H3  <0> d          -0.528   1.812   0.907  0.00  0.00     0.059 H 
ENDBRANCH   1  14
BRANCH   5  18
ATOM     18  O1  <0> d           0.036  -3.885  -3.868  0.00  0.00    -0.361 OA
ATOM     19  H8  <0> d           0.922  -4.165  -4.136  0.00  0.00     0.217 HD
ENDBRANCH   5  18
TORSDOF 2
