REMARK  3 active torsions:
REMARK  status: ('A' for Active; 'I' for Inactive)
REMARK    1  A    between atoms: C1_1  and  O1_2 
REMARK    2  A    between atoms: O1_2  and  C2_3 
REMARK    3  A    between atoms: C4_5  and  O2_10 
ROOT
ATOM      1  C2  <0> d          -1.250   3.793   0.033  0.00  0.00     0.072 A 
ATOM      2  C3  <0> d          -0.059   4.504   0.026  0.00  0.00    -0.019 A 
ATOM      3  C4  <0> d           1.150   3.826   0.011  0.00  0.00     0.070 A 
ATOM      4  C5  <0> d           1.167   2.438   0.004  0.00  0.00    -0.030 A 
ATOM      5  C6  <0> d          -0.021   1.732   0.012  0.00  0.00     0.039 A 
ATOM      6  C7  <0> d          -1.229   2.406   0.021  0.00  0.00    -0.030 A 
ATOM      7 Cl1  <0> d           0.002  -0.004   0.002  0.00  0.00    -0.084 Cl
ATOM      8  H4  <0> d          -0.074   5.583   0.032  0.00  0.00     0.092 H 
ATOM      9  H5  <0> d           2.109   1.910  -0.007  0.00  0.00     0.090 H 
ATOM     10  H6  <0> d          -2.156   1.852   0.022  0.00  0.00     0.090 H 
ENDROOT
BRANCH   1  11
ATOM     11  O1  <0> d          -2.437   4.455   0.047  0.00  0.00    -0.356 OA
BRANCH  11  12
ATOM     12  C1  <0> d          -3.623   3.659   0.054  0.00  0.00     0.010 C 
ATOM     13  H1  <0> d          -3.647   3.034  -0.838  0.00  0.00     0.066 H 
ATOM     14  H2  <0> d          -3.631   3.026   0.942  0.00  0.00     0.066 H 
ATOM     15  H3  <0> d          -4.497   4.311   0.066  0.00  0.00     0.066 H 
ENDBRANCH  11  12
ENDBRANCH   1  11
BRANCH   3  16
ATOM     16  O2  <0> d           2.318   4.520   0.003  0.00  0.00    -0.361 OA
ATOM     17  H7  <0> d           2.648   4.726  -0.882  0.00  0.00     0.217 HD
ENDBRANCH   3  16
TORSDOF 3
