REMARK  3 active torsions:
REMARK  status: ('A' for Active; 'I' for Inactive)
REMARK    1  A    between atoms: C1_1  and  C2_2 
REMARK    2  A    between atoms: C2_2  and  C6_9 
REMARK    3  A    between atoms: C4_4  and  C5_6 
REMARK       I    between atoms: C5_6  and  N1_8 
ROOT
ATOM      1  C2  <0> d           1.335   1.811  -0.001  0.00  0.00    -0.035 A 
ATOM      2  C3  <0> d           0.460   1.806  -1.256  0.00  0.00    -0.046 A 
ATOM      3  C4  <0> d          -0.013   1.086   0.008  0.00  0.00     0.030 A 
ATOM      4  H1  <0> d           0.002  -0.004   0.002  0.00  0.00     0.055 H 
ATOM      5  H5  <0> d           0.786   1.189  -2.094  0.00  0.00     0.035 H 
ATOM      6  H6  <0> d          -0.042   2.736  -1.524  0.00  0.00     0.035 H 
ENDROOT
BRANCH   1   7
ATOM      7  C1  <0> d           1.438   3.120   0.783  0.00  0.00    -0.069 C 
ATOM      8  H2  <0> d           1.218   2.933   1.834  0.00  0.00     0.028 H 
ATOM      9  H3  <0> d           2.446   3.522   0.688  0.00  0.00     0.028 H 
ATOM     10  H4  <0> d           0.721   3.839   0.385  0.00  0.00     0.028 H 
ENDBRANCH   1   7
BRANCH   1  11
ATOM     11  C6  <0> d           2.600   0.950  -0.017  0.00  0.00    -0.069 C 
ATOM     12  H9  <0> d           2.603   0.325  -0.910  0.00  0.00     0.028 H 
ATOM     13  H10 <0> d           3.478   1.596  -0.022  0.00  0.00     0.028 H 
ATOM     14  H11 <0> d           2.619   0.317   0.870  0.00  0.00     0.028 H 
ENDBRANCH   1  11
BRANCH   3  15
ATOM     15  C5  <0> d          -1.137   1.716   0.789  0.00  0.00     0.220 C 
ATOM     16  O1  <0> d          -0.954   2.759   1.381  0.00  0.00    -0.273 OA
ATOM     17  N1  <0> d          -2.346   1.122   0.830  0.00  0.00    -0.370 N 
ATOM     18  H7  <0> d          -2.492   0.288   0.356  0.00  0.00     0.159 HD
ATOM     19  H8  <0> d          -3.069   1.527   1.332  0.00  0.00     0.159 HD
ENDBRANCH   3  15
TORSDOF 3
