REMARK  0 active torsions:
REMARK  status: ('A' for Active; 'I' for Inactive)
ROOT
ATOM      1  C1  <0> d          -0.019   1.551   0.011  0.00  0.00    -0.052 C 
ATOM      2  C2  <0> d           1.514   1.814  -0.003  0.00  0.00    -0.031 C 
ATOM      3  H1  <0> d           1.782   2.796   0.387  0.00  0.00     0.046 H 
ATOM      4  C3  <0> d           1.976   1.600  -1.458  0.00  0.00    -0.003 C 
ATOM      5  C4  <0> d           1.667   0.166  -1.835  0.00  0.00     0.128 C 
ATOM      6  O1  <0> d           2.487  -0.511  -2.408  0.00  0.00    -0.298 OA
ATOM      7  C5  <0> d           0.310  -0.403  -1.478  0.00  0.00    -0.003 C 
ATOM      8  C6  <0> d           0.002  -0.004   0.002  0.00  0.00    -0.031 C 
ATOM      9  H2  <0> d          -0.920  -0.445   0.382  0.00  0.00     0.046 H 
ATOM     10  C7  <0> d           1.225  -0.333   0.840  0.00  0.00    -0.102 C 
ATOM     11  C8  <0> d           2.062   0.673   0.838  0.00  0.00    -0.102 C 
ATOM     12  H3  <0> d          -0.483   1.940   0.917  0.00  0.00     0.035 H 
ATOM     13  H4  <0> d          -0.500   1.949  -0.883  0.00  0.00     0.035 H 
ATOM     14  H5  <0> d           1.439   2.279  -2.120  0.00  0.00     0.045 H 
ATOM     15  H6  <0> d           3.049   1.779  -1.536  0.00  0.00     0.045 H 
ATOM     16  H7  <0> d          -0.450   0.009  -2.142  0.00  0.00     0.045 H 
ATOM     17  H8  <0> d           0.330  -1.489  -1.567  0.00  0.00     0.045 H 
ATOM     18  H9  <0> d           1.382  -1.264   1.365  0.00  0.00     0.076 H 
ATOM     19  H10 <0> d           3.008   0.690   1.359  0.00  0.00     0.076 H 
ENDROOT
TORSDOF 0
