REMARK  4 active torsions:
REMARK  status: ('A' for Active; 'I' for Inactive)
REMARK    1  A    between atoms: C1_1  and  S1_2 
REMARK    2  A    between atoms: S1_2  and  C2_3 
REMARK    3  A    between atoms: C3_5  and  N4_10 
REMARK    4  A    between atoms: C5_7  and  N3_9 
ROOT
ATOM      1  C2  <0> d           0.002  -0.004   0.002  0.00  0.00     0.191 A 
ATOM      2  N1  <0> d          -0.016   1.321   0.009  0.00  0.00    -0.206 NA
ATOM      3  C3  <0> d           1.118   2.018   0.002  0.00  0.00     0.127 A 
ATOM      4  C4  <0> d           2.332   1.337  -0.013  0.00  0.00     0.005 A 
ATOM      5  C5  <0> d           2.311  -0.055  -0.020  0.00  0.00     0.127 A 
ATOM      6  N2  <0> d           1.139  -0.685  -0.013  0.00  0.00    -0.206 NA
ATOM      7  H4  <0> d           3.268   1.876  -0.019  0.00  0.00     0.095 H 
ENDROOT
BRANCH   1   8
ATOM      8  S1  <0> d          -1.525  -0.883   0.013  0.00  0.00    -0.095 SA
BRANCH   8   9
ATOM      9  C1  <0> d          -0.908  -2.585  -0.003  0.00  0.00    -0.027 C 
ATOM     10  H1  <0> d          -0.310  -2.746  -0.900  0.00  0.00     0.042 H 
ATOM     11  H2  <0> d          -0.293  -2.756   0.880  0.00  0.00     0.042 H 
ATOM     12  H3  <0> d          -1.751  -3.276   0.002  0.00  0.00     0.042 H 
ENDBRANCH   8   9
ENDBRANCH   1   8
BRANCH   5  13
ATOM     13  N3  <0> d           3.495  -0.775  -0.035  0.00  0.00    -0.384 N 
ATOM     14  H5  <0> d           3.473  -1.745  -0.040  0.00  0.00     0.157 HD
ATOM     15  H6  <0> d           4.346  -0.309  -0.041  0.00  0.00     0.157 HD
ENDBRANCH   5  13
BRANCH   3  16
ATOM     16  N4  <0> d           1.090   3.404   0.009  0.00  0.00    -0.384 N 
ATOM     17  H7  <0> d           0.241   3.872   0.020  0.00  0.00     0.157 HD
ATOM     18  H8  <0> d           1.921   3.905   0.004  0.00  0.00     0.157 HD
ENDBRANCH   3  16
TORSDOF 4
