REMARK  2 active torsions:
REMARK  status: ('A' for Active; 'I' for Inactive)
REMARK    1  A    between atoms: C2_2  and  C3_3 
REMARK    2  A    between atoms: C3_3  and  C6_6 
ROOT
ATOM      1  C1  <0> d           0.018  -1.178  -0.004  0.00  0.00    -0.153 C 
ATOM      2  C2  <0> d           0.002  -0.004   0.002  0.00  0.00    -0.102 C 
ATOM      3  H1  <0> d           0.032  -2.228  -0.010  0.00  0.00     0.166 H 
ENDROOT
BRANCH   2   4
ATOM      4  C3  <0> d          -0.018   1.468   0.010  0.00  0.00     0.050 A 
ATOM      5  C5  <0> d           1.329   2.193   0.001  0.00  0.00    -0.042 A 
ATOM      6  C4  <0> d           0.455   2.188  -1.254  0.00  0.00    -0.042 A 
ATOM      7  H4  <0> d           1.403   3.126   0.560  0.00  0.00     0.036 H 
ATOM      8  H5  <0> d           2.231   1.580  -0.011  0.00  0.00     0.036 H 
ATOM      9  H2  <0> d           0.781   1.571  -2.092  0.00  0.00     0.036 H 
ATOM     10  H3  <0> d          -0.047   3.118  -1.522  0.00  0.00     0.036 H 
BRANCH   4  11
ATOM     11  C6  <0> d          -1.142   2.098   0.791  0.00  0.00    -0.037 A 
ATOM     12  C11 <0> d          -2.382   1.488   0.833  0.00  0.00    -0.075 A 
ATOM     13  C10 <0> d          -3.412   2.064   1.553  0.00  0.00    -0.082 A 
ATOM     14  H10 <0> d          -2.545   0.560   0.306  0.00  0.00     0.084 H 
ATOM     15  C9  <0> d          -3.204   3.255   2.223  0.00  0.00    -0.083 A 
ATOM     16  H9  <0> d          -4.379   1.586   1.589  0.00  0.00     0.083 H 
ATOM     17  C8  <0> d          -1.966   3.868   2.177  0.00  0.00    -0.082 A 
ATOM     18  H8  <0> d          -4.010   3.707   2.784  0.00  0.00     0.083 H 
ATOM     19  C7  <0> d          -0.935   3.289   1.461  0.00  0.00    -0.075 A 
ATOM     20  H7  <0> d          -1.804   4.798   2.701  0.00  0.00     0.083 H 
ATOM     21  H6  <0> d           0.033   3.768   1.425  0.00  0.00     0.084 H 
ENDBRANCH   4  11
ENDBRANCH   2   4
TORSDOF 2
