REMARK  3 active torsions:
REMARK  status: ('A' for Active; 'I' for Inactive)
REMARK    1  A    between atoms: C1_1  and  C2_2 
REMARK    2  A    between atoms: C8_12  and  C9_13 
REMARK    3  A    between atoms: C8_12  and  C10_14 
ROOT
ATOM      1  C2  <0> d          -0.013   1.085   0.008  0.00  0.00    -0.047 C 
ATOM      2  H1  <0> d           0.002  -0.004   0.002  0.00  0.00     0.040 H 
ATOM      3  C3  <0> d           1.424   1.624  -0.003  0.00  0.00    -0.006 C 
ATOM      4  C4  <0> d           1.869   1.763  -1.450  0.00  0.00     0.132 C 
ATOM      5  O1  <0> d           2.994   1.508  -1.813  0.00  0.00    -0.298 OA
ATOM      6  C5  <0> d           0.785   2.255  -2.409  0.00  0.00     0.011 C 
ATOM      7  H2  <0> d           1.213   2.673  -3.210  0.00  0.00     0.052 H 
ATOM      8  C6  <0> d          -0.299   3.015  -1.619  0.00  0.00    -0.050 C 
ATOM      9  C7  <0> d          -0.794   1.618  -1.195  0.00  0.00    -0.043 C 
ATOM     10  H3  <0> d          -1.878   1.548  -1.073  0.00  0.00     0.041 H 
ATOM     11  C8  <0> d          -0.275   1.137  -2.557  0.00  0.00    -0.033 C 
ATOM     12  H7  <0> d           1.449   2.514   0.454  0.00  0.00     0.044 H 
ATOM     13  H8  <0> d           2.083   0.927   0.520  0.00  0.00     0.044 H 
ATOM     14  H9  <0> d           0.097   3.610  -0.793  0.00  0.00     0.034 H 
ATOM     15  H10 <0> d          -1.000   3.575  -2.234  0.00  0.00     0.034 H 
ENDROOT
BRANCH  11  16
ATOM     16  C9  <0> d          -1.255   1.364  -3.713  0.00  0.00    -0.068 C 
ATOM     17  H11 <0> d          -0.783   1.075  -4.652  0.00  0.00     0.028 H 
ATOM     18  H12 <0> d          -2.149   0.760  -3.555  0.00  0.00     0.028 H 
ATOM     19  H13 <0> d          -1.531   2.418  -3.754  0.00  0.00     0.028 H 
ENDBRANCH  11  16
BRANCH  11  20
ATOM     20  C10 <0> d           0.310  -0.276  -2.564  0.00  0.00    -0.068 C 
ATOM     21  H14 <0> d           1.105  -0.345  -1.822  0.00  0.00     0.028 H 
ATOM     22  H15 <0> d          -0.474  -0.995  -2.325  0.00  0.00     0.028 H 
ATOM     23  H16 <0> d           0.715  -0.497  -3.552  0.00  0.00     0.028 H 
ENDBRANCH  11  20
BRANCH   1  24
ATOM     24  C1  <0> d          -0.707   1.546   1.298  0.00  0.00    -0.072 C 
ATOM     25  H4  <0> d          -0.734   2.635   1.326  0.00  0.00     0.028 H 
ATOM     26  H5  <0> d          -1.725   1.157   1.321  0.00  0.00     0.028 H 
ATOM     27  H6  <0> d          -0.155   1.173   2.160  0.00  0.00     0.028 H 
ENDBRANCH   1  24
TORSDOF 3
