REMARK  3 active torsions:
REMARK  status: ('A' for Active; 'I' for Inactive)
REMARK    1  A    between atoms: C4_4  and  N1_7 
REMARK    2  A    between atoms: N1_7  and  C7_8 
REMARK    3  A    between atoms: C7_8  and  C8_9 
ROOT
ATOM      1  C1  <0> d           0.773   0.551   4.976  0.00  0.00    -0.083 A 
ATOM      2  C2  <0> d          -0.363   1.332   4.866  0.00  0.00    -0.081 A 
ATOM      3  C3  <0> d          -0.854   1.668   3.619  0.00  0.00    -0.058 A 
ATOM      4  C4  <0> d          -0.205   1.221   2.475  0.00  0.00     0.028 A 
ATOM      5  C5  <0> d           0.933   0.432   2.590  0.00  0.00    -0.058 A 
ATOM      6  C6  <0> d           1.422   0.104   3.839  0.00  0.00    -0.081 A 
ATOM      7  H1  <0> d           1.155   0.289   5.952  0.00  0.00     0.083 H 
ATOM      8  H2  <0> d          -0.867   1.679   5.756  0.00  0.00     0.083 H 
ATOM      9  H3  <0> d          -1.741   2.277   3.534  0.00  0.00     0.086 H 
ATOM     10  H4  <0> d           1.438   0.079   1.702  0.00  0.00     0.086 H 
ATOM     11  H5  <0> d           2.309  -0.506   3.929  0.00  0.00     0.083 H 
ENDROOT
BRANCH   4  12
ATOM     12  N1  <0> d          -0.698   1.558   1.213  0.00  0.00    -0.380 N 
ATOM     13  H6  <0> d          -1.495   2.106   1.135  0.00  0.00     0.160 HD
BRANCH  12  14
ATOM     14  C7  <0> d          -0.013   1.086   0.008  0.00  0.00     0.073 C 
ATOM     15  H7  <0> d           0.002  -0.004   0.002  0.00  0.00     0.080 H 
ATOM     16  H8  <0> d           1.010   1.463   0.000  0.00  0.00     0.080 H 
BRANCH  14  17
ATOM     17  C8  <0> d          -0.742   1.585  -1.213  0.00  0.00     0.191 C 
ATOM     18  O1  <0> d          -1.732   2.266  -1.089  0.00  0.00    -0.647 OA
ATOM     19  O2  <0> d          -0.290   1.274  -2.438  0.00  0.00    -0.647 OA
ENDBRANCH  14  17
ENDBRANCH  12  14
ENDBRANCH   4  12
TORSDOF 3
