REMARK  1 active torsions:
REMARK  status: ('A' for Active; 'I' for Inactive)
REMARK    1  A    between atoms: C9_13  and  O1_16 
ROOT
ATOM      1  C1  <0> d           0.669   1.294   2.220  0.00  0.00    -0.046 C 
ATOM      2  C2  <0> d           1.799   1.742   1.262  0.00  0.00    -0.106 C 
ATOM      3  C3  <0> d           1.369   1.670  -0.002  0.00  0.00    -0.102 C 
ATOM      4  C4  <0> d          -0.013   1.086   0.008  0.00  0.00    -0.028 C 
ATOM      5  H1  <0> d           0.002  -0.004   0.002  0.00  0.00     0.047 H 
ATOM      6  C5  <0> d          -0.481   1.697   1.394  0.00  0.00    -0.041 C 
ATOM      7  H2  <0> d          -0.290   2.762   1.261  0.00  0.00     0.042 H 
ATOM      8  C6  <0> d          -1.972   1.679   1.372  0.00  0.00    -0.047 C 
ATOM      9  H3  <0> d          -2.487   1.362   2.279  0.00  0.00     0.040 H 
ATOM     10  C7  <0> d          -2.317   0.924   0.018  0.00  0.00    -0.055 C 
ATOM     11  C8  <0> d          -1.149   1.651  -0.841  0.00  0.00    -0.022 C 
ATOM     12  H4  <0> d          -1.087   1.409  -1.902  0.00  0.00     0.044 H 
ATOM     13  C9  <0> d          -1.465   3.124  -0.521  0.00  0.00     0.040 C 
ATOM     14  H5  <0> d          -2.093   3.545  -1.306  0.00  0.00     0.083 H 
ATOM     15  C10 <0> d          -2.221   3.152   0.837  0.00  0.00    -0.037 C 
ATOM     16  H6  <0> d           0.686   0.217   2.386  0.00  0.00     0.039 H 
ATOM     17  H7  <0> d           0.699   1.843   3.161  0.00  0.00     0.039 H 
ATOM     18  H8  <0> d           2.784   2.062   1.568  0.00  0.00     0.076 H 
ATOM     19  H9  <0> d           1.920   1.978  -0.878  0.00  0.00     0.077 H 
ATOM     20  H10 <0> d          -2.186  -0.154   0.103  0.00  0.00     0.034 H 
ATOM     21  H11 <0> d          -3.307   1.185  -0.357  0.00  0.00     0.034 H 
ATOM     22  H12 <0> d          -3.285   3.339   0.688  0.00  0.00     0.037 H 
ATOM     23  H13 <0> d          -1.788   3.891   1.511  0.00  0.00     0.037 H 
ENDROOT
BRANCH  13  24
ATOM     24  O1  <0> d          -0.248   3.866  -0.418  0.00  0.00    -0.395 OA
ATOM     25  H14 <0> d          -0.374   4.801  -0.208  0.00  0.00     0.210 HD
ENDBRANCH  13  24
TORSDOF 1
