REMARK  3 active torsions:
REMARK  status: ('A' for Active; 'I' for Inactive)
REMARK    1  A    between atoms: C1_1  and  N1_2 
REMARK    2  A    between atoms: C4_5  and  O2_9 
REMARK    3  A    between atoms: O2_9  and  C6_10 
ROOT
ATOM      1  N1  <0> d          -0.018   1.461   0.010  0.00  0.00    -0.312 N 
ATOM      2  C2  <0> d           1.154   2.155   0.003  0.00  0.00    -0.012 A 
ATOM      3  C3  <0> d           1.121   3.510   0.010  0.00  0.00    -0.017 A 
ATOM      4  C4  <0> d          -0.126   4.162   0.026  0.00  0.00     0.170 A 
ATOM      5  N2  <0> d          -1.240   3.447   0.032  0.00  0.00    -0.170 NA
ATOM      6  C5  <0> d          -1.194   2.115   0.019  0.00  0.00     0.350 A 
ATOM      7  O1  <0> d          -2.235   1.478   0.021  0.00  0.00    -0.244 OA
ATOM      8  H4  <0> d           2.098   1.631  -0.010  0.00  0.00     0.112 H 
ATOM      9  H5  <0> d           2.038   4.080   0.005  0.00  0.00     0.092 H 
ENDROOT
BRANCH   4  10
ATOM     10  O2  <0> d          -0.185   5.512   0.033  0.00  0.00    -0.339 OA
BRANCH  10  11
ATOM     11  C6  <0> d          -1.486   6.104   0.049  0.00  0.00     0.012 C 
ATOM     12  H6  <0> d          -1.391   7.190   0.053  0.00  0.00     0.067 H 
ATOM     13  H7  <0> d          -2.038   5.791  -0.838  0.00  0.00     0.067 H 
ATOM     14  H8  <0> d          -2.021   5.782   0.942  0.00  0.00     0.067 H 
ENDBRANCH  10  11
ENDBRANCH   4  10
BRANCH   1  15
ATOM     15  C1  <0> d           0.002  -0.004   0.002  0.00  0.00    -0.010 C 
ATOM     16  H1  <0> d           0.017  -0.373   1.028  0.00  0.00     0.057 H 
ATOM     17  H2  <0> d          -0.888  -0.377  -0.505  0.00  0.00     0.057 H 
ATOM     18  H3  <0> d           0.892  -0.352  -0.522  0.00  0.00     0.057 H 
ENDBRANCH   1  15
TORSDOF 3
