REMARK  5 active torsions:
REMARK  status: ('A' for Active; 'I' for Inactive)
REMARK    1  A    between atoms: C1_1  and  C2_2 
REMARK    2  A    between atoms: N1_8  and  C6_9 
REMARK    3  A    between atoms: C6_9  and  C7_10 
REMARK    4  A    between atoms: C7_10  and  C8_11 
REMARK    5  A    between atoms: C7_10  and  C9_12 
ROOT
ATOM      1  C2  <0> d           0.002  -0.004   0.002  0.00  0.00     0.011 C 
ATOM      2  H1  <0> d           0.499  -0.369  -0.897  0.00  0.00     0.072 H 
ATOM      3  C3  <0> d          -1.438  -0.559   0.079  0.00  0.00    -0.038 C 
ATOM      4  C4  <0> d          -1.614  -0.767   1.601  0.00  0.00     0.011 C 
ATOM      5  C5  <0> d          -0.203  -0.939   2.118  0.00  0.00     0.220 C 
ATOM      6  O1  <0> d           0.089  -1.399   3.202  0.00  0.00    -0.273 OA
ATOM      7  N1  <0> d           0.683  -0.509   1.200  0.00  0.00    -0.347 N 
ATOM      8  H5  <0> d          -2.156   0.168  -0.301  0.00  0.00     0.036 H 
ATOM      9  H6  <0> d          -1.521  -1.504  -0.456  0.00  0.00     0.036 H 
ATOM     10  H7  <0> d          -2.082   0.106   2.054  0.00  0.00     0.047 H 
ATOM     11  H8  <0> d          -2.204  -1.663   1.798  0.00  0.00     0.047 H 
ENDROOT
BRANCH   7  12
ATOM     12  C6  <0> d           2.138  -0.541   1.372  0.00  0.00     0.001 C 
ATOM     13  H9  <0> d           2.409  -1.377   2.017  0.00  0.00     0.065 H 
ATOM     14  H10 <0> d           2.616  -0.662   0.400  0.00  0.00     0.065 H 
BRANCH  12  15
ATOM     15  C7  <0> d           2.604   0.768   2.012  0.00  0.00    -0.045 C 
ATOM     16  H11 <0> d           2.256   1.609   1.413  0.00  0.00     0.041 H 
BRANCH  15  17
ATOM     17  C8  <0> d           2.031   0.877   3.426  0.00  0.00    -0.072 C 
ATOM     18  H12 <0> d           2.364   1.810   3.882  0.00  0.00     0.028 H 
ATOM     19  H13 <0> d           0.943   0.864   3.379  0.00  0.00     0.028 H 
ATOM     20  H14 <0> d           2.380   0.036   4.025  0.00  0.00     0.028 H 
ENDBRANCH  15  17
BRANCH  15  21
ATOM     21  C9  <0> d           4.133   0.787   2.078  0.00  0.00    -0.072 C 
ATOM     22  H15 <0> d           4.541   0.709   1.070  0.00  0.00     0.028 H 
ATOM     23  H16 <0> d           4.465   1.720   2.533  0.00  0.00     0.028 H 
ATOM     24  H17 <0> d           4.481  -0.054   2.677  0.00  0.00     0.028 H 
ENDBRANCH  15  21
ENDBRANCH  12  15
ENDBRANCH   7  12
BRANCH   1  25
ATOM     25  C1  <0> d          -0.019   1.526   0.010  0.00  0.00    -0.057 C 
ATOM     26  H2  <0> d           1.004   1.903   0.003  0.00  0.00     0.030 H 
ATOM     27  H3  <0> d          -0.546   1.887  -0.873  0.00  0.00     0.030 H 
ATOM     28  H4  <0> d          -0.529   1.877   0.907  0.00  0.00     0.030 H 
ENDBRANCH   1  25
TORSDOF 5
