REMARK  1 active torsions:
REMARK  status: ('A' for Active; 'I' for Inactive)
REMARK    1  A    between atoms: C3_4  and  O3_12 
ROOT
ATOM      1  C1  <0> d           1.409   1.682  -0.002  0.00  0.00     0.050 C 
ATOM      2  C2  <0> d          -0.013   1.086   0.008  0.00  0.00     0.090 C 
ATOM      3  H1  <0> d           0.002  -0.004   0.002  0.00  0.00     0.091 H 
ATOM      4  C3  <0> d          -0.794   1.639   1.204  0.00  0.00     0.079 C 
ATOM      5  H2  <0> d          -0.222   1.473   2.117  0.00  0.00     0.093 H 
ATOM      6  C4  <0> d          -1.024   3.126   1.010  0.00  0.00    -0.072 C 
ATOM      7  C5  <0> d          -0.699   3.740  -0.095  0.00  0.00    -0.052 C 
ATOM      8  C6  <0> d          -0.061   2.968  -1.231  0.00  0.00     0.149 C 
ATOM      9  H3  <0> d          -0.199   3.459  -2.195  0.00  0.00     0.136 H 
ATOM     10  O1  <0> d           1.335   2.817  -0.885  0.00  0.00    -0.355 OA
ATOM     11  O2  <0> d          -0.605   1.629  -1.199  0.00  0.00    -0.348 OA
ATOM     12  H4  <0> d           1.693   2.001   1.001  0.00  0.00     0.078 H 
ATOM     13  H5  <0> d           2.123   0.952  -0.383  0.00  0.00     0.078 H 
ATOM     14  H6  <0> d          -1.468   3.694   1.815  0.00  0.00     0.080 H 
ATOM     15  H7  <0> d          -0.885   4.799  -0.199  0.00  0.00     0.084 H 
ENDROOT
BRANCH   4  16
ATOM     16  O3  <0> d          -2.049   0.964   1.304  0.00  0.00    -0.389 OA
ATOM     17  H8  <0> d          -2.599   1.263   2.041  0.00  0.00     0.210 HD
ENDBRANCH   4  16
TORSDOF 1
