REMARK  7 active torsions:
REMARK  status: ('A' for Active; 'I' for Inactive)
REMARK    1  A    between atoms: C1_1  and  C2_2 
REMARK    2  A    between atoms: C2_2  and  C3_3 
REMARK    3  A    between atoms: C3_3  and  C4_5 
REMARK    4  A    between atoms: C3_3  and  N1_6 
REMARK       I    between atoms: N1_6  and  C5_7 
REMARK       I    between atoms: C5_7  and  N2_9 
REMARK    5  A    between atoms: N2_9  and  C6_10 
REMARK    6  A    between atoms: C6_10  and  C7_11 
REMARK    7  A    between atoms: C6_10  and  C8_12 
ROOT
ATOM      1  N1  <0> d           2.125  -0.091  -1.209  0.00  0.00    -0.339 N 
ATOM      2  C5  <0> d           2.824   0.051  -2.353  0.00  0.00     0.316 C 
ATOM      3  O1  <0> d           2.287  -0.157  -3.424  0.00  0.00    -0.247 OA
ATOM      4  N2  <0> d           4.118   0.425  -2.309  0.00  0.00    -0.339 N 
ATOM      5  H10 <0> d           2.553   0.075  -0.355  0.00  0.00     0.164 HD
ATOM      6  H11 <0> d           4.546   0.592  -1.455  0.00  0.00     0.164 HD
ENDROOT
BRANCH   1   7
ATOM      7  C3  <0> d           0.718  -0.497  -1.257  0.00  0.00     0.010 C 
ATOM      8  H1  <0> d           0.244  -0.064  -2.138  0.00  0.00     0.071 H 
BRANCH   7   9
ATOM      9  C2  <0> d           0.002  -0.004   0.002  0.00  0.00    -0.050 C 
ATOM     10  H5  <0> d           0.529  -0.365   0.885  0.00  0.00     0.035 H 
ATOM     11  H6  <0> d          -1.020  -0.381   0.010  0.00  0.00     0.035 H 
BRANCH   9  12
ATOM     12  C1  <0> d          -0.019   1.526   0.010  0.00  0.00    -0.075 C 
ATOM     13  H2  <0> d           1.004   1.903   0.003  0.00  0.00     0.027 H 
ATOM     14  H3  <0> d          -0.546   1.887  -0.873  0.00  0.00     0.027 H 
ATOM     15  H4  <0> d          -0.529   1.877   0.907  0.00  0.00     0.027 H 
ENDBRANCH   9  12
ENDBRANCH   7   9
BRANCH   7  16
ATOM     16  C4  <0> d           0.630  -2.023  -1.329  0.00  0.00    -0.057 C 
ATOM     17  H7  <0> d           1.104  -2.456  -0.448  0.00  0.00     0.030 H 
ATOM     18  H8  <0> d          -0.416  -2.326  -1.364  0.00  0.00     0.030 H 
ATOM     19  H9  <0> d           1.141  -2.375  -2.225  0.00  0.00     0.030 H 
ENDBRANCH   7  16
ENDBRANCH   1   7
BRANCH   4  20
ATOM     20  C6  <0> d           4.878   0.581  -3.552  0.00  0.00     0.007 C 
ATOM     21  H12 <0> d           4.548  -0.165  -4.275  0.00  0.00     0.071 H 
BRANCH  20  22
ATOM     22  C7  <0> d           4.645   1.981  -4.121  0.00  0.00    -0.058 C 
ATOM     23  H13 <0> d           4.975   2.727  -3.398  0.00  0.00     0.030 H 
ATOM     24  H14 <0> d           5.210   2.097  -5.046  0.00  0.00     0.030 H 
ATOM     25  H15 <0> d           3.583   2.118  -4.325  0.00  0.00     0.030 H 
ENDBRANCH  20  22
BRANCH  20  26
ATOM     26  C8  <0> d           6.369   0.388  -3.266  0.00  0.00    -0.058 C 
ATOM     27  H16 <0> d           6.535  -0.610  -2.860  0.00  0.00     0.030 H 
ATOM     28  H17 <0> d           6.934   0.503  -4.190  0.00  0.00     0.030 H 
ATOM     29  H18 <0> d           6.699   1.134  -2.542  0.00  0.00     0.030 H 
ENDBRANCH  20  26
ENDBRANCH   4  20
TORSDOF 7
