REMARK  2 active torsions:
REMARK  status: ('A' for Active; 'I' for Inactive)
REMARK    1  A    between atoms: C1_1  and  C2_2 
REMARK    2  A    between atoms: C2_2  and  C3_3 
ROOT
ATOM      1  C3  <0> d          -0.829   1.632  -1.185  0.00  0.00     0.032 C 
ATOM      2  H1  <0> d          -0.324   2.490  -1.629  0.00  0.00     0.055 H 
ATOM      3  C4  <0> d          -0.013   1.086   0.008  0.00  0.00    -0.033 C 
ATOM      4  C5  <0> d          -0.806   1.619   1.223  0.00  0.00     0.030 C 
ATOM      5  O1  <0> d          -2.174   1.763   0.722  0.00  0.00    -0.321 OA
ATOM      6  C6  <0> d          -2.154   2.052  -0.587  0.00  0.00     0.263 C 
ATOM      7  O2  <0> d          -3.059   2.570  -1.198  0.00  0.00    -0.265 OA
ATOM      8  H7  <0> d           0.002  -0.004   0.002  0.00  0.00     0.037 H 
ATOM      9  H8  <0> d           1.001   1.486   0.001  0.00  0.00     0.037 H 
ATOM     10  H9  <0> d          -0.771   0.903   2.044  0.00  0.00     0.075 H 
ATOM     11  H10 <0> d          -0.412   2.584   1.541  0.00  0.00     0.075 H 
ENDROOT
BRANCH   1  12
ATOM     12  C2  <0> d          -1.040   0.536  -2.232  0.00  0.00    -0.056 C 
ATOM     13  H5  <0> d          -0.074   0.126  -2.528  0.00  0.00     0.033 H 
ATOM     14  H6  <0> d          -1.657  -0.257  -1.808  0.00  0.00     0.033 H 
BRANCH  12  15
ATOM     15  C1  <0> d          -1.740   1.129  -3.456  0.00  0.00    -0.076 C 
ATOM     16  H2  <0> d          -2.705   1.539  -3.160  0.00  0.00     0.027 H 
ATOM     17  H3  <0> d          -1.123   1.921  -3.879  0.00  0.00     0.027 H 
ATOM     18  H4  <0> d          -1.890   0.348  -4.202  0.00  0.00     0.027 H 
ENDBRANCH  12  15
ENDBRANCH   1  12
TORSDOF 2
