REMARK  1 active torsions:
REMARK  status: ('A' for Active; 'I' for Inactive)
REMARK    1  A    between atoms: C1_1  and  C2_2 
ROOT
ATOM      1  C2  <0> d           0.002  -0.004   0.002  0.00  0.00    -0.062 A 
ATOM      2  C3  <0> d           0.006  -0.686  -1.202  0.00  0.00    -0.076 A 
ATOM      3  C4  <0> d           0.024  -2.065  -1.217  0.00  0.00    -0.062 A 
ATOM      4  C5  <0> d           0.040  -2.773  -0.013  0.00  0.00     0.044 A 
ATOM      5  C6  <0> d           0.037  -2.079   1.198  0.00  0.00    -0.062 A 
ATOM      6  C7  <0> d           0.023  -0.699   1.198  0.00  0.00    -0.076 A 
ATOM      7  C8  <0> d           0.059  -4.205  -0.021  0.00  0.00     0.099 C 
ATOM      8  N1  <0> d           0.074  -5.341  -0.027  0.00  0.00    -0.191 NA
ATOM      9  H4  <0> d          -0.006  -0.137  -2.132  0.00  0.00     0.084 H 
ATOM     10  H5  <0> d           0.026  -2.596  -2.157  0.00  0.00     0.085 H 
ATOM     11  H6  <0> d           0.049  -2.620   2.132  0.00  0.00     0.085 H 
ATOM     12  H7  <0> d           0.024  -0.160   2.134  0.00  0.00     0.084 H 
ENDROOT
BRANCH   1  13
ATOM     13  C1  <0> d          -0.018   1.503   0.010  0.00  0.00    -0.051 C 
ATOM     14  H1  <0> d           1.004   1.880   0.003  0.00  0.00     0.033 H 
ATOM     15  H2  <0> d          -0.545   1.864  -0.873  0.00  0.00     0.033 H 
ATOM     16  H3  <0> d          -0.529   1.854   0.907  0.00  0.00     0.033 H 
ENDBRANCH   1  13
TORSDOF 1
