REMARK  2 active torsions:
REMARK  status: ('A' for Active; 'I' for Inactive)
REMARK    1  A    between atoms: C2_2  and  N4_8 
REMARK    2  A    between atoms: C4_6  and  N3_7 
ROOT
ATOM      1  C1  <0> d          -0.013   1.076   0.008  0.00  0.00     0.005 A 
ATOM      2  C2  <0> d          -1.217   1.773   0.017  0.00  0.00     0.126 A 
ATOM      3  N1  <0> d          -1.192   3.105   0.030  0.00  0.00    -0.225 NA
ATOM      4  C3  <0> d          -0.049   3.760   0.023  0.00  0.00     0.091 A 
ATOM      5  N2  <0> d           1.111   3.136   0.008  0.00  0.00    -0.225 NA
ATOM      6  C4  <0> d           1.172   1.806   0.001  0.00  0.00     0.126 A 
ATOM      7  H1  <0> d           0.002  -0.004   0.002  0.00  0.00     0.095 H 
ATOM      8  H2  <0> d          -0.064   4.840   0.028  0.00  0.00     0.146 H 
ENDROOT
BRANCH   2   9
ATOM      9  N4  <0> d          -2.424   1.092   0.019  0.00  0.00    -0.384 N 
ATOM     10  H5  <0> d          -2.434   0.122   0.013  0.00  0.00     0.157 HD
ATOM     11  H6  <0> d          -3.259   1.586   0.025  0.00  0.00     0.157 HD
ENDBRANCH   2   9
BRANCH   6  12
ATOM     12  N3  <0> d           2.397   1.158  -0.015  0.00  0.00    -0.384 N 
ATOM     13  H3  <0> d           2.433   0.189  -0.021  0.00  0.00     0.157 HD
ATOM     14  H4  <0> d           3.219   1.674  -0.020  0.00  0.00     0.157 HD
ENDBRANCH   6  12
TORSDOF 2
