REMARK  1 active torsions:
REMARK  status: ('A' for Active; 'I' for Inactive)
REMARK    1  A    between atoms: C1_1  and  C2_2 
ROOT
ATOM      1  C2  <0> d           2.716   3.977  -0.002  0.00  0.00    -0.061 A 
ATOM      2  C3  <0> d           3.833   3.153  -0.017  0.00  0.00    -0.076 A 
ATOM      3  C4  <0> d           3.668   1.782  -0.023  0.00  0.00    -0.065 A 
ATOM      4  C5  <0> d           2.396   1.252  -0.014  0.00  0.00     0.015 A 
ATOM      5  C6  <0> d           1.243   2.067   0.001  0.00  0.00    -0.018 A 
ATOM      6  C7  <0> d           1.456   3.466   0.007  0.00  0.00    -0.066 A 
ATOM      7  C8  <0> d          -0.016   1.337   0.009  0.00  0.00    -0.065 A 
ATOM      8  C9  <0> d           0.002  -0.004   0.002  0.00  0.00    -0.043 A 
ATOM      9  S1  <0> d           1.741  -0.397  -0.017  0.00  0.00    -0.101 SA
ATOM     10  H4  <0> d           4.825   3.581  -0.023  0.00  0.00     0.084 H 
ATOM     11  H5  <0> d           4.529   1.130  -0.035  0.00  0.00     0.085 H 
ATOM     12  H6  <0> d           0.608   4.135   0.018  0.00  0.00     0.085 H 
ATOM     13  H7  <0> d          -0.956   1.869   0.017  0.00  0.00     0.085 H 
ATOM     14  H8  <0> d          -0.837  -0.684   0.006  0.00  0.00     0.095 H 
ENDROOT
BRANCH   1  15
ATOM     15  C1  <0> d           2.904   5.472   0.005  0.00  0.00    -0.051 C 
ATOM     16  H1  <0> d           2.939   5.838  -1.020  0.00  0.00     0.033 H 
ATOM     17  H2  <0> d           2.071   5.940   0.530  0.00  0.00     0.033 H 
ATOM     18  H3  <0> d           3.837   5.718   0.512  0.00  0.00     0.033 H 
ENDBRANCH   1  15
TORSDOF 1
