REMARK  4 active torsions:
REMARK  status: ('A' for Active; 'I' for Inactive)
REMARK    1  A    between atoms: C1_1  and  C2_2 
REMARK    2  A    between atoms: C2_2  and  C3_4 
REMARK    3  A    between atoms: C2_2  and  O1_11 
REMARK    4  A    between atoms: C3_4  and  C4_5 
ROOT
ATOM      1  C3  <0> d           0.742  -0.511   1.242  0.00  0.00    -0.003 C 
ATOM      2  H6  <0> d           1.788  -0.208   1.190  0.00  0.00     0.046 H 
ATOM      3  H7  <0> d           0.285  -0.087   2.136  0.00  0.00     0.046 H 
ENDROOT
BRANCH   1   4
ATOM      4  C2  <0> d           0.002  -0.004   0.002  0.00  0.00     0.037 C 
ATOM      5  H1  <0> d          -1.020  -0.381   0.010  0.00  0.00     0.082 H 
BRANCH   4   6
ATOM      6  C1  <0> d          -0.019   1.526   0.010  0.00  0.00    -0.052 C 
ATOM      7  H3  <0> d           1.004   1.903   0.003  0.00  0.00     0.030 H 
ATOM      8  H4  <0> d          -0.546   1.887  -0.873  0.00  0.00     0.030 H 
ATOM      9  H5  <0> d          -0.529   1.877   0.907  0.00  0.00     0.030 H 
ENDBRANCH   4   6
BRANCH   4  10
ATOM     10  O1  <0> d           0.671  -0.465  -1.174  0.00  0.00    -0.396 OA
ATOM     11  H11 <0> d           0.256  -0.181  -1.999  0.00  0.00     0.210 HD
ENDBRANCH   4  10
ENDBRANCH   1   4
BRANCH   1  12
ATOM     12  C4  <0> d           0.657  -2.014   1.298  0.00  0.00     0.011 A 
ATOM     13  N1  <0> d           1.592  -2.886   0.824  0.00  0.00    -0.369 N 
ATOM     14  C7  <0> d           1.163  -4.159   1.059  0.00  0.00    -0.023 A 
ATOM     15  H2  <0> d           2.425  -2.642   0.393  0.00  0.00     0.165 HD
ATOM     16  C6  <0> d          -0.039  -4.093   1.669  0.00  0.00    -0.066 A 
ATOM     17  H10 <0> d           1.692  -5.064   0.799  0.00  0.00     0.111 H 
ATOM     18  C5  <0> d          -0.360  -2.729   1.820  0.00  0.00    -0.060 A 
ATOM     19  H9  <0> d          -0.643  -4.931   1.983  0.00  0.00     0.085 H 
ATOM     20  H8  <0> d          -1.256  -2.330   2.272  0.00  0.00     0.086 H 
ENDBRANCH   1  12
TORSDOF 4
