REMARK  5 active torsions:
REMARK  status: ('A' for Active; 'I' for Inactive)
REMARK    1  A    between atoms: C1_1  and  C2_2 
REMARK    2  A    between atoms: C2_2  and  C3_4 
REMARK    3  A    between atoms: C2_2  and  O2_12 
REMARK    4  A    between atoms: C3_4  and  C4_5 
REMARK    5  A    between atoms: C4_5  and  C5_6 
ROOT
ATOM      1  C4  <0> d          -0.706   2.057   1.276  0.00  0.00    -0.039 C 
ATOM      2  H8  <0> d          -1.700   1.617   1.356  0.00  0.00     0.036 H 
ATOM      3  H9  <0> d          -0.115   1.780   2.149  0.00  0.00     0.036 H 
ENDROOT
BRANCH   1   4
ATOM      4  C3  <0> d          -0.827   3.580   1.206  0.00  0.00    -0.039 C 
ATOM      5  H6  <0> d           0.168   4.021   1.126  0.00  0.00     0.036 H 
ATOM      6  H7  <0> d          -1.417   3.858   0.333  0.00  0.00     0.036 H 
BRANCH   4   7
ATOM      7  C2  <0> d          -1.513   4.097   2.472  0.00  0.00     0.032 C 
ATOM      8  H1  <0> d          -2.470   3.590   2.598  0.00  0.00     0.082 H 
BRANCH   7   9
ATOM      9  C1  <0> d          -1.747   5.604   2.347  0.00  0.00    -0.052 C 
ATOM     10  H3  <0> d          -2.380   5.803   1.483  0.00  0.00     0.030 H 
ATOM     11  H4  <0> d          -2.236   5.972   3.249  0.00  0.00     0.030 H 
ATOM     12  H5  <0> d          -0.790   6.110   2.220  0.00  0.00     0.030 H 
ENDBRANCH   7   9
BRANCH   7  13
ATOM     13  O2  <0> d          -0.682   3.836   3.605  0.00  0.00    -0.396 OA
ATOM     14  H16 <0> d           0.187   4.256   3.560  0.00  0.00     0.210 HD
ENDBRANCH   7  13
ENDBRANCH   4   7
ENDBRANCH   1   4
BRANCH   1  15
ATOM     15  C5  <0> d          -0.019   1.541   0.011  0.00  0.00     0.038 C 
ATOM     16  H2  <0> d          -0.525   1.918  -0.878  0.00  0.00     0.083 H 
ATOM     17  O1  <0> d           1.372   1.929  -0.001  0.00  0.00    -0.386 OA
ATOM     18  C8  <0> d           2.015   1.015  -0.917  0.00  0.00     0.020 C 
ATOM     19  C7  <0> d           1.371  -0.357  -0.622  0.00  0.00    -0.043 C 
ATOM     20  H14 <0> d           3.087   0.980  -0.727  0.00  0.00     0.074 H 
ATOM     21  H15 <0> d           1.822   1.311  -1.948  0.00  0.00     0.074 H 
ATOM     22  C6  <0> d           0.002  -0.004   0.002  0.00  0.00    -0.039 C 
ATOM     23  H12 <0> d           1.979  -0.921   0.086  0.00  0.00     0.036 H 
ATOM     24  H13 <0> d           1.235  -0.922  -1.545  0.00  0.00     0.036 H 
ATOM     25  H10 <0> d          -0.066  -0.393   1.018  0.00  0.00     0.036 H 
ATOM     26  H11 <0> d          -0.810  -0.394  -0.612  0.00  0.00     0.036 H 
ENDBRANCH   1  15
TORSDOF 5
