REMARK  2 active torsions:
REMARK  status: ('A' for Active; 'I' for Inactive)
REMARK    1  A    between atoms: C1_1  and  C2_2 
REMARK       I    between atoms: C2_2  and  N1_4 
REMARK    2  A    between atoms: N1_4  and  C3_5 
ROOT
ATOM      1  C3  <0> d           1.093   1.786   0.001  0.00  0.00     0.727 A 
ATOM      2  N2  <0> d          -0.011   0.966   0.007  0.00  0.00    -0.137 N 
ATOM      3  H1  <0> d           0.002  -0.004   0.002  0.00  0.00     0.189 HD
ATOM      4  C4  <0> d          -1.115   1.740   0.016  0.00  0.00     0.355 A 
ATOM      5  O2  <0> d          -2.268   1.349   0.019  0.00  0.00    -0.245 OA
ATOM      6  N3  <0> d          -0.709   3.027   0.024  0.00  0.00    -0.212 N 
ATOM      7  H2  <0> d          -1.281   3.809   0.034  0.00  0.00     0.194 HD
ATOM      8  N4  <0> d           0.693   3.024   0.011  0.00  0.00     0.021 NA
ENDROOT
BRANCH   1   9
ATOM      9  N1  <0> d           2.418   1.363  -0.013  0.00  0.00    -0.157 N 
ATOM     10  C2  <0> d           3.416   2.270  -0.018  0.00  0.00     0.232 C 
ATOM     11  O1  <0> d           3.158   3.455  -0.010  0.00  0.00    -0.273 OA
ATOM     12  H6  <0> d           2.624   0.415  -0.020  0.00  0.00     0.187 HD
BRANCH  10  13
ATOM     13  C1  <0> d           4.851   1.811  -0.034  0.00  0.00    -0.002 C 
ATOM     14  H3  <0> d           5.187   1.705  -1.065  0.00  0.00     0.040 H 
ATOM     15  H4  <0> d           5.473   2.545   0.478  0.00  0.00     0.040 H 
ATOM     16  H5  <0> d           4.931   0.850   0.475  0.00  0.00     0.040 H 
ENDBRANCH  10  13
ENDBRANCH   1   9
TORSDOF 2
