REMARK  0 active torsions:
REMARK  status: ('A' for Active; 'I' for Inactive)
ROOT
ATOM      1  C1  <0> d          -0.019   1.528   0.010  0.00  0.00    -0.058 C 
ATOM      2  C2  <0> d           1.417   2.056  -0.000  0.00  0.00    -0.049 C 
ATOM      3  C3  <0> d           2.112   1.641  -1.298  0.00  0.00     0.036 C 
ATOM      4  H1  <0> d           1.535   2.000  -2.151  0.00  0.00     0.063 H 
ATOM      5  C4  <0> d           2.213   0.113  -1.356  0.00  0.00     0.005 C 
ATOM      6  C5  <0> d           0.828  -0.467  -1.178  0.00  0.00     0.128 C 
ATOM      7  O1  <0> d           0.392  -1.280  -1.958  0.00  0.00    -0.298 OA
ATOM      8  C6  <0> d           0.002  -0.004   0.002  0.00  0.00    -0.010 C 
ATOM      9  C7  <0> d           3.463   2.225  -1.340  0.00  0.00     0.064 C 
ATOM     10  N1  <0> d           4.505   2.675  -1.372  0.00  0.00    -0.197 NA
ATOM     11  H2  <0> d          -0.528   1.880   0.907  0.00  0.00     0.033 H 
ATOM     12  H3  <0> d          -0.545   1.889  -0.873  0.00  0.00     0.033 H 
ATOM     13  H4  <0> d           1.404   3.143   0.072  0.00  0.00     0.035 H 
ATOM     14  H5  <0> d           1.961   1.644   0.850  0.00  0.00     0.035 H 
ATOM     15  H6  <0> d           2.616  -0.191  -2.322  0.00  0.00     0.046 H 
ATOM     16  H7  <0> d           2.864  -0.241  -0.557  0.00  0.00     0.046 H 
ATOM     17  H8  <0> d           0.448  -0.369   0.927  0.00  0.00     0.044 H 
ATOM     18  H9  <0> d          -1.016  -0.384  -0.091  0.00  0.00     0.044 H 
ENDROOT
TORSDOF 0
