REMARK  1 active torsions:
REMARK  status: ('A' for Active; 'I' for Inactive)
REMARK    1  A    between atoms: N1_4  and  C5_6 
ROOT
ATOM      1  C1  <0> d          -3.362  -1.130   0.029  0.00  0.00    -0.066 A 
ATOM      2  C2  <0> d          -2.657  -2.352   0.016  0.00  0.00    -0.066 A 
ATOM      3  C3  <0> d          -1.342  -2.061   0.004  0.00  0.00     0.002 A 
ATOM      4  N1  <0> d          -1.205  -0.701   0.010  0.00  0.00    -0.165 N 
ATOM      5  C4  <0> d          -2.451  -0.137   0.032  0.00  0.00     0.002 A 
ATOM      6  H1  <0> d          -4.435  -1.012   0.041  0.00  0.00     0.085 H 
ATOM      7  H2  <0> d          -3.093  -3.340   0.015  0.00  0.00     0.085 H 
ATOM      8  H3  <0> d          -0.534  -2.778  -0.007  0.00  0.00     0.113 H 
ATOM      9  H4  <0> d          -2.667   0.921   0.045  0.00  0.00     0.113 H 
ENDROOT
BRANCH   4  10
ATOM     10  C5  <0> d           0.002  -0.004   0.002  0.00  0.00     0.732 A 
ATOM     11  N3  <0> d           1.138  -0.682  -0.013  0.00  0.00    -0.075 NA
ATOM     12  C8  <0> d           2.302  -0.053  -0.020  0.00  0.00     0.022 A 
ATOM     13  C7  <0> d           2.320   1.333  -0.013  0.00  0.00    -0.048 A 
ATOM     14  H7  <0> d           3.226  -0.612  -0.032  0.00  0.00     0.115 H 
ATOM     15  C6  <0> d           1.111   2.011   0.002  0.00  0.00     0.022 A 
ATOM     16  H6  <0> d           3.256   1.873  -0.019  0.00  0.00     0.087 H 
ATOM     17  N2  <0> d          -0.016   1.319   0.009  0.00  0.00    -0.075 NA
ATOM     18  H5  <0> d           1.090   3.091   0.008  0.00  0.00     0.115 H 
ENDBRANCH   4  10
TORSDOF 1
