REMARK  2 active torsions:
REMARK  status: ('A' for Active; 'I' for Inactive)
REMARK    1  A    between atoms: C1_1  and  C2_2 
REMARK    2  A    between atoms: C7_7  and  O1_8 
ROOT
ATOM      1  C2  <0> d           2.397   0.022  -0.020  0.00  0.00    -0.027 A 
ATOM      2  C3  <0> d           1.207  -0.681  -0.013  0.00  0.00    -0.074 A 
ATOM      3  C4  <0> d           0.002  -0.004   0.002  0.00  0.00    -0.081 A 
ATOM      4  C5  <0> d          -0.017   1.379   0.010  0.00  0.00    -0.059 A 
ATOM      5  C6  <0> d           1.170   2.087   0.002  0.00  0.00     0.067 A 
ATOM      6  C7  <0> d           2.382   1.408  -0.013  0.00  0.00     0.093 A 
ATOM      7 Cl1  <0> d           1.147   3.823   0.011  0.00  0.00    -0.081 Cl
ATOM      8  H4  <0> d           1.219  -1.761  -0.019  0.00  0.00     0.084 H 
ATOM      9  H5  <0> d          -0.926  -0.556   0.008  0.00  0.00     0.083 H 
ATOM     10  H6  <0> d          -0.959   1.906   0.017  0.00  0.00     0.086 H 
ENDROOT
BRANCH   1  11
ATOM     11  C1  <0> d           3.710  -0.718  -0.036  0.00  0.00    -0.049 C 
ATOM     12  H1  <0> d           4.017  -0.891  -1.067  0.00  0.00     0.033 H 
ATOM     13  H2  <0> d           4.468  -0.123   0.474  0.00  0.00     0.033 H 
ATOM     14  H3  <0> d           3.594  -1.674   0.474  0.00  0.00     0.033 H 
ENDBRANCH   1  11
BRANCH   6  15
ATOM     15  O1  <0> d           3.550   2.102  -0.021  0.00  0.00    -0.358 OA
ATOM     16  H7  <0> d           3.880   2.307  -0.906  0.00  0.00     0.217 HD
ENDBRANCH   6  15
TORSDOF 2
