REMARK  1 active torsions:
REMARK  status: ('A' for Active; 'I' for Inactive)
REMARK    1  A    between atoms: C2_2  and  C5_9 
REMARK       I    between atoms: C5_9  and  N3_11 
ROOT
ATOM      1  C1  <0> d          -0.017   1.409   0.010  0.00  0.00     0.016 A 
ATOM      2  C2  <0> d          -1.239   2.052   0.019  0.00  0.00     0.133 A 
ATOM      3  N1  <0> d          -2.369   1.333   0.021  0.00  0.00    -0.201 NA
ATOM      4  C3  <0> d          -2.344   0.020   0.013  0.00  0.00     0.281 A 
ATOM      5  N2  <0> d          -1.173  -0.668   0.004  0.00  0.00    -0.285 N 
ATOM      6  C4  <0> d           0.002  -0.004   0.002  0.00  0.00     0.250 A 
ATOM      7  O1  <0> d           1.059  -0.611  -0.012  0.00  0.00    -0.268 OA
ATOM      8  O2  <0> d          -3.508  -0.662   0.015  0.00  0.00    -0.149 OA
ATOM      9  H1  <0> d           0.904   1.973   0.004  0.00  0.00     0.096 H 
ATOM     10  H2  <0> d          -1.181  -1.638  -0.001  0.00  0.00     0.172 HD
ENDROOT
BRANCH   2  11
ATOM     11  C5  <0> d          -1.299   3.537   0.028  0.00  0.00     0.268 C 
ATOM     12  O3  <0> d          -0.273   4.187   0.027  0.00  0.00    -0.266 OA
ATOM     13  N3  <0> d          -2.493   4.163   0.037  0.00  0.00    -0.365 N 
ATOM     14  H3  <0> d          -3.312   3.644   0.038  0.00  0.00     0.159 HD
ATOM     15  H4  <0> d          -2.532   5.132   0.043  0.00  0.00     0.159 HD
ENDBRANCH   2  11
TORSDOF 1
