REMARK  4 active torsions:
REMARK  status: ('A' for Active; 'I' for Inactive)
REMARK    1  A    between atoms: C1_1  and  C2_2 
REMARK    2  A    between atoms: C3_3  and  C7_10 
REMARK    3  A    between atoms: C4_5  and  N3_9 
REMARK    4  A    between atoms: C5_7  and  C6_8 
ROOT
ATOM      1  C2  <0> d          -0.718   1.572   1.248  0.00  0.00    -0.012 A 
ATOM      2  C3  <0> d          -2.086   1.795   1.243  0.00  0.00     0.057 A 
ATOM      3  N1  <0> d          -2.675   2.216   2.350  0.00  0.00    -0.068 NA
ATOM      4  C4  <0> d          -1.971   2.435   3.450  0.00  0.00     0.720 A 
ATOM      5  N2  <0> d          -0.662   2.237   3.487  0.00  0.00    -0.068 NA
ATOM      6  C5  <0> d          -0.012   1.811   2.416  0.00  0.00     0.057 A 
ENDROOT
BRANCH   1   7
ATOM      7  C1  <0> d          -0.013   1.086   0.008  0.00  0.00    -0.047 C 
ATOM      8  H1  <0> d           0.002  -0.004   0.002  0.00  0.00     0.033 H 
ATOM      9  H2  <0> d           1.010   1.463   0.000  0.00  0.00     0.033 H 
ATOM     10  H3  <0> d          -0.540   1.447  -0.875  0.00  0.00     0.033 H 
ENDBRANCH   1   7
BRANCH   6  11
ATOM     11  C6  <0> d           1.478   1.589   2.466  0.00  0.00    -0.034 C 
ATOM     12  H4  <0> d           1.992   2.508   2.186  0.00  0.00     0.035 H 
ATOM     13  H5  <0> d           1.769   1.304   3.477  0.00  0.00     0.035 H 
ATOM     14  H6  <0> d           1.750   0.794   1.772  0.00  0.00     0.035 H 
ENDBRANCH   6  11
BRANCH   2  15
ATOM     15  C7  <0> d          -2.893   1.554  -0.007  0.00  0.00    -0.034 C 
ATOM     16  H9  <0> d          -3.248   0.523  -0.018  0.00  0.00     0.035 H 
ATOM     17  H10 <0> d          -3.747   2.232  -0.024  0.00  0.00     0.035 H 
ATOM     18  H11 <0> d          -2.269   1.733  -0.882  0.00  0.00     0.035 H 
ENDBRANCH   2  15
BRANCH   4  19
ATOM     19  N3  <0> d          -2.619   2.881   4.589  0.00  0.00    -0.231 N 
ATOM     20  H7  <0> d          -2.115   3.045   5.402  0.00  0.00     0.174 HD
ATOM     21  H8  <0> d          -3.578   3.030   4.575  0.00  0.00     0.174 HD
ENDBRANCH   4  19
TORSDOF 4
