REMARK  4 active torsions:
REMARK  status: ('A' for Active; 'I' for Inactive)
REMARK    1  A    between atoms: C3_4  and  C6_12 
REMARK    2  A    between atoms: C4_6  and  O3_11 
REMARK    3  A    between atoms: C5_8  and  O2_10 
REMARK    4  A    between atoms: C6_12  and  O4_13 
ROOT
ATOM      1  C1  <0> d          -2.130   1.424   3.639  0.00  0.00    -0.052 C 
ATOM      2  C2  <0> d          -2.703   1.105   2.509  0.00  0.00     0.012 C 
ATOM      3  O1  <0> d          -2.032   0.994   1.341  0.00  0.00    -0.353 OA
ATOM      4  C3  <0> d          -0.729   1.579   1.267  0.00  0.00     0.091 C 
ATOM      5  H1  <0> d          -0.815   2.666   1.239  0.00  0.00     0.091 H 
ATOM      6  C4  <0> d           0.061   1.154   2.512  0.00  0.00     0.091 C 
ATOM      7  H2  <0> d           1.073   1.558   2.462  0.00  0.00     0.091 H 
ATOM      8  C5  <0> d          -0.657   1.709   3.747  0.00  0.00     0.081 C 
ATOM      9  H3  <0> d          -0.259   1.234   4.643  0.00  0.00     0.093 H 
ATOM     10  H4  <0> d          -2.738   1.485   4.530  0.00  0.00     0.083 H 
ATOM     11  H5  <0> d          -3.767   0.921   2.508  0.00  0.00     0.122 H 
ENDROOT
BRANCH   4  12
ATOM     12  C6  <0> d          -0.013   1.086   0.008  0.00  0.00     0.044 C 
ATOM     13  H8  <0> d           0.002  -0.004   0.002  0.00  0.00     0.078 H 
ATOM     14  H9  <0> d           1.010   1.463   0.000  0.00  0.00     0.078 H 
BRANCH  12  15
ATOM     15  O4  <0> d          -0.704   1.559  -1.150  0.00  0.00    -0.398 OA
ATOM     16  H10 <0> d          -0.304   1.284  -1.986  0.00  0.00     0.209 HD
ENDBRANCH  12  15
ENDBRANCH   4  12
BRANCH   6  17
ATOM     17  O3  <0> d           0.114  -0.272   2.586  0.00  0.00    -0.390 OA
ATOM     18  H7  <0> d           0.600  -0.609   3.352  0.00  0.00     0.210 HD
ENDBRANCH   6  17
BRANCH   8  19
ATOM     19  O2  <0> d          -0.450   3.121   3.824  0.00  0.00    -0.389 OA
ATOM     20  H6  <0> d          -0.877   3.541   4.583  0.00  0.00     0.210 HD
ENDBRANCH   8  19
TORSDOF 4
