REMARK  2 active torsions:
REMARK  status: ('A' for Active; 'I' for Inactive)
REMARK    1  A    between atoms: C3_4  and  C4_6 
REMARK    2  A    between atoms: C4_6  and  O3_7 
ROOT
ATOM      1  C1  <0> d           1.498  -0.386   0.030  0.00  0.00     0.042 C 
ATOM      2  C2  <0> d           0.002  -0.004   0.002  0.00  0.00     0.042 C 
ATOM      3  O1  <0> d          -0.017   1.435   0.010  0.00  0.00    -0.357 OA
ATOM      4  C3  <0> d           1.351   1.876  -0.001  0.00  0.00     0.151 C 
ATOM      5  O2  <0> d           2.125   0.801   0.574  0.00  0.00    -0.357 OA
ATOM      6  H1  <0> d           1.666  -1.243   0.682  0.00  0.00     0.077 H 
ATOM      7  H2  <0> d           1.864  -0.588  -0.977  0.00  0.00     0.077 H 
ATOM      8  H3  <0> d          -0.505  -0.394   0.884  0.00  0.00     0.077 H 
ATOM      9  H4  <0> d          -0.470  -0.384  -0.904  0.00  0.00     0.077 H 
ATOM     10  H5  <0> d           1.675   2.066  -1.024  0.00  0.00     0.132 H 
ENDROOT
BRANCH   4  11
ATOM     11  C4  <0> d           1.502   3.143   0.844  0.00  0.00     0.062 C 
ATOM     12  H6  <0> d           2.542   3.468   0.829  0.00  0.00     0.081 H 
ATOM     13  H7  <0> d           0.869   3.930   0.434  0.00  0.00     0.081 H 
BRANCH  11  14
ATOM     14  O3  <0> d           1.108   2.868   2.190  0.00  0.00    -0.396 OA
ATOM     15  H8  <0> d           1.178   3.628   2.783  0.00  0.00     0.209 HD
ENDBRANCH  11  14
ENDBRANCH   4  11
TORSDOF 2
