REMARK  2 active torsions:
REMARK  status: ('A' for Active; 'I' for Inactive)
REMARK    1  A    between atoms: C1_1  and  N1_2 
REMARK    2  A    between atoms: C3_4  and  C5_7 
REMARK       I    between atoms: C5_7  and  N3_9 
ROOT
ATOM      1  N1  <0> d           0.002  -0.004   0.002  0.00  0.00    -0.285 N 
ATOM      2  C2  <0> d           0.008  -0.782  -1.092  0.00  0.00     0.015 A 
ATOM      3  C3  <0> d           0.027  -2.095  -0.665  0.00  0.00     0.068 A 
ATOM      4  C4  <0> d           0.034  -2.074   0.748  0.00  0.00     0.038 A 
ATOM      5  N2  <0> d           0.025  -0.828   1.133  0.00  0.00    -0.185 NA
ATOM      6  H4  <0> d          -0.002  -0.444  -2.117  0.00  0.00     0.115 H 
ATOM      7  H5  <0> d           0.048  -2.938   1.395  0.00  0.00     0.119 H 
ENDROOT
BRANCH   3   8
ATOM      8  C5  <0> d           0.040  -3.294  -1.522  0.00  0.00     0.252 C 
ATOM      9  O1  <0> d           0.033  -3.176  -2.732  0.00  0.00    -0.268 OA
ATOM     10  N3  <0> d           0.059  -4.521  -0.965  0.00  0.00    -0.366 N 
ATOM     11  H6  <0> d           0.065  -4.615   0.001  0.00  0.00     0.159 HD
ATOM     12  H7  <0> d           0.067  -5.310  -1.529  0.00  0.00     0.159 HD
ENDBRANCH   3   8
BRANCH   1  13
ATOM     13  C1  <0> d          -0.018   1.461   0.010  0.00  0.00     0.002 C 
ATOM     14  H1  <0> d           1.005   1.838   0.002  0.00  0.00     0.059 H 
ATOM     15  H2  <0> d          -0.545   1.822  -0.873  0.00  0.00     0.059 H 
ATOM     16  H3  <0> d          -0.528   1.812   0.907  0.00  0.00     0.059 H 
ENDBRANCH   1  13
TORSDOF 2
