REMARK  8 active torsions:
REMARK  status: ('A' for Active; 'I' for Inactive)
REMARK    1  A    between atoms: C1_1  and  C2_2 
REMARK    2  A    between atoms: C2_2  and  C10_11 
REMARK    3  A    between atoms: C3_3  and  C4_4 
REMARK    4  A    between atoms: C4_4  and  C5_5 
REMARK    5  A    between atoms: C5_5  and  C6_6 
REMARK    6  A    between atoms: C6_6  and  C9_10 
REMARK    7  A    between atoms: C7_7  and  C8_8 
REMARK    8  A    between atoms: C8_8  and  O1_9 
ROOT
ATOM      1  C5  <0> d          -0.683  -0.425   3.336  0.00  0.00    -0.042 C 
ATOM      2  H7  <0> d          -1.597  -0.237   2.773  0.00  0.00     0.040 H 
ATOM      3  H8  <0> d          -0.553  -1.499   3.471  0.00  0.00     0.040 H 
ENDROOT
BRANCH   1   4
ATOM      4  C4  <0> d           0.514   0.140   2.567  0.00  0.00    -0.046 C 
ATOM      5  H5  <0> d           1.428  -0.048   3.130  0.00  0.00     0.039 H 
ATOM      6  H6  <0> d           0.384   1.214   2.432  0.00  0.00     0.039 H 
BRANCH   4   7
ATOM      7  C3  <0> d           0.607  -0.529   1.220  0.00  0.00    -0.101 C 
ATOM      8  C2  <0> d           0.625   0.196   0.129  0.00  0.00    -0.091 C 
ATOM      9  H4  <0> d           0.659  -1.605   1.154  0.00  0.00     0.077 H 
BRANCH   8  10
ATOM     10  C1  <0> d           0.674   1.699   0.224  0.00  0.00    -0.055 C 
ATOM     11  H1  <0> d           1.529   1.997   0.831  0.00  0.00     0.033 H 
ATOM     12  H2  <0> d           0.773   2.123  -0.776  0.00  0.00     0.033 H 
ATOM     13  H3  <0> d          -0.243   2.065   0.684  0.00  0.00     0.033 H 
ENDBRANCH   8  10
BRANCH   8  14
ATOM     14  C10 <0> d           0.595  -0.473  -1.221  0.00  0.00    -0.055 C 
ATOM     15  H16 <0> d           0.615   0.285  -2.003  0.00  0.00     0.033 H 
ATOM     16  H17 <0> d           1.463  -1.124  -1.323  0.00  0.00     0.033 H 
ATOM     17  H18 <0> d          -0.316  -1.066  -1.313  0.00  0.00     0.033 H 
ENDBRANCH   8  14
ENDBRANCH   4   7
ENDBRANCH   1   4
BRANCH   1  18
ATOM     18  C6  <0> d          -0.776   0.244   4.683  0.00  0.00    -0.085 C 
ATOM     19  C7  <0> d          -0.209  -0.307   5.728  0.00  0.00    -0.079 C 
ATOM     20  H9  <0> d          -0.356   0.120   6.709  0.00  0.00     0.080 H 
BRANCH  19  21
ATOM     21  C8  <0> d           0.646  -1.537   5.561  0.00  0.00     0.032 C 
ATOM     22  H10 <0> d           0.108  -2.407   5.937  0.00  0.00     0.080 H 
ATOM     23  H11 <0> d           0.875  -1.679   4.505  0.00  0.00     0.080 H 
BRANCH  21  24
ATOM     24  O1  <0> d           1.861  -1.375   6.295  0.00  0.00    -0.397 OA
ATOM     25  H12 <0> d           2.462  -2.130   6.233  0.00  0.00     0.209 HD
ENDBRANCH  21  24
ENDBRANCH  19  21
BRANCH  18  26
ATOM     26  C9  <0> d          -1.520   1.546   4.828  0.00  0.00    -0.055 C 
ATOM     27  H13 <0> d          -2.565   1.343   5.060  0.00  0.00     0.033 H 
ATOM     28  H14 <0> d          -1.076   2.130   5.634  0.00  0.00     0.033 H 
ATOM     29  H15 <0> d          -1.456   2.107   3.895  0.00  0.00     0.033 H 
ENDBRANCH  18  26
ENDBRANCH   1  18
TORSDOF 8
