REMARK  0 active torsions:
REMARK  status: ('A' for Active; 'I' for Inactive)
ROOT
ATOM      1  C1  <0> d          -0.016   1.302   0.009  0.00  0.00     0.068 A 
ATOM      2  C2  <0> d           1.204   2.016   0.001  0.00  0.00     0.263 A 
ATOM      3  O1  <0> d           1.211   3.236   0.012  0.00  0.00    -0.267 OA
ATOM      4  N1  <0> d           2.360   1.323  -0.018  0.00  0.00    -0.324 N 
ATOM      5  H1  <0> d           3.234   1.808  -0.022  0.00  0.00     0.169 HD
ATOM      6  C3  <0> d           2.334  -0.043  -0.033  0.00  0.00     0.037 A 
ATOM      7  C4  <0> d           1.150  -0.693  -0.015  0.00  0.00     0.057 A 
ATOM      8  N2  <0> d           0.002  -0.004   0.002  0.00  0.00    -0.258 NA
ATOM      9  C5  <0> d           1.048  -2.197  -0.002  0.00  0.00    -0.023 C 
ATOM     10  C6  <0> d           2.357  -2.832  -0.463  0.00  0.00    -0.060 C 
ATOM     11  C7  <0> d           3.503  -2.215   0.348  0.00  0.00    -0.060 C 
ATOM     12  C8  <0> d           3.660  -0.757  -0.079  0.00  0.00    -0.025 C 
ATOM     13  H2  <0> d          -0.956   1.832   0.017  0.00  0.00     0.123 H 
ATOM     14  H3  <0> d           0.823  -2.533   1.010  0.00  0.00     0.042 H 
ATOM     15  H4  <0> d           0.244  -2.508  -0.669  0.00  0.00     0.042 H 
ATOM     16  H5  <0> d           2.509  -2.632  -1.524  0.00  0.00     0.033 H 
ATOM     17  H6  <0> d           2.325  -3.908  -0.293  0.00  0.00     0.033 H 
ATOM     18  H7  <0> d           4.428  -2.757   0.150  0.00  0.00     0.033 H 
ATOM     19  H8  <0> d           3.269  -2.263   1.411  0.00  0.00     0.033 H 
ATOM     20  H9  <0> d           4.052  -0.721  -1.096  0.00  0.00     0.042 H 
ATOM     21  H10 <0> d           4.359  -0.260   0.593  0.00  0.00     0.042 H 
ENDROOT
TORSDOF 0
