REMARK  0 active torsions:
REMARK  status: ('A' for Active; 'I' for Inactive)
ROOT
ATOM      1  C1  <0> d          -0.017   1.380   0.010  0.00  0.00    -0.002 A 
ATOM      2  C2  <0> d           1.172   2.088   0.002  0.00  0.00     0.158 A 
ATOM      3  C3  <0> d           2.382   1.411  -0.013  0.00  0.00     0.158 A 
ATOM      4  C4  <0> d           2.401   0.027  -0.020  0.00  0.00    -0.002 A 
ATOM      5  C5  <0> d           1.212  -0.681  -0.012  0.00  0.00     0.158 A 
ATOM      6  C6  <0> d           0.002  -0.004   0.002  0.00  0.00     0.158 A 
ATOM      7  F1  <0> d          -1.159  -0.695   0.010  0.00  0.00    -0.203 F 
ATOM      8  F2  <0> d           1.230  -2.032  -0.019  0.00  0.00    -0.203 F 
ATOM      9  F3  <0> d           3.543   2.103  -0.021  0.00  0.00    -0.203 F 
ATOM     10  F4  <0> d           1.154   3.439   0.009  0.00  0.00    -0.203 F 
ATOM     11  H1  <0> d          -0.959   1.907   0.026  0.00  0.00     0.093 H 
ATOM     12  H2  <0> d           3.343  -0.500  -0.033  0.00  0.00     0.093 H 
ENDROOT
TORSDOF 0
