REMARK  3 active torsions:
REMARK  status: ('A' for Active; 'I' for Inactive)
REMARK    1  A    between atoms: C1_1  and  C2_2 
REMARK    2  A    between atoms: C5_5  and  N2_11 
REMARK    3  A    between atoms: C7_7  and  C8_8 
REMARK       I    between atoms: C8_8  and  N1_10 
ROOT
ATOM      1  C2  <0> d          -0.230  -0.027   0.036  0.00  0.00    -0.046 A 
ATOM      2  C3  <0> d          -0.330  -0.711  -1.159  0.00  0.00    -0.074 A 
ATOM      3  C4  <0> d          -0.082  -2.070  -1.206  0.00  0.00    -0.057 A 
ATOM      4  C5  <0> d           0.270  -2.757  -0.050  0.00  0.00     0.026 A 
ATOM      5  C6  <0> d           0.373  -2.079   1.155  0.00  0.00    -0.042 A 
ATOM      6  C7  <0> d           0.128  -0.707   1.201  0.00  0.00     0.039 A 
ATOM      7  H4  <0> d          -0.603  -0.183  -2.060  0.00  0.00     0.084 H 
ATOM      8  H5  <0> d          -0.163  -2.600  -2.143  0.00  0.00     0.086 H 
ATOM      9  H6  <0> d           0.646  -2.611   2.055  0.00  0.00     0.088 H 
ENDROOT
BRANCH   6  10
ATOM     10  C8  <0> d           0.243   0.025   2.481  0.00  0.00     0.249 C 
ATOM     11  O1  <0> d           0.140   1.236   2.500  0.00  0.00    -0.268 OA
ATOM     12  N1  <0> d           0.461  -0.651   3.627  0.00  0.00    -0.366 N 
ATOM     13  H7  <0> d           0.542  -1.618   3.611  0.00  0.00     0.159 HD
ATOM     14  H8  <0> d           0.536  -0.172   4.466  0.00  0.00     0.159 HD
ENDBRANCH   6  10
BRANCH   1  15
ATOM     15  C1  <0> d          -0.501   1.454   0.081  0.00  0.00    -0.050 C 
ATOM     16  H1  <0> d           0.441   1.998   0.018  0.00  0.00     0.033 H 
ATOM     17  H2  <0> d          -1.138   1.733  -0.759  0.00  0.00     0.033 H 
ATOM     18  H3  <0> d          -1.003   1.704   1.016  0.00  0.00     0.033 H 
ENDBRANCH   1  15
BRANCH   4  19
ATOM     19  N2  <0> d           0.519  -4.131  -0.102  0.00  0.00    -0.399 N 
ATOM     20  H9  <0> d           0.446  -4.605  -0.945  0.00  0.00     0.156 HD
ATOM     21  H10 <0> d           0.764  -4.611   0.705  0.00  0.00     0.156 HD
ENDBRANCH   4  19
TORSDOF 3
