REMARK  0 active torsions:
REMARK  status: ('A' for Active; 'I' for Inactive)
ROOT
ATOM      1  C1  <0> d           1.176   1.779   0.000  0.00  0.00    -0.045 A 
ATOM      2  C2  <0> d          -0.013   1.076   0.008  0.00  0.00    -0.072 A 
ATOM      3  C3  <0> d          -1.223   1.748   0.017  0.00  0.00    -0.032 A 
ATOM      4  C4  <0> d          -1.236   3.135   0.033  0.00  0.00     0.037 A 
ATOM      5  C5  <0> d          -0.040   3.842   0.025  0.00  0.00    -0.020 A 
ATOM      6  C6  <0> d           1.165   3.164   0.008  0.00  0.00     0.118 A 
ATOM      7  F1  <0> d           2.328   3.851  -0.002  0.00  0.00    -0.206 F 
ATOM      8  N1  <0> d          -2.445   3.840   0.055  0.00  0.00    -0.389 N 
ATOM      9  C7  <0> d          -3.693   3.121  -0.234  0.00  0.00    -0.007 C 
ATOM     10  C8  <0> d          -3.662   1.797   0.540  0.00  0.00    -0.047 C 
ATOM     11  C9  <0> d          -2.500   0.949   0.022  0.00  0.00    -0.037 C 
ATOM     12  H1  <0> d           2.116   1.248  -0.012  0.00  0.00     0.088 H 
ATOM     13  H2  <0> d           0.002  -0.004   0.002  0.00  0.00     0.084 H 
ATOM     14  H3  <0> d          -0.052   4.922   0.032  0.00  0.00     0.091 H 
ATOM     15  H4  <0> d          -2.458   4.788   0.259  0.00  0.00     0.159 HD
ATOM     16  H5  <0> d          -4.546   3.718   0.089  0.00  0.00     0.064 H 
ATOM     17  H6  <0> d          -3.764   2.922  -1.303  0.00  0.00     0.064 H 
ATOM     18  H7  <0> d          -3.522   1.998   1.602  0.00  0.00     0.035 H 
ATOM     19  H8  <0> d          -4.599   1.263   0.388  0.00  0.00     0.035 H 
ATOM     20  H9  <0> d          -2.378   0.075   0.662  0.00  0.00     0.040 H 
ATOM     21  H10 <0> d          -2.717   0.624  -0.996  0.00  0.00     0.040 H 
ENDROOT
TORSDOF 0
