REMARK  1 active torsions:
REMARK  status: ('A' for Active; 'I' for Inactive)
REMARK    1  A    between atoms: C4_4  and  C6_6 
ROOT
ATOM      1  C1  <0> d          -1.221   1.405   2.310  0.00  0.00    -0.119 C 
ATOM      2  C2  <0> d          -0.928   1.676   1.062  0.00  0.00    -0.087 C 
ATOM      3  C3  <0> d          -0.013   1.086   0.008  0.00  0.00    -0.032 C 
ATOM      4  C4  <0> d          -0.962   1.696  -1.037  0.00  0.00     0.037 C 
ATOM      5  C5  <0> d          -1.358   2.717   0.044  0.00  0.00    -0.032 C 
ATOM      6  H1  <0> d          -0.747   0.571   2.807  0.00  0.00     0.067 H 
ATOM      7  H2  <0> d          -1.937   2.014   2.841  0.00  0.00     0.067 H 
ATOM      8  H3  <0> d           0.002  -0.004   0.002  0.00  0.00     0.041 H 
ATOM      9  H4  <0> d           0.986   1.523   0.001  0.00  0.00     0.041 H 
ATOM     10  H5  <0> d          -1.775   1.032  -1.330  0.00  0.00     0.057 H 
ATOM     11  H6  <0> d          -0.737   3.613   0.048  0.00  0.00     0.041 H 
ATOM     12  H7  <0> d          -2.425   2.939   0.066  0.00  0.00     0.041 H 
ENDROOT
BRANCH   4  13
ATOM     13  C6  <0> d          -0.250   2.309  -2.216  0.00  0.00     0.177 C 
ATOM     14  O1  <0> d           0.957   2.288  -2.270  0.00  0.00    -0.648 OA
ATOM     15  O2  <0> d          -0.957   2.879  -3.205  0.00  0.00    -0.648 OA
ENDBRANCH   4  13
TORSDOF 1
