REMARK  2 active torsions:
REMARK  status: ('A' for Active; 'I' for Inactive)
REMARK    1  A    between atoms: C1_1  and  C2_2 
REMARK    2  A    between atoms: C4_4  and  C7_9 
REMARK       I    between atoms: C7_9  and  N1_11 
ROOT
ATOM      1  C2  <0> d          -4.852   0.825   0.029  0.00  0.00    -0.053 A 
ATOM      2  C3  <0> d          -3.639   1.540   0.028  0.00  0.00    -0.039 A 
ATOM      3  C4  <0> d          -2.457   0.868   0.018  0.00  0.00     0.147 A 
ATOM      4  O1  <0> d          -2.429  -0.479   0.005  0.00  0.00    -0.270 OA
ATOM      5  C5  <0> d          -3.566  -1.194   0.013  0.00  0.00     0.288 A 
ATOM      6  O2  <0> d          -3.518  -2.411   0.006  0.00  0.00    -0.260 OA
ATOM      7  C6  <0> d          -4.817  -0.535   0.022  0.00  0.00    -0.004 A 
ATOM      8  H4  <0> d          -3.647   2.620   0.033  0.00  0.00     0.088 H 
ATOM      9  H5  <0> d          -5.735  -1.105   0.023  0.00  0.00     0.093 H 
ENDROOT
BRANCH   3  10
ATOM     10  C7  <0> d          -1.187   1.624   0.017  0.00  0.00     0.273 C 
ATOM     11  O3  <0> d          -1.204   2.839   0.023  0.00  0.00    -0.266 OA
ATOM     12  N1  <0> d          -0.011   0.966   0.007  0.00  0.00    -0.364 N 
ATOM     13  H6  <0> d           0.002  -0.004   0.002  0.00  0.00     0.159 HD
ATOM     14  H7  <0> d           0.822   1.462   0.002  0.00  0.00     0.159 HD
ENDBRANCH   3  10
BRANCH   1  15
ATOM     15  C1  <0> d          -6.170   1.556   0.040  0.00  0.00    -0.051 C 
ATOM     16  H1  <0> d          -6.492   1.738  -0.985  0.00  0.00     0.033 H 
ATOM     17  H2  <0> d          -6.917   0.951   0.554  0.00  0.00     0.033 H 
ATOM     18  H3  <0> d          -6.053   2.508   0.559  0.00  0.00     0.033 H 
ENDBRANCH   1  15
TORSDOF 2
