REMARK  5 active torsions:
REMARK  status: ('A' for Active; 'I' for Inactive)
REMARK    1  A    between atoms: C1_1  and  C2_2 
REMARK    2  A    between atoms: C2_2  and  C3_3 
REMARK    3  A    between atoms: C3_3  and  C4_4 
REMARK    4  A    between atoms: C4_4  and  C5_5 
REMARK    5  A    between atoms: C6_6  and  C7_7 
ROOT
ATOM      1  C3  <0> d           0.718  -0.497  -1.257  0.00  0.00    -0.056 C 
ATOM      2  H6  <0> d           0.191  -0.136  -2.140  0.00  0.00     0.034 H 
ATOM      3  H7  <0> d           1.741  -0.120  -1.264  0.00  0.00     0.034 H 
ENDROOT
BRANCH   1   4
ATOM      4  C2  <0> d           0.002  -0.004   0.002  0.00  0.00    -0.068 C 
ATOM      5  H4  <0> d           0.529  -0.365   0.885  0.00  0.00     0.032 H 
ATOM      6  H5  <0> d          -1.020  -0.381   0.010  0.00  0.00     0.032 H 
BRANCH   4   7
ATOM      7  C1  <0> d          -0.019   1.526   0.010  0.00  0.00    -0.076 C 
ATOM      8  H1  <0> d           1.004   1.903   0.003  0.00  0.00     0.027 H 
ATOM      9  H2  <0> d          -0.546   1.887  -0.873  0.00  0.00     0.027 H 
ATOM     10  H3  <0> d          -0.529   1.877   0.907  0.00  0.00     0.027 H 
ENDBRANCH   4   7
ENDBRANCH   1   4
BRANCH   1  11
ATOM     11  C4  <0> d           0.739  -2.027  -1.265  0.00  0.00    -0.009 C 
ATOM     12  H8  <0> d           1.266  -2.388  -0.382  0.00  0.00     0.051 H 
ATOM     13  H9  <0> d          -0.284  -2.405  -1.258  0.00  0.00     0.051 H 
BRANCH  11  14
ATOM     14  C5  <0> d           1.428  -2.502  -2.476  0.00  0.00    -0.107 C 
ATOM     15  C6  <0> d           1.978  -2.881  -3.442  0.00  0.00    -0.111 C 
BRANCH  15  16
ATOM     16  C7  <0> d           2.667  -3.355  -4.653  0.00  0.00    -0.021 C 
ATOM     17  H10 <0> d           2.681  -4.445  -4.659  0.00  0.00     0.044 H 
ATOM     18  H11 <0> d           2.139  -2.994  -5.536  0.00  0.00     0.044 H 
ATOM     19  H12 <0> d           3.689  -2.978  -4.661  0.00  0.00     0.044 H 
ENDBRANCH  15  16
ENDBRANCH  11  14
ENDBRANCH   1  11
TORSDOF 5
