REMARK  2 active torsions:
REMARK  status: ('A' for Active; 'I' for Inactive)
REMARK    1  A    between atoms: C1_1  and  S1_2 
REMARK    2  A    between atoms: S1_2  and  N1_5 
ROOT
ATOM      1  N1  <0> d           2.098   0.853  -0.871  0.00  0.00    -0.311 N 
ATOM      2  C2  <0> d           1.494   1.879  -0.002  0.00  0.00     0.005 C 
ATOM      3  C3  <0> d          -0.019   1.547   0.011  0.00  0.00    -0.048 C 
ATOM      4  C4  <0> d           0.002  -0.004   0.002  0.00  0.00    -0.048 C 
ATOM      5  C5  <0> d           1.223  -0.328  -0.885  0.00  0.00     0.005 C 
ATOM      6  H4  <0> d           1.661   2.873  -0.416  0.00  0.00     0.065 H 
ATOM      7  H5  <0> d           1.905   1.813   1.005  0.00  0.00     0.065 H 
ATOM      8  H6  <0> d          -0.512   1.936  -0.881  0.00  0.00     0.035 H 
ATOM      9  H7  <0> d          -0.494   1.927   0.915  0.00  0.00     0.035 H 
ATOM     10  H8  <0> d           0.144  -0.393   1.010  0.00  0.00     0.035 H 
ATOM     11  H9  <0> d          -0.912  -0.400  -0.441  0.00  0.00     0.035 H 
ATOM     12  H10 <0> d           1.756  -1.189  -0.482  0.00  0.00     0.065 H 
ATOM     13  H11 <0> d           0.896  -0.538  -1.903  0.00  0.00     0.065 H 
ENDROOT
BRANCH   1  14
ATOM     14  S1  <0> d           3.526   1.006  -1.697  0.00  0.00     0.224 S 
ATOM     15  O1  <0> d           4.277   1.952  -0.949  0.00  0.00    -0.206 OA
ATOM     16  O2  <0> d           3.994  -0.326  -1.860  0.00  0.00    -0.206 OA
BRANCH  14  17
ATOM     17  C1  <0> d           3.062   1.706  -3.304  0.00  0.00     0.032 C 
ATOM     18  H1  <0> d           2.578   2.671  -3.154  0.00  0.00     0.051 H 
ATOM     19  H2  <0> d           3.956   1.839  -3.914  0.00  0.00     0.051 H 
ATOM     20  H3  <0> d           2.374   1.029  -3.811  0.00  0.00     0.051 H 
ENDBRANCH  14  17
ENDBRANCH   1  14
TORSDOF 2
