REMARK  2 active torsions:
REMARK  status: ('A' for Active; 'I' for Inactive)
REMARK    1  A    between atoms: C7_9  and  C8_10 
REMARK    2  A    between atoms: C8_10  and  O1_11 
ROOT
ATOM      1  C1  <0> d           3.012   3.758   0.080  0.00  0.00    -0.058 C 
ATOM      2  C2  <0> d           3.414   2.691   1.128  0.00  0.00    -0.058 C 
ATOM      3  C3  <0> d           2.075   1.945   1.428  0.00  0.00    -0.032 C 
ATOM      4  H1  <0> d           2.172   0.994   1.972  0.00  0.00     0.046 H 
ATOM      5  C4  <0> d           1.206   3.002   2.121  0.00  0.00    -0.102 C 
ATOM      6  C5  <0> d           0.864   3.910   1.229  0.00  0.00    -0.102 C 
ATOM      7  C6  <0> d           1.481   3.521  -0.120  0.00  0.00    -0.032 C 
ATOM      8  H2  <0> d           1.034   4.015  -0.995  0.00  0.00     0.046 H 
ATOM      9  C7  <0> d           1.418   1.954  -0.001  0.00  0.00    -0.021 C 
ATOM     10  H3  <0> d           3.533   3.618  -0.878  0.00  0.00     0.034 H 
ATOM     11  H4  <0> d           3.181   4.782   0.443  0.00  0.00     0.034 H 
ATOM     12  H5  <0> d           4.175   2.023   0.698  0.00  0.00     0.034 H 
ATOM     13  H6  <0> d           3.823   3.188   2.020  0.00  0.00     0.034 H 
ATOM     14  H7  <0> d           0.863   3.097   3.162  0.00  0.00     0.077 H 
ATOM     15  H8  <0> d           0.235   4.763   1.526  0.00  0.00     0.077 H 
ATOM     16  H9  <0> d           1.851   1.333  -0.799  0.00  0.00     0.045 H 
ENDROOT
BRANCH   9  17
ATOM     17  C8  <0> d          -0.017   1.425   0.010  0.00  0.00     0.021 C 
ATOM     18  H10 <0> d          -0.532   1.780   0.915  0.00  0.00     0.074 H 
ATOM     19  H11 <0> d          -0.549   1.789  -0.881  0.00  0.00     0.074 H 
BRANCH  17  20
ATOM     20  O1  <0> d           0.002  -0.004   0.002  0.00  0.00    -0.400 OA
ATOM     21  H12 <0> d          -0.943  -0.567   0.008  0.00  0.00     0.209 HD
ENDBRANCH  17  20
ENDBRANCH   9  17
TORSDOF 2
