REMARK  3 active torsions:
REMARK  status: ('A' for Active; 'I' for Inactive)
REMARK    1  A    between atoms: C1_1  and  C2_2 
REMARK    2  A    between atoms: C2_2  and  C3_4 
REMARK    3  A    between atoms: N2_7  and  C6_9 
ROOT
ATOM      1  C3  <0> d           1.092   1.911   0.002  0.00  0.00     0.045 A 
ATOM      2  C4  <0> d           0.607   3.241   0.014  0.00  0.00     0.036 A 
ATOM      3  N1  <0> d          -0.696   3.194   0.026  0.00  0.00    -0.185 NA
ATOM      4  N2  <0> d          -1.104   1.855   0.017  0.00  0.00    -0.285 N 
ATOM      5  C5  <0> d          -0.013   1.076   0.008  0.00  0.00     0.013 A 
ATOM      6  H4  <0> d           1.210   4.136   0.012  0.00  0.00     0.118 H 
ATOM      7  H5  <0> d           0.002  -0.004   0.002  0.00  0.00     0.115 H 
ENDROOT
BRANCH   1   8
ATOM      8  C2  <0> d           2.498   1.496  -0.014  0.00  0.00     0.158 C 
ATOM      9  O1  <0> d           2.783   0.317  -0.023  0.00  0.00    -0.293 OA
BRANCH   8  10
ATOM     10  C1  <0> d           3.590   2.535  -0.019  0.00  0.00    -0.017 C 
ATOM     11  H1  <0> d           3.515   3.102   0.802  0.00  0.00     0.038 H 
ATOM     12  H2  <0> d           4.562   2.041  -0.031  0.00  0.00     0.038 H 
ATOM     13  H3  <0> d           3.491   3.162  -0.904  0.00  0.00     0.038 H 
ENDBRANCH   8  10
ENDBRANCH   1   8
BRANCH   4  14
ATOM     14  C6  <0> d          -2.491   1.384   0.019  0.00  0.00     0.002 C 
ATOM     15  H6  <0> d          -2.831   1.262   1.048  0.00  0.00     0.059 H 
ATOM     16  H7  <0> d          -3.123   2.113  -0.488  0.00  0.00     0.059 H 
ATOM     17  H8  <0> d          -2.551   0.428  -0.500  0.00  0.00     0.059 H 
ENDBRANCH   4  14
TORSDOF 3
