REMARK  8 active torsions:
REMARK  status: ('A' for Active; 'I' for Inactive)
REMARK    1  A    between atoms: C1_1  and  C2_2 
REMARK    2  A    between atoms: C2_2  and  C3_3 
REMARK    3  A    between atoms: C3_3  and  C4_4 
REMARK    4  A    between atoms: C4_4  and  C5_5 
REMARK    5  A    between atoms: C5_5  and  C6_6 
REMARK    6  A    between atoms: C6_6  and  C7_7 
REMARK    7  A    between atoms: C7_7  and  C8_8 
REMARK    8  A    between atoms: C8_8  and  O1_9 
ROOT
ATOM      1  C4  <0> d          -1.413  -2.041   0.005  0.00  0.00     0.007 C 
ATOM      2  H8  <0> d          -0.876  -2.569  -0.770  0.00  0.00     0.060 H 
ENDROOT
BRANCH   1   3
ATOM      3  C3  <0> d          -1.433  -0.534   0.013  0.00  0.00    -0.052 C 
ATOM      4  H6  <0> d          -1.944  -0.182   0.910  0.00  0.00     0.034 H 
ATOM      5  H7  <0> d          -1.960  -0.173  -0.870  0.00  0.00     0.034 H 
BRANCH   3   6
ATOM      6  C2  <0> d           0.002  -0.004   0.002  0.00  0.00    -0.067 C 
ATOM      7  H4  <0> d           0.512  -0.356  -0.895  0.00  0.00     0.032 H 
ATOM      8  H5  <0> d           0.529  -0.365   0.885  0.00  0.00     0.032 H 
BRANCH   6   9
ATOM      9  C1  <0> d          -0.019   1.526   0.010  0.00  0.00    -0.076 C 
ATOM     10  H1  <0> d           1.004   1.903   0.003  0.00  0.00     0.027 H 
ATOM     11  H2  <0> d          -0.546   1.887  -0.873  0.00  0.00     0.027 H 
ATOM     12  H3  <0> d          -0.529   1.877   0.907  0.00  0.00     0.027 H 
ENDBRANCH   6   9
ENDBRANCH   3   6
ENDBRANCH   1   3
BRANCH   1  13
ATOM     13  C5  <0> d          -2.044  -2.708   0.934  0.00  0.00    -0.171 C 
BRANCH  13  14
ATOM     14  C6  <0> d          -2.676  -3.375   1.864  0.00  0.00     0.009 C 
ATOM     15  H9  <0> d          -3.708  -3.658   1.719  0.00  0.00     0.060 H 
BRANCH  14  16
ATOM     16  C7  <0> d          -1.964  -3.749   3.138  0.00  0.00    -0.032 C 
ATOM     17  H10 <0> d          -1.878  -4.834   3.202  0.00  0.00     0.038 H 
ATOM     18  H11 <0> d          -0.968  -3.306   3.142  0.00  0.00     0.038 H 
BRANCH  16  19
ATOM     19  C8  <0> d          -2.758  -3.229   4.338  0.00  0.00     0.018 C 
ATOM     20  H12 <0> d          -2.843  -2.144   4.274  0.00  0.00     0.074 H 
ATOM     21  H13 <0> d          -3.754  -3.672   4.335  0.00  0.00     0.074 H 
BRANCH  19  22
ATOM     22  O1  <0> d          -2.083  -3.584   5.546  0.00  0.00    -0.401 OA
ATOM     23  H14 <0> d          -2.531  -3.285   6.350  0.00  0.00     0.209 HD
ENDBRANCH  19  22
ENDBRANCH  16  19
ENDBRANCH  14  16
ENDBRANCH  13  14
ENDBRANCH   1  13
TORSDOF 8
