REMARK  3 active torsions:
REMARK  status: ('A' for Active; 'I' for Inactive)
REMARK    1  A    between atoms: C1_1  and  C2_2 
REMARK    2  A    between atoms: C2_2  and  C3_3 
REMARK    3  A    between atoms: C3_3  and  C4_4 
ROOT
ATOM      1  C4  <0> d           1.133  -0.683  -0.012  0.00  0.00     0.035 A 
ATOM      2  C5  <0> d           2.350  -0.029  -0.020  0.00  0.00    -0.038 A 
ATOM      3  C6  <0> d           2.372   1.359  -0.013  0.00  0.00     0.037 A 
ATOM      4  C7  <0> d           1.161   2.038   0.002  0.00  0.00    -0.045 A 
ATOM      5  C8  <0> d          -0.016   1.315   0.009  0.00  0.00     0.004 A 
ATOM      6  N1  <0> d           0.002  -0.004   0.002  0.00  0.00    -0.265 NA
ATOM      7 Cl1  <0> d           3.877   2.224  -0.021  0.00  0.00    -0.084 Cl
ATOM      8  H8  <0> d           3.272  -0.591  -0.032  0.00  0.00     0.089 H 
ATOM      9  H9  <0> d           1.140   3.118   0.007  0.00  0.00     0.088 H 
ATOM     10  H10 <0> d          -0.962   1.836   0.017  0.00  0.00     0.114 H 
ENDROOT
BRANCH   1  11
ATOM     11  C3  <0> d           1.097  -2.189  -0.020  0.00  0.00    -0.025 C 
ATOM     12  H6  <0> d           2.122  -2.581   0.059  0.00  0.00     0.042 H 
ATOM     13  H7  <0> d           0.641  -2.541  -0.958  0.00  0.00     0.042 H 
BRANCH  11  14
ATOM     14  C2  <0> d           0.269  -2.686   1.167  0.00  0.00    -0.063 C 
ATOM     15  H4  <0> d          -0.756  -2.294   1.088  0.00  0.00     0.033 H 
ATOM     16  H5  <0> d           0.724  -2.335   2.104  0.00  0.00     0.033 H 
BRANCH  14  17
ATOM     17  C1  <0> d           0.232  -4.215   1.159  0.00  0.00    -0.076 C 
ATOM     18  H1  <0> d          -0.363  -4.572   2.012  0.00  0.00     0.027 H 
ATOM     19  H2  <0> d           1.257  -4.607   1.237  0.00  0.00     0.027 H 
ATOM     20  H3  <0> d          -0.224  -4.566   0.221  0.00  0.00     0.027 H 
ENDBRANCH  14  17
ENDBRANCH  11  14
ENDBRANCH   1  11
TORSDOF 3
