REMARK  1 active torsions:
REMARK  status: ('A' for Active; 'I' for Inactive)
REMARK    1  A    between atoms: C2_2  and  C3_3 
ROOT
ATOM      1  C1  <0> d           4.580   2.750  -0.026  0.00  0.00    -0.148 C 
ATOM      2  C2  <0> d           3.571   2.149  -0.020  0.00  0.00    -0.071 C 
ATOM      3  H3  <0> d           5.482   3.287  -0.031  0.00  0.00     0.166 H 
ENDROOT
BRANCH   2   4
ATOM      4  C3  <0> d           2.341   1.417  -0.013  0.00  0.00     0.100 A 
ATOM      5  C6  <0> d           2.338  -0.054  -0.021  0.00  0.00     0.269 A 
ATOM      6  N2  <0> d           1.153  -0.699  -0.013  0.00  0.00    -0.274 N 
ATOM      7  O2  <0> d           3.384  -0.676  -0.035  0.00  0.00    -0.266 OA
ATOM      8  C5  <0> d           0.002  -0.004   0.002  0.00  0.00     0.327 A 
ATOM      9  H2  <0> d           1.131  -1.698  -0.018  0.00  0.00     0.173 HD
ATOM     10  N1  <0> d          -0.016   1.339   0.009  0.00  0.00    -0.317 N 
ATOM     11  O1  <0> d          -1.053  -0.609   0.009  0.00  0.00    -0.247 OA
ATOM     12  C4  <0> d           1.139   2.066   0.002  0.00  0.00     0.005 A 
ATOM     13  H1  <0> d          -0.895   1.816   0.020  0.00  0.00     0.170 HD
ATOM     14  H4  <0> d           1.103   3.145   0.008  0.00  0.00     0.114 H 
ENDBRANCH   2   4
TORSDOF 1
