REMARK  4 active torsions:
REMARK  status: ('A' for Active; 'I' for Inactive)
REMARK    1  A    between atoms: C1_1  and  C2_2 
REMARK    2  A    between atoms: C2_2  and  C3_3 
REMARK    3  A    between atoms: C5_5  and  N3_9 
REMARK    4  A    between atoms: N1_6  and  C6_8 
ROOT
ATOM      1  C3  <0> d           0.707  -0.490  -1.238  0.00  0.00     0.079 A 
ATOM      2  C4  <0> d           0.099  -0.762  -2.485  0.00  0.00     0.116 A 
ATOM      3  C5  <0> d           1.108  -1.185  -3.346  0.00  0.00     0.140 A 
ATOM      4  N1  <0> d           2.261  -1.166  -2.647  0.00  0.00    -0.257 N 
ATOM      5  N2  <0> d           1.985  -0.727  -1.347  0.00  0.00    -0.174 NA
ATOM      6  C7  <0> d          -1.291  -0.630  -2.802  0.00  0.00     0.105 C 
ATOM      7  N4  <0> d          -2.394  -0.524  -3.053  0.00  0.00    -0.191 NA
ENDROOT
BRANCH   1   8
ATOM      8  C2  <0> d           0.002  -0.004   0.002  0.00  0.00    -0.025 C 
ATOM      9  H4  <0> d           0.529  -0.365   0.885  0.00  0.00     0.042 H 
ATOM     10  H5  <0> d          -1.020  -0.381   0.010  0.00  0.00     0.042 H 
BRANCH   8  11
ATOM     11  C1  <0> d          -0.019   1.526   0.010  0.00  0.00    -0.071 C 
ATOM     12  H1  <0> d           1.004   1.903   0.003  0.00  0.00     0.028 H 
ATOM     13  H2  <0> d          -0.546   1.887  -0.873  0.00  0.00     0.028 H 
ATOM     14  H3  <0> d          -0.529   1.877   0.907  0.00  0.00     0.028 H 
ENDBRANCH   8  11
ENDBRANCH   1   8
BRANCH   3  15
ATOM     15  N3  <0> d           0.956  -1.556  -4.669  0.00  0.00    -0.383 N 
ATOM     16  H9  <0> d           0.078  -1.535  -5.081  0.00  0.00     0.157 HD
ATOM     17  H10 <0> d           1.728  -1.837  -5.185  0.00  0.00     0.157 HD
ENDBRANCH   3  15
BRANCH   4  18
ATOM     18  C6  <0> d           3.582  -1.536  -3.162  0.00  0.00     0.004 C 
ATOM     19  H6  <0> d           4.069  -0.656  -3.580  0.00  0.00     0.059 H 
ATOM     20  H7  <0> d           4.189  -1.937  -2.350  0.00  0.00     0.059 H 
ATOM     21  H8  <0> d           3.469  -2.293  -3.939  0.00  0.00     0.059 H 
ENDBRANCH   4  18
TORSDOF 4
