REMARK  9 active torsions:
REMARK  status: ('A' for Active; 'I' for Inactive)
REMARK    1  A    between atoms: C1_1  and  C2_2 
REMARK    2  A    between atoms: C2_2  and  O1_3 
REMARK    3  A    between atoms: O1_3  and  C3_4 
REMARK    4  A    between atoms: C3_4  and  C4_6 
REMARK    5  A    between atoms: C3_4  and  C5_7 
REMARK    6  A    between atoms: C5_7  and  C6_8 
REMARK    7  A    between atoms: C5_7  and  O2_10 
REMARK    8  A    between atoms: C6_8  and  C7_9 
REMARK    9  A    between atoms: O2_10  and  C8_11 
ROOT
ATOM      1  C3  <0> d           0.746  -1.888  -1.280  0.00  0.00     0.079 C 
ATOM      2  H1  <0> d           0.777  -2.326  -0.282  0.00  0.00     0.089 H 
ENDROOT
BRANCH   1   3
ATOM      3  O1  <0> d           0.671  -0.465  -1.174  0.00  0.00    -0.383 OA
BRANCH   3   4
ATOM      4  C2  <0> d           0.002  -0.004   0.002  0.00  0.00     0.017 C 
ATOM      5  H5  <0> d           0.529  -0.365   0.885  0.00  0.00     0.073 H 
ATOM      6  H6  <0> d          -1.020  -0.381   0.010  0.00  0.00     0.073 H 
BRANCH   4   7
ATOM      7  C1  <0> d          -0.019   1.526   0.010  0.00  0.00    -0.056 C 
ATOM      8  H2  <0> d           1.004   1.903   0.003  0.00  0.00     0.030 H 
ATOM      9  H3  <0> d          -0.546   1.887  -0.873  0.00  0.00     0.030 H 
ATOM     10  H4  <0> d          -0.529   1.877   0.907  0.00  0.00     0.030 H 
ENDBRANCH   4   7
ENDBRANCH   3   4
ENDBRANCH   1   3
BRANCH   1  11
ATOM     11  C4  <0> d          -0.483  -2.409  -2.027  0.00  0.00    -0.048 C 
ATOM     12  H7  <0> d          -0.515  -1.971  -3.025  0.00  0.00     0.031 H 
ATOM     13  H8  <0> d          -0.426  -3.494  -2.108  0.00  0.00     0.031 H 
ATOM     14  H9  <0> d          -1.385  -2.132  -1.481  0.00  0.00     0.031 H 
ENDBRANCH   1  11
BRANCH   1  15
ATOM     15  C5  <0> d           1.992  -2.271  -2.035  0.00  0.00     0.181 C 
BRANCH  15  16
ATOM     16  C6  <0> d           2.801  -1.343  -2.474  0.00  0.00    -0.138 C 
BRANCH  16  17
ATOM     17  C7  <0> d           3.610  -0.414  -2.913  0.00  0.00    -0.009 C 
ATOM     18  H10 <0> d           3.467   0.004  -3.899  0.00  0.00     0.051 H 
ATOM     19  H11 <0> d           4.421  -0.066  -2.291  0.00  0.00     0.051 H 
ENDBRANCH  16  17
ENDBRANCH  15  16
BRANCH  15  20
ATOM     20  O2  <0> d           2.274  -3.575  -2.259  0.00  0.00    -0.366 OA
BRANCH  20  21
ATOM     21  C8  <0> d           3.473  -3.865  -2.982  0.00  0.00     0.006 C 
ATOM     22  H12 <0> d           3.423  -3.402  -3.967  0.00  0.00     0.066 H 
ATOM     23  H13 <0> d           4.330  -3.469  -2.437  0.00  0.00     0.066 H 
ATOM     24  H14 <0> d           3.578  -4.944  -3.091  0.00  0.00     0.066 H 
ENDBRANCH  20  21
ENDBRANCH  15  20
ENDBRANCH   1  15
TORSDOF 9
