REMARK  0 active torsions:
REMARK  status: ('A' for Active; 'I' for Inactive)
ROOT
ATOM      1  C1  <0> d           2.370   1.438  -0.012  0.00  0.00    -0.082 A 
ATOM      2  C2  <0> d           2.391   0.045  -0.019  0.00  0.00    -0.082 A 
ATOM      3  C3  <0> d           1.235  -0.675  -0.013  0.00  0.00    -0.071 A 
ATOM      4  C4  <0> d           0.002  -0.004   0.002  0.00  0.00    -0.008 A 
ATOM      5  C5  <0> d          -1.222  -0.692   0.010  0.00  0.00     0.013 A 
ATOM      6  N1  <0> d          -2.350  -0.021   0.024  0.00  0.00    -0.272 NA
ATOM      7  C6  <0> d          -2.396   1.304   0.032  0.00  0.00     0.003 A 
ATOM      8  C7  <0> d          -1.266   2.063   0.031  0.00  0.00    -0.055 A 
ATOM      9  C8  <0> d          -0.017   1.415   0.010  0.00  0.00    -0.023 A 
ATOM     10  C9  <0> d           1.193   2.123   0.002  0.00  0.00    -0.072 A 
ATOM     11  H1  <0> d           3.303   1.984  -0.017  0.00  0.00     0.083 H 
ATOM     12  H2  <0> d           3.339  -0.473  -0.031  0.00  0.00     0.083 H 
ATOM     13  H3  <0> d           1.266  -1.755  -0.019  0.00  0.00     0.084 H 
ATOM     14  H4  <0> d          -1.235  -1.772   0.004  0.00  0.00     0.116 H 
ATOM     15  H5  <0> d          -3.358   1.795   0.044  0.00  0.00     0.114 H 
ATOM     16  H6  <0> d          -1.326   3.142   0.038  0.00  0.00     0.087 H 
ATOM     17  H7  <0> d           1.192   3.203   0.007  0.00  0.00     0.084 H 
ENDROOT
TORSDOF 0
