REMARK  5 active torsions:
REMARK  status: ('A' for Active; 'I' for Inactive)
REMARK    1  A    between atoms: C1_1  and  C2_2 
REMARK    2  A    between atoms: C2_2  and  C3_3 
REMARK    3  A    between atoms: C2_2  and  C4_4 
REMARK    4  A    between atoms: C4_4  and  N1_5 
REMARK       I    between atoms: N1_5  and  C5_6 
REMARK    5  A    between atoms: C5_6  and  C6_8 
ROOT
ATOM      1  C6  <0> d          -0.018   1.468   0.010  0.00  0.00     0.088 C 
ATOM      2  C7  <0> d           0.002  -0.004   0.002  0.00  0.00     0.068 C 
ATOM      3  N2  <0> d           0.018  -1.140  -0.004  0.00  0.00    -0.197 NA
ATOM      4  H11 <0> d           1.005   1.845   0.002  0.00  0.00     0.069 H 
ATOM      5  H12 <0> d          -0.545   1.829  -0.873  0.00  0.00     0.069 H 
ENDROOT
BRANCH   1   6
ATOM      6  C5  <0> d          -0.723   1.954   1.250  0.00  0.00     0.230 C 
ATOM      7  N1  <0> d          -0.862   3.276   1.472  0.00  0.00    -0.360 N 
ATOM      8  H10 <0> d          -0.508   3.915   0.833  0.00  0.00     0.162 HD
ATOM      9  O1  <0> d          -1.166   1.155   2.048  0.00  0.00    -0.273 OA
BRANCH   7  10
ATOM     10  C4  <0> d          -1.548   3.748   2.677  0.00  0.00    -0.002 C 
ATOM     11  H8  <0> d          -2.571   3.371   2.685  0.00  0.00     0.064 H 
ATOM     12  H9  <0> d          -1.021   3.387   3.560  0.00  0.00     0.064 H 
BRANCH  10  13
ATOM     13  C2  <0> d          -1.569   5.278   2.686  0.00  0.00    -0.046 C 
ATOM     14  H4  <0> d          -0.551   5.656   2.588  0.00  0.00     0.041 H 
BRANCH  13  15
ATOM     15  C1  <0> d          -2.414   5.783   1.514  0.00  0.00    -0.072 C 
ATOM     16  H1  <0> d          -1.984   5.431   0.577  0.00  0.00     0.028 H 
ATOM     17  H2  <0> d          -3.432   5.405   1.612  0.00  0.00     0.028 H 
ATOM     18  H3  <0> d          -2.429   6.873   1.520  0.00  0.00     0.028 H 
ENDBRANCH  13  15
BRANCH  13  19
ATOM     19  C3  <0> d          -2.173   5.773   4.001  0.00  0.00    -0.072 C 
ATOM     20  H5  <0> d          -1.570   5.413   4.835  0.00  0.00     0.028 H 
ATOM     21  H6  <0> d          -2.188   6.863   4.007  0.00  0.00     0.028 H 
ATOM     22  H7  <0> d          -3.191   5.395   4.099  0.00  0.00     0.028 H 
ENDBRANCH  13  19
ENDBRANCH  10  13
ENDBRANCH   7  10
ENDBRANCH   1   6
TORSDOF 5
