REMARK  5 active torsions:
REMARK  status: ('A' for Active; 'I' for Inactive)
REMARK    1  A    between atoms: C1_1  and  C2_2 
REMARK    2  A    between atoms: C2_2  and  C3_3 
REMARK    3  A    between atoms: C3_3  and  C4_5 
REMARK    4  A    between atoms: C3_3  and  O1_12 
REMARK    5  A    between atoms: C4_5  and  C5_6 
ROOT
ATOM      1  C4  <0> d          -2.514   0.980   0.019  0.00  0.00    -0.017 C 
ATOM      2  H7  <0> d          -3.284   1.561  -0.488  0.00  0.00     0.043 H 
ATOM      3  H8  <0> d          -2.373   0.032  -0.500  0.00  0.00     0.043 H 
ENDROOT
BRANCH   1   4
ATOM      4  C3  <0> d          -2.945   0.711   1.462  0.00  0.00     0.039 C 
ATOM      5  H1  <0> d          -3.000   1.653   2.007  0.00  0.00     0.083 H 
BRANCH   4   6
ATOM      6  C2  <0> d          -4.319   0.038   1.467  0.00  0.00    -0.044 C 
ATOM      7  H5  <0> d          -5.026   0.653   0.909  0.00  0.00     0.036 H 
ATOM      8  H6  <0> d          -4.245  -0.944   1.001  0.00  0.00     0.036 H 
BRANCH   6   9
ATOM      9  C1  <0> d          -4.806  -0.117   2.909  0.00  0.00    -0.074 C 
ATOM     10  H2  <0> d          -5.785  -0.596   2.913  0.00  0.00     0.027 H 
ATOM     11  H3  <0> d          -4.099  -0.732   3.467  0.00  0.00     0.027 H 
ATOM     12  H4  <0> d          -4.880   0.865   3.376  0.00  0.00     0.027 H 
ENDBRANCH   6   9
ENDBRANCH   4   6
BRANCH   4  13
ATOM     13  O1  <0> d          -1.992  -0.148   2.092  0.00  0.00    -0.395 OA
ATOM     14  H14 <0> d          -1.891  -1.007   1.660  0.00  0.00     0.210 HD
ENDBRANCH   4  13
ENDBRANCH   1   4
BRANCH   1  15
ATOM     15  C5  <0> d          -1.219   1.751   0.017  0.00  0.00    -0.056 A 
ATOM     16  C10 <0> d          -1.238   3.133   0.030  0.00  0.00    -0.077 A 
ATOM     17  C9  <0> d          -0.050   3.840   0.022  0.00  0.00    -0.082 A 
ATOM     18  H13 <0> d          -2.180   3.660   0.041  0.00  0.00     0.084 H 
ATOM     19  C8  <0> d           1.156   3.165   0.008  0.00  0.00    -0.083 A 
ATOM     20  H12 <0> d          -0.065   4.920   0.028  0.00  0.00     0.083 H 
ATOM     21  C7  <0> d           1.175   1.783   0.000  0.00  0.00    -0.082 A 
ATOM     22  H11 <0> d           2.084   3.718   0.001  0.00  0.00     0.083 H 
ATOM     23  C6  <0> d          -0.013   1.076   0.008  0.00  0.00    -0.077 A 
ATOM     24  H10 <0> d           2.118   1.256  -0.011  0.00  0.00     0.083 H 
ATOM     25  H9  <0> d           0.002  -0.004   0.002  0.00  0.00     0.084 H 
ENDBRANCH   1  15
TORSDOF 5
