REMARK  3 active torsions:
REMARK  status: ('A' for Active; 'I' for Inactive)
REMARK    1  A    between atoms: C1_1  and  N1_2 
REMARK    2  A    between atoms: C5_6  and  C6_7 
REMARK    3  A    between atoms: C6_7  and  C7_8 
REMARK       I    between atoms: C7_8  and  N2_10 
ROOT
ATOM      1  N1  <0> d           2.073   0.729  -0.014  0.00  0.00    -0.364 N 
ATOM      2  C2  <0> d           1.294  -0.390  -0.012  0.00  0.00    -0.021 A 
ATOM      3  C3  <0> d           0.002  -0.004   0.002  0.00  0.00    -0.066 A 
ATOM      4  C4  <0> d          -0.017   1.405   0.010  0.00  0.00    -0.059 A 
ATOM      5  C5  <0> d           1.264   1.826  -0.000  0.00  0.00     0.019 A 
ATOM      6  H4  <0> d           1.650  -1.410  -0.022  0.00  0.00     0.111 H 
ATOM      7  H5  <0> d          -0.860  -0.655   0.006  0.00  0.00     0.085 H 
ATOM      8  H6  <0> d          -0.896   2.032   0.018  0.00  0.00     0.086 H 
ENDROOT
BRANCH   5   9
ATOM      9  C6  <0> d           1.722   3.261   0.002  0.00  0.00     0.047 C 
ATOM     10  H7  <0> d           2.725   3.327  -0.445  0.00  0.00     0.056 H 
ATOM     11  H8  <0> d           1.018   3.872  -0.583  0.00  0.00     0.056 H 
BRANCH   9  12
ATOM     12  C7  <0> d           1.771   3.771   1.420  0.00  0.00     0.221 C 
ATOM     13  O1  <0> d           1.464   3.040   2.338  0.00  0.00    -0.273 OA
ATOM     14  N2  <0> d           2.155   5.038   1.668  0.00  0.00    -0.370 N 
ATOM     15  H9  <0> d           2.191   5.410   2.702  0.00  0.00     0.159 HD
ATOM     16  H10 <0> d           2.434   5.701   0.835  0.00  0.00     0.159 HD
ENDBRANCH   9  12
ENDBRANCH   5   9
BRANCH   1  17
ATOM     17  C1  <0> d           3.538   0.749  -0.027  0.00  0.00    -0.015 C 
ATOM     18  H1  <0> d           3.919  -0.283  -0.037  0.00  0.00     0.057 H 
ATOM     19  H2  <0> d           3.906   1.267   0.870  0.00  0.00     0.057 H 
ATOM     20  H3  <0> d           3.889   1.277  -0.926  0.00  0.00     0.057 H 
ENDBRANCH   1  17
TORSDOF 3
