REMARK  3 active torsions:
REMARK  status: ('A' for Active; 'I' for Inactive)
REMARK    1  A    between atoms: C1_1  and  C2_2 
REMARK    2  A    between atoms: C2_2  and  S1_3 
REMARK    3  A    between atoms: S1_3  and  O2_5 
ROOT
ATOM      1  C2  <0> d          -0.742   1.938   1.620  0.00  0.00     0.025 C 
ATOM      2  H4  <0> d          -0.112   1.528   2.423  0.00  0.00     0.055 H 
ATOM      3  H5  <0> d          -1.752   1.509   1.691  0.00  0.00     0.055 H 
ENDROOT
BRANCH   1   4
ATOM      4  C1  <0> d          -0.822   3.459   1.762  0.00  0.00    -0.064 C 
ATOM      5  H1  <0> d          -1.260   3.714   2.738  0.00  0.00     0.028 H 
ATOM      6  H2  <0> d          -1.452   3.870   0.959  0.00  0.00     0.028 H 
ATOM      7  H3  <0> d           0.189   3.888   1.691  0.00  0.00     0.028 H 
ENDBRANCH   1   4
BRANCH   1   8
ATOM      8  S1  <0> d          -0.019   1.518   0.010  0.00  0.00     0.150 S 
ATOM      9  O1  <0> d           1.355   1.880  -0.001  0.00  0.00    -0.229 OA
BRANCH   8  10
ATOM     10  O2  <0> d           0.002  -0.004   0.002  0.00  0.00    -0.306 OA
ATOM     11  H6  <0> d           0.398  -0.544  -0.871  0.00  0.00     0.230 HD
ENDBRANCH   8  10
ENDBRANCH   1   8
TORSDOF 3
