REMARK  2 active torsions:
REMARK  status: ('A' for Active; 'I' for Inactive)
REMARK    1  A    between atoms: C1_1  and  C2_2 
REMARK    2  A    between atoms: C6_6  and  C7_8 
ROOT
ATOM      1  C2  <0> d           0.002  -0.004   0.002  0.00  0.00     0.049 A 
ATOM      2  C3  <0> d          -0.017   1.378   0.010  0.00  0.00    -0.055 A 
ATOM      3  C4  <0> d           1.210   2.041   0.002  0.00  0.00    -0.078 A 
ATOM      4  C5  <0> d           2.341   1.226  -0.013  0.00  0.00    -0.055 A 
ATOM      5  C6  <0> d           2.145  -0.142  -0.019  0.00  0.00     0.049 A 
ATOM      6  O1  <0> d           1.038  -0.627  -0.011  0.00  0.00    -0.320 OA
ATOM      7  H4  <0> d          -0.948   1.925   0.017  0.00  0.00     0.087 H 
ATOM      8  H5  <0> d           1.279   3.118   0.006  0.00  0.00     0.083 H 
ATOM      9  H6  <0> d           3.335   1.649  -0.020  0.00  0.00     0.087 H 
ENDROOT
BRANCH   1  10
ATOM     10  C1  <0> d          -1.305  -0.755   0.011  0.00  0.00    -0.031 C 
ATOM     11  H1  <0> d          -1.603  -0.916  -0.930  0.00  0.00     0.036 H 
ATOM     12  H2  <0> d          -1.172  -1.710   0.518  0.00  0.00     0.036 H 
ATOM     13  H3  <0> d          -2.058  -0.167   0.535  0.00  0.00     0.036 H 
ENDBRANCH   1  10
BRANCH   5  14
ATOM     14  C7  <0> d           3.345  -1.054  -0.035  0.00  0.00    -0.031 C 
ATOM     15  H7  <0> d           3.012  -2.092  -0.037  0.00  0.00     0.036 H 
ATOM     16  H8  <0> d           3.937  -0.860  -0.929  0.00  0.00     0.036 H 
ATOM     17  H9  <0> d           3.953  -0.869   0.851  0.00  0.00     0.036 H 
ENDBRANCH   5  14
TORSDOF 2
