REMARK  1 active torsions:
REMARK  status: ('A' for Active; 'I' for Inactive)
REMARK    1  A    between atoms: C1_1  and  C2_2 
ROOT
ATOM      1  C2  <0> d           3.922   2.820  -0.019  0.00  0.00     0.073 A 
ATOM      2  N1  <0> d           2.635   3.051  -0.006  0.00  0.00    -0.238 NA
ATOM      3  C3  <0> d           1.742   2.069  -0.004  0.00  0.00     0.115 A 
ATOM      4  C4  <0> d           2.244   0.762  -0.015  0.00  0.00     0.043 A 
ATOM      5  S1  <0> d           4.004   1.087  -0.029  0.00  0.00    -0.072 SA
ATOM      6  C5  <0> d           1.321  -0.281  -0.012  0.00  0.00    -0.057 A 
ATOM      7  C6  <0> d           0.002  -0.004   0.002  0.00  0.00    -0.042 A 
ATOM      8  S2  <0> d          -0.022   1.779   0.012  0.00  0.00    -0.081 SA
ATOM      9  H4  <0> d           1.661  -1.306  -0.021  0.00  0.00     0.086 H 
ATOM     10  H5  <0> d          -0.832  -0.691   0.006  0.00  0.00     0.095 H 
ENDROOT
BRANCH   1  11
ATOM     11  C1  <0> d           5.054   3.814  -0.024  0.00  0.00    -0.029 C 
ATOM     12  H1  <0> d           4.646   4.835  -0.015  0.00  0.00     0.036 H 
ATOM     13  H2  <0> d           5.664   3.671  -0.928  0.00  0.00     0.036 H 
ATOM     14  H3  <0> d           5.680   3.661   0.868  0.00  0.00     0.036 H 
ENDBRANCH   1  11
TORSDOF 1
