REMARK  4 active torsions:
REMARK  status: ('A' for Active; 'I' for Inactive)
REMARK    1  A    between atoms: C1_1  and  C2_2 
REMARK    2  A    between atoms: C6_7  and  C7_8 
REMARK    3  A    between atoms: C7_8  and  O2_10 
REMARK    4  A    between atoms: O2_10  and  C8_11 
ROOT
ATOM      1  C2  <0> d           0.062  -0.094   0.037  0.00  0.00    -0.027 A 
ATOM      2  C3  <0> d          -0.041   1.267   0.276  0.00  0.00    -0.073 A 
ATOM      3  C4  <0> d           1.110   2.037   0.224  0.00  0.00    -0.065 A 
ATOM      4  C5  <0> d           2.322   1.429  -0.064  0.00  0.00     0.003 A 
ATOM      5  N1  <0> d           2.392   0.135  -0.287  0.00  0.00    -0.254 NA
ATOM      6  C6  <0> d           1.313  -0.638  -0.246  0.00  0.00     0.137 A 
ATOM      7  H4  <0> d          -0.998   1.718   0.494  0.00  0.00     0.084 H 
ATOM      8  H5  <0> d           1.063   3.101   0.405  0.00  0.00     0.085 H 
ATOM      9  H6  <0> d           3.221   2.026  -0.106  0.00  0.00     0.114 H 
ENDROOT
BRANCH   6  10
ATOM     10  C7  <0> d           1.441  -2.091  -0.504  0.00  0.00     0.312 C 
ATOM     11  O1  <0> d           0.447  -2.785  -0.572  0.00  0.00    -0.258 OA
BRANCH  10  12
ATOM     12  O2  <0> d           2.660  -2.642  -0.663  0.00  0.00    -0.321 OA
BRANCH  12  13
ATOM     13  C8  <0> d           2.709  -4.071  -0.913  0.00  0.00     0.013 C 
ATOM     14  H7  <0> d           3.757  -4.388  -1.022  0.00  0.00     0.067 H 
ATOM     15  H8  <0> d           2.158  -4.301  -1.836  0.00  0.00     0.067 H 
ATOM     16  H9  <0> d           2.250  -4.607  -0.069  0.00  0.00     0.067 H 
ENDBRANCH  12  13
ENDBRANCH  10  12
ENDBRANCH   6  10
BRANCH   1  17
ATOM     17  C1  <0> d          -1.161  -0.974   0.083  0.00  0.00    -0.049 C 
ATOM     18  H1  <0> d          -2.043  -0.362   0.321  0.00  0.00     0.033 H 
ATOM     19  H2  <0> d          -1.029  -1.744   0.858  0.00  0.00     0.033 H 
ATOM     20  H3  <0> d          -1.302  -1.457  -0.894  0.00  0.00     0.033 H 
ENDBRANCH   1  17
TORSDOF 4
