REMARK  7 active torsions:
REMARK  status: ('A' for Active; 'I' for Inactive)
REMARK    1  A    between atoms: C1_1  and  C2_2 
REMARK    2  A    between atoms: C2_2  and  C3_3 
REMARK    3  A    between atoms: C2_2  and  C4_5 
REMARK    4  A    between atoms: C2_2  and  O4_9 
REMARK    5  A    between atoms: C3_3  and  O1_4 
REMARK    6  A    between atoms: C4_5  and  O3_7 
REMARK    7  A    between atoms: O3_7  and  C5_8 
ROOT
ATOM      1  C2  <0> d           0.002  -0.004   0.002  0.00  0.00     0.162 C 
ENDROOT
BRANCH   1   2
ATOM      2  C1  <0> d          -1.433  -0.534   0.013  0.00  0.00    -0.037 C 
ATOM      3  H1  <0> d          -1.960  -0.173  -0.870  0.00  0.00     0.032 H 
ATOM      4  H2  <0> d          -1.419  -1.623   0.007  0.00  0.00     0.032 H 
ATOM      5  H3  <0> d          -1.944  -0.182   0.910  0.00  0.00     0.032 H 
ENDBRANCH   1   2
BRANCH   1   6
ATOM      6  C3  <0> d           0.718  -0.497  -1.257  0.00  0.00     0.054 C 
ATOM      7  H4  <0> d           1.741  -0.120  -1.264  0.00  0.00     0.079 H 
ATOM      8  H5  <0> d           0.733  -1.587  -1.263  0.00  0.00     0.079 H 
BRANCH   6   9
ATOM      9  O1  <0> d           0.027  -0.024  -2.414  0.00  0.00    -0.397 OA
ATOM     10  H6  <0> d           0.426  -0.299  -3.251  0.00  0.00     0.209 HD
ENDBRANCH   6   9
ENDBRANCH   1   6
BRANCH   1  11
ATOM     11  C4  <0> d           0.731  -0.503   1.223  0.00  0.00     0.295 C 
ATOM     12  O2  <0> d           1.406  -1.503   1.157  0.00  0.00    -0.262 OA
BRANCH  11  13
ATOM     13  O3  <0> d           0.630   0.163   2.384  0.00  0.00    -0.324 OA
BRANCH  13  14
ATOM     14  C5  <0> d           1.360  -0.375   3.518  0.00  0.00     0.013 C 
ATOM     15  H7  <0> d           1.193   0.257   4.390  0.00  0.00     0.067 H 
ATOM     16  H8  <0> d           1.009  -1.386   3.729  0.00  0.00     0.067 H 
ATOM     17  H9  <0> d           2.424  -0.401   3.287  0.00  0.00     0.067 H 
ENDBRANCH  13  14
ENDBRANCH  11  13
ENDBRANCH   1  11
BRANCH   1  18
ATOM     18  O4  <0> d          -0.017   1.425   0.010  0.00  0.00    -0.378 OA
ATOM     19  H10 <0> d           0.861   1.830   0.004  0.00  0.00     0.211 HD
ENDBRANCH   1  18
TORSDOF 7
