REMARK  4 active torsions:
REMARK  status: ('A' for Active; 'I' for Inactive)
REMARK    1  A    between atoms: C1_1  and  C2_2 
REMARK    2  A    between atoms: C3_4  and  O4_14 
REMARK    3  A    between atoms: C5_7  and  O3_13 
REMARK    4  A    between atoms: C6_9  and  O2_12 
ROOT
ATOM      1  C2  <0> d           3.244   3.204  -1.342  0.00  0.00     0.063 C 
ATOM      2  H1  <0> d           2.672   3.450  -2.249  0.00  0.00     0.086 H 
ATOM      3  C3  <0> d           2.539   3.717  -0.084  0.00  0.00     0.062 C 
ATOM      4  H2  <0> d           3.132   3.514   0.820  0.00  0.00     0.086 H 
ATOM      5  C4  <0> d           1.146   3.087   0.004  0.00  0.00    -0.010 C 
ATOM      6  C5  <0> d           1.286   1.562  -0.002  0.00  0.00     0.085 C 
ATOM      7  H3  <0> d           1.786   1.200   0.909  0.00  0.00     0.090 H 
ATOM      8  C6  <0> d           2.040   1.130  -1.263  0.00  0.00     0.153 C 
ATOM      9  H4  <0> d           1.512   1.385  -2.193  0.00  0.00     0.132 H 
ATOM     10  O1  <0> d           3.314   1.777  -1.299  0.00  0.00    -0.351 OA
ATOM     11  H8  <0> d           0.656   3.410   0.935  0.00  0.00     0.041 H 
ATOM     12  H9  <0> d           0.543   3.407  -0.858  0.00  0.00     0.041 H 
ENDROOT
BRANCH   1  13
ATOM     13  C1  <0> d           4.659   3.782  -1.407  0.00  0.00    -0.050 C 
ATOM     14  H5  <0> d           4.605   4.880  -1.440  0.00  0.00     0.031 H 
ATOM     15  H6  <0> d           5.166   3.413  -2.310  0.00  0.00     0.031 H 
ATOM     16  H7  <0> d           5.224   3.470  -0.516  0.00  0.00     0.031 H 
ENDBRANCH   1  13
BRANCH   3  17
ATOM     17  O4  <0> d           2.417   5.139  -0.150  0.00  0.00    -0.393 OA
ATOM     18  H12 <0> d           1.933   5.689   0.671  0.00  0.00     0.210 HD
ENDBRANCH   3  17
BRANCH   8  19
ATOM     19  O2  <0> d           2.224  -0.287  -1.246  0.00  0.00    -0.369 OA
ATOM     20  H10 <0> d           2.749  -0.783  -2.076  0.00  0.00     0.212 HD
ENDBRANCH   8  19
BRANCH   6  21
ATOM     21  O3  <0> d          -0.011   0.963   0.007  0.00  0.00    -0.391 OA
ATOM     22  H11 <0> d          -0.111  -0.133   0.004  0.00  0.00     0.210 HD
ENDBRANCH   6  21
TORSDOF 4
