REMARK  0 active torsions:
REMARK  status: ('A' for Active; 'I' for Inactive)
ROOT
ATOM      1  C1  <0> d           1.495   2.114  -2.451  0.00  0.00    -0.061 C 
ATOM      2  C2  <0> d           0.053   1.556  -2.441  0.00  0.00    -0.059 C 
ATOM      3  C3  <0> d          -0.665   2.341  -1.301  0.00  0.00    -0.020 C 
ATOM      4  H1  <0> d          -1.754   2.339  -1.335  0.00  0.00     0.044 H 
ATOM      5  C4  <0> d           0.045   3.736  -1.417  0.00  0.00    -0.056 C 
ATOM      6  C5  <0> d           1.511   3.184  -1.317  0.00  0.00    -0.051 C 
ATOM      7  H2  <0> d           2.317   3.917  -1.365  0.00  0.00     0.040 H 
ATOM      8  C6  <0> d           1.419   2.357   0.001  0.00  0.00    -0.029 C 
ATOM      9  C7  <0> d          -0.022   1.799   0.012  0.00  0.00     0.129 C 
ATOM     10  C8  <0> d          -0.756   2.295   1.188  0.00  0.00     0.086 C 
ATOM     11  N1  <0> d          -1.322   2.677   2.095  0.00  0.00    -0.195 NA
ATOM     12 Cl1  <0> d           0.002  -0.004   0.002  0.00  0.00    -0.102 Cl
ATOM     13  H3  <0> d           1.716   2.576  -3.413  0.00  0.00     0.033 H 
ATOM     14  H4  <0> d           2.213   1.322  -2.237  0.00  0.00     0.033 H 
ATOM     15  H5  <0> d          -0.434   1.743  -3.397  0.00  0.00     0.033 H 
ATOM     16  H6  <0> d           0.061   0.488  -2.222  0.00  0.00     0.033 H 
ATOM     17  H7  <0> d          -0.203   4.391  -0.583  0.00  0.00     0.034 H 
ATOM     18  H8  <0> d          -0.147   4.213  -2.378  0.00  0.00     0.034 H 
ATOM     19  H9  <0> d           1.584   3.001   0.866  0.00  0.00     0.037 H 
ATOM     20  H10 <0> d           2.142   1.542  -0.008  0.00  0.00     0.037 H 
ENDROOT
TORSDOF 0
