REMARK  0 active torsions:
REMARK  status: ('A' for Active; 'I' for Inactive)
ROOT
ATOM      1  C1  <0> d          -0.017   1.387   0.010  0.00  0.00    -0.033 A 
ATOM      2  C2  <0> d           1.181   2.070   0.002  0.00  0.00     0.004 A 
ATOM      3  N1  <0> d           2.339   1.433  -0.013  0.00  0.00    -0.272 NA
ATOM      4  C3  <0> d           2.416   0.117  -0.020  0.00  0.00     0.014 A 
ATOM      5  C4  <0> d           1.255  -0.649  -0.014  0.00  0.00     0.017 A 
ATOM      6  C5  <0> d           0.002  -0.004   0.002  0.00  0.00     0.088 A 
ATOM      7  O1  <0> d          -0.941  -0.961   0.006  0.00  0.00    -0.322 OA
ATOM      8  C6  <0> d          -0.383  -2.185  -0.006  0.00  0.00     0.020 A 
ATOM      9  C7  <0> d           0.954  -2.084  -0.020  0.00  0.00    -0.047 A 
ATOM     10  H1  <0> d          -0.954   1.923   0.026  0.00  0.00     0.090 H 
ATOM     11  H2  <0> d           1.172   3.150   0.007  0.00  0.00     0.114 H 
ATOM     12  H3  <0> d           3.381  -0.366  -0.032  0.00  0.00     0.116 H 
ATOM     13  H4  <0> d          -0.932  -3.115  -0.006  0.00  0.00     0.123 H 
ATOM     14  H5  <0> d           1.666  -2.896  -0.032  0.00  0.00     0.087 H 
ENDROOT
TORSDOF 0
