REMARK  2 active torsions:
REMARK  status: ('A' for Active; 'I' for Inactive)
REMARK    1  A    between atoms: C1_1  and  S1_2 
REMARK    2  A    between atoms: S1_2  and  C2_3 
ROOT
ATOM      1  C2  <0> d           0.002  -0.004   0.002  0.00  0.00     0.020 A 
ATOM      2  C3  <0> d           1.219  -0.675  -0.013  0.00  0.00    -0.065 A 
ATOM      3  C4  <0> d           2.401   0.037  -0.021  0.00  0.00    -0.082 A 
ATOM      4  C5  <0> d           2.385   1.423  -0.013  0.00  0.00    -0.081 A 
ATOM      5  C6  <0> d           1.189   2.106   0.002  0.00  0.00    -0.061 A 
ATOM      6  C7  <0> d          -0.017   1.400   0.010  0.00  0.00     0.061 A 
ATOM      7  C8  <0> d          -1.264   2.104   0.019  0.00  0.00     0.101 C 
ATOM      8  N1  <0> d          -2.253   2.662   0.027  0.00  0.00    -0.191 NA
ATOM      9  H4  <0> d           1.240  -1.755  -0.020  0.00  0.00     0.085 H 
ATOM     10  H5  <0> d           3.344  -0.489  -0.033  0.00  0.00     0.083 H 
ATOM     11  H6  <0> d           3.316   1.971  -0.020  0.00  0.00     0.083 H 
ATOM     12  H7  <0> d           1.183   3.186   0.008  0.00  0.00     0.085 H 
ENDROOT
BRANCH   1  13
ATOM     13  S1  <0> d          -1.509  -0.910   0.011  0.00  0.00    -0.133 SA
BRANCH  13  14
ATOM     14  C1  <0> d          -0.980  -2.646  -0.003  0.00  0.00    -0.030 C 
ATOM     15  H1  <0> d          -0.374  -2.848   0.880  0.00  0.00     0.042 H 
ATOM     16  H2  <0> d          -1.857  -3.293   0.001  0.00  0.00     0.042 H 
ATOM     17  H3  <0> d          -0.391  -2.838  -0.900  0.00  0.00     0.042 H 
ENDBRANCH  13  14
ENDBRANCH   1  13
TORSDOF 2
