REMARK  3 active torsions:
REMARK  status: ('A' for Active; 'I' for Inactive)
REMARK    1  A    between atoms: C1_1  and  C2_2 
REMARK    2  A    between atoms: C6_7  and  O1_12 
REMARK    3  A    between atoms: C7_9  and  C8_11 
ROOT
ATOM      1  C2  <0> d           1.417   2.055  -0.000  0.00  0.00    -0.052 C 
ATOM      2  H1  <0> d           1.944   1.694   0.883  0.00  0.00     0.040 H 
ATOM      3  C3  <0> d          -0.019   1.526   0.010  0.00  0.00    -0.061 C 
ATOM      4  C4  <0> d           0.002  -0.004   0.002  0.00  0.00    -0.062 C 
ATOM      5  C5  <0> d           0.718  -0.497  -1.257  0.00  0.00    -0.041 C 
ATOM      6  C6  <0> d           2.154   0.032  -1.268  0.00  0.00     0.039 C 
ATOM      7  H2  <0> d           2.664  -0.319  -2.164  0.00  0.00     0.083 H 
ATOM      8  C7  <0> d           2.133   1.562  -1.259  0.00  0.00    -0.030 C 
ATOM      9  H3  <0> d           1.606   1.923  -2.142  0.00  0.00     0.043 H 
ATOM     10  H7  <0> d          -0.546   1.887  -0.873  0.00  0.00     0.033 H 
ATOM     11  H8  <0> d          -0.529   1.877   0.907  0.00  0.00     0.033 H 
ATOM     12  H9  <0> d           0.529  -0.365   0.885  0.00  0.00     0.033 H 
ATOM     13  H10 <0> d          -1.020  -0.381   0.010  0.00  0.00     0.033 H 
ATOM     14  H11 <0> d           0.733  -1.587  -1.263  0.00  0.00     0.036 H 
ATOM     15  H12 <0> d           0.191  -0.136  -2.140  0.00  0.00     0.036 H 
ENDROOT
BRANCH   1  16
ATOM     16  C1  <0> d           1.396   3.585   0.008  0.00  0.00    -0.072 C 
ATOM     17  H4  <0> d           0.886   3.937   0.905  0.00  0.00     0.028 H 
ATOM     18  H5  <0> d           2.419   3.962   0.000  0.00  0.00     0.028 H 
ATOM     19  H6  <0> d           0.869   3.946  -0.875  0.00  0.00     0.028 H 
ENDBRANCH   1  16
BRANCH   8  20
ATOM     20  C8  <0> d           3.568   2.091  -1.270  0.00  0.00    -0.070 C 
ATOM     21  H13 <0> d           4.078   1.740  -2.167  0.00  0.00     0.028 H 
ATOM     22  H14 <0> d           3.554   3.181  -1.264  0.00  0.00     0.028 H 
ATOM     23  H15 <0> d           4.095   1.730  -0.387  0.00  0.00     0.028 H 
ENDBRANCH   8  20
BRANCH   6  24
ATOM     24  O1  <0> d           2.845  -0.441  -0.110  0.00  0.00    -0.395 OA
ATOM     25  H16 <0> d           2.897  -1.405  -0.050  0.00  0.00     0.210 HD
ENDBRANCH   6  24
TORSDOF 3
