REMARK  4 active torsions:
REMARK  status: ('A' for Active; 'I' for Inactive)
REMARK    1  A    between atoms: C1_1  and  O1_2 
REMARK    2  A    between atoms: O1_2  and  C2_3 
REMARK    3  A    between atoms: C2_3  and  C3_4 
REMARK    4  A    between atoms: C6_7  and  O2_10 
ROOT
ATOM      1  C3  <0> d           1.208  -0.680  -0.013  0.00  0.00    -0.035 A 
ATOM      2  C4  <0> d           0.002  -0.004   0.002  0.00  0.00    -0.072 A 
ATOM      3  C5  <0> d          -0.017   1.377   0.010  0.00  0.00    -0.050 A 
ATOM      4  C6  <0> d           1.176   2.086   0.002  0.00  0.00     0.065 A 
ATOM      5  C7  <0> d           2.385   1.405  -0.013  0.00  0.00    -0.050 A 
ATOM      6  C8  <0> d           2.398   0.024  -0.021  0.00  0.00    -0.072 A 
ATOM      7  H6  <0> d          -0.926  -0.556   0.008  0.00  0.00     0.084 H 
ATOM      8  H7  <0> d          -0.959   1.905   0.017  0.00  0.00     0.087 H 
ATOM      9  H8  <0> d           3.314   1.955  -0.019  0.00  0.00     0.087 H 
ATOM     10  H9  <0> d           3.339  -0.506  -0.033  0.00  0.00     0.084 H 
ENDROOT
BRANCH   1  11
ATOM     11  C2  <0> d           1.226  -2.187  -0.021  0.00  0.00     0.043 C 
ATOM     12  H4  <0> d           2.125  -2.543   0.482  0.00  0.00     0.081 H 
ATOM     13  H5  <0> d           0.345  -2.563   0.500  0.00  0.00     0.081 H 
BRANCH  11  14
ATOM     14  O1  <0> d           1.218  -2.657  -1.371  0.00  0.00    -0.391 OA
BRANCH  14  15
ATOM     15  C1  <0> d           1.233  -4.080  -1.491  0.00  0.00     0.004 C 
ATOM     16  H1  <0> d           2.133  -4.475  -1.018  0.00  0.00     0.066 H 
ATOM     17  H2  <0> d           0.353  -4.496  -1.001  0.00  0.00     0.066 H 
ATOM     18  H3  <0> d           1.226  -4.356  -2.545  0.00  0.00     0.066 H 
ENDBRANCH  14  15
ENDBRANCH  11  14
ENDBRANCH   1  11
BRANCH   4  19
ATOM     19  O2  <0> d           1.160   3.445   0.009  0.00  0.00    -0.361 OA
ATOM     20  H10 <0> d           1.164   3.834   0.894  0.00  0.00     0.217 HD
ENDBRANCH   4  19
TORSDOF 4
