REMARK  4 active torsions:
REMARK  status: ('A' for Active; 'I' for Inactive)
REMARK    1  A    between atoms: C1_1  and  C2_2 
REMARK    2  A    between atoms: C2_2  and  C10_10 
REMARK    3  A    between atoms: C3_3  and  C4_4 
REMARK    4  A    between atoms: C10_10  and  O1_11 
ROOT
ATOM      1  C2  <0> d           3.643   3.483  -0.116  0.00  0.00    -0.060 C 
ATOM      2  C3  <0> d           3.670   2.181   0.135  0.00  0.00    -0.069 C 
ATOM      3  H4  <0> d           4.589   1.627   0.011  0.00  0.00     0.085 H 
ENDROOT
BRANCH   2   4
ATOM      4  C4  <0> d           2.443   1.489   0.583  0.00  0.00    -0.036 A 
ATOM      5  C9  <0> d           2.169   0.194   0.143  0.00  0.00    -0.073 A 
ATOM      6  C8  <0> d           1.022  -0.447   0.565  0.00  0.00    -0.082 A 
ATOM      7  H9  <0> d           2.853  -0.306  -0.527  0.00  0.00     0.084 H 
ATOM      8  C7  <0> d           0.145   0.193   1.422  0.00  0.00    -0.083 A 
ATOM      9  H8  <0> d           0.808  -1.449   0.224  0.00  0.00     0.083 H 
ATOM     10  C6  <0> d           0.411   1.477   1.863  0.00  0.00    -0.082 A 
ATOM     11  H7  <0> d          -0.752  -0.313   1.749  0.00  0.00     0.083 H 
ATOM     12  C5  <0> d           1.555   2.128   1.449  0.00  0.00    -0.073 A 
ATOM     13  H6  <0> d          -0.280   1.972   2.529  0.00  0.00     0.083 H 
ATOM     14  H5  <0> d           1.762   3.131   1.793  0.00  0.00     0.084 H 
ENDBRANCH   2   4
BRANCH   1  15
ATOM     15  C1  <0> d           2.332   4.226  -0.099  0.00  0.00    -0.053 C 
ATOM     16  H1  <0> d           2.114   4.555   0.917  0.00  0.00     0.033 H 
ATOM     17  H2  <0> d           2.398   5.093  -0.756  0.00  0.00     0.033 H 
ATOM     18  H3  <0> d           1.536   3.567  -0.446  0.00  0.00     0.033 H 
ENDBRANCH   1  15
BRANCH   1  19
ATOM     19  C10 <0> d           4.923   4.219  -0.417  0.00  0.00     0.037 C 
ATOM     20  H10 <0> d           4.860   4.665  -1.410  0.00  0.00     0.081 H 
ATOM     21  H11 <0> d           5.074   5.003   0.324  0.00  0.00     0.081 H 
BRANCH  19  22
ATOM     22  O1  <0> d           6.020   3.304  -0.374  0.00  0.00    -0.397 OA
ATOM     23  H12 <0> d           6.878   3.710  -0.560  0.00  0.00     0.209 HD
ENDBRANCH  19  22
ENDBRANCH   1  19
TORSDOF 4
