REMARK  6 active torsions:
REMARK  status: ('A' for Active; 'I' for Inactive)
REMARK    1  A    between atoms: C1_1  and  C2_2 
REMARK    2  A    between atoms: C2_2  and  C3_3 
REMARK    3  A    between atoms: C5_7  and  C9_11 
REMARK    4  A    between atoms: C6_8  and  C7_9 
REMARK    5  A    between atoms: C7_9  and  C8_10 
REMARK    6  A    between atoms: C9_11  and  C10_12 
ROOT
ATOM      1  C3  <0> d           0.731  -0.503   1.223  0.00  0.00    -0.035 A 
ATOM      2  C4  <0> d           2.036  -0.836   1.293  0.00  0.00    -0.016 A 
ATOM      3  N1  <0> d           2.305  -1.239   2.567  0.00  0.00    -0.368 N 
ATOM      4  H1  <0> d           3.169  -1.533   2.897  0.00  0.00     0.165 HD
ATOM      5  C5  <0> d           1.160  -1.158   3.303  0.00  0.00     0.015 A 
ATOM      6  C6  <0> d           0.176  -0.703   2.502  0.00  0.00    -0.028 A 
ATOM      7  H7  <0> d           2.745  -0.791   0.480  0.00  0.00     0.112 H 
ENDROOT
BRANCH   1   8
ATOM      8  C2  <0> d           0.002  -0.004   0.002  0.00  0.00    -0.043 C 
ATOM      9  H5  <0> d          -1.020  -0.381   0.010  0.00  0.00     0.039 H 
ATOM     10  H6  <0> d           0.512  -0.356  -0.895  0.00  0.00     0.039 H 
BRANCH   8  11
ATOM     11  C1  <0> d          -0.019   1.526   0.010  0.00  0.00    -0.073 C 
ATOM     12  H2  <0> d           1.004   1.903   0.003  0.00  0.00     0.028 H 
ATOM     13  H3  <0> d          -0.546   1.887  -0.873  0.00  0.00     0.028 H 
ATOM     14  H4  <0> d          -0.529   1.877   0.907  0.00  0.00     0.028 H 
ENDBRANCH   8  11
ENDBRANCH   1   8
BRANCH   6  15
ATOM     15  C7  <0> d          -1.256  -0.455   2.902  0.00  0.00    -0.042 C 
ATOM     16  H8  <0> d          -1.297  -0.175   3.954  0.00  0.00     0.039 H 
ATOM     17  H9  <0> d          -1.668   0.352   2.295  0.00  0.00     0.039 H 
BRANCH  15  18
ATOM     18  C8  <0> d          -2.075  -1.728   2.680  0.00  0.00    -0.073 C 
ATOM     19  H10 <0> d          -2.034  -2.008   1.628  0.00  0.00     0.028 H 
ATOM     20  H11 <0> d          -1.663  -2.535   3.287  0.00  0.00     0.028 H 
ATOM     21  H12 <0> d          -3.111  -1.549   2.969  0.00  0.00     0.028 H 
ENDBRANCH  15  18
ENDBRANCH   6  15
BRANCH   5  22
ATOM     22  C9  <0> d           1.020  -1.512   4.761  0.00  0.00    -0.030 C 
ATOM     23  H13 <0> d           1.988  -1.413   5.253  0.00  0.00     0.041 H 
ATOM     24  H14 <0> d           0.304  -0.838   5.231  0.00  0.00     0.041 H 
BRANCH  22  25
ATOM     25  C10 <0> d           0.526  -2.954   4.892  0.00  0.00    -0.071 C 
ATOM     26  H15 <0> d          -0.441  -3.052   4.400  0.00  0.00     0.028 H 
ATOM     27  H16 <0> d           1.243  -3.627   4.422  0.00  0.00     0.028 H 
ATOM     28  H17 <0> d           0.425  -3.209   5.947  0.00  0.00     0.028 H 
ENDBRANCH  22  25
ENDBRANCH   5  22
TORSDOF 6
