REMARK  2 active torsions:
REMARK  status: ('A' for Active; 'I' for Inactive)
REMARK    1  A    between atoms: C1_1  and  C2_2 
REMARK    2  A    between atoms: C5_5  and  C6_7 
REMARK       I    between atoms: C6_7  and  N1_9 
ROOT
ATOM      1  C2  <0> d           1.241   1.807  -0.000  0.00  0.00     0.050 A 
ATOM      2  C3  <0> d           2.090   0.755  -0.014  0.00  0.00    -0.052 A 
ATOM      3  C4  <0> d           1.306  -0.409  -0.013  0.00  0.00    -0.042 A 
ATOM      4  C5  <0> d           0.002  -0.004   0.002  0.00  0.00     0.143 A 
ATOM      5  O1  <0> d          -0.016   1.345   0.009  0.00  0.00    -0.310 OA
ATOM      6  H4  <0> d           3.169   0.802  -0.024  0.00  0.00     0.087 H 
ATOM      7  H5  <0> d           1.665  -1.427  -0.021  0.00  0.00     0.088 H 
ENDROOT
BRANCH   4   8
ATOM      8  C6  <0> d          -1.173  -0.882   0.009  0.00  0.00     0.273 C 
ATOM      9  O2  <0> d          -1.029  -2.090   0.002  0.00  0.00    -0.266 OA
ATOM     10  N1  <0> d          -2.411  -0.350   0.024  0.00  0.00    -0.364 N 
ATOM     11  H6  <0> d          -2.525   0.613   0.030  0.00  0.00     0.159 HD
ATOM     12  H7  <0> d          -3.188  -0.931   0.029  0.00  0.00     0.159 HD
ENDBRANCH   4   8
BRANCH   1  13
ATOM     13  C1  <0> d           1.643   3.259   0.003  0.00  0.00    -0.031 C 
ATOM     14  H1  <0> d           0.749   3.883   0.015  0.00  0.00     0.036 H 
ATOM     15  H2  <0> d           2.243   3.468   0.889  0.00  0.00     0.036 H 
ATOM     16  H3  <0> d           2.226   3.477  -0.891  0.00  0.00     0.036 H 
ENDBRANCH   1  13
TORSDOF 2
