REMARK  2 active torsions:
REMARK  status: ('A' for Active; 'I' for Inactive)
REMARK    1  A    between atoms: C1_1  and  C2_2 
REMARK    2  A    between atoms: C6_6  and  C7_8 
ROOT
ATOM      1  C2  <0> d          -1.214   1.759   0.017  0.00  0.00     0.031 A 
ATOM      2  C3  <0> d          -0.013   1.076   0.008  0.00  0.00    -0.059 A 
ATOM      3  C4  <0> d           1.173   1.794   0.001  0.00  0.00    -0.079 A 
ATOM      4  C5  <0> d           1.106   3.179   0.009  0.00  0.00    -0.059 A 
ATOM      5  C6  <0> d          -0.132   3.793   0.024  0.00  0.00     0.031 A 
ATOM      6  N1  <0> d          -1.240   3.078   0.031  0.00  0.00    -0.259 NA
ATOM      7  H4  <0> d           0.002  -0.004   0.002  0.00  0.00     0.086 H 
ATOM      8  H5  <0> d           2.127   1.287  -0.012  0.00  0.00     0.083 H 
ATOM      9  H6  <0> d           2.010   3.770   0.003  0.00  0.00     0.086 H 
ENDROOT
BRANCH   1  10
ATOM     10  C1  <0> d          -2.509   0.989   0.019  0.00  0.00    -0.035 C 
ATOM     11  H1  <0> d          -2.816   0.798   1.047  0.00  0.00     0.035 H 
ATOM     12  H2  <0> d          -3.279   1.571  -0.488  0.00  0.00     0.035 H 
ATOM     13  H3  <0> d          -2.369   0.041  -0.500  0.00  0.00     0.035 H 
ENDBRANCH   1  10
BRANCH   5  14
ATOM     14  C7  <0> d          -0.217   5.298   0.033  0.00  0.00    -0.035 C 
ATOM     15  H7  <0> d          -0.247   5.666  -0.993  0.00  0.00     0.035 H 
ATOM     16  H8  <0> d          -1.121   5.607   0.557  0.00  0.00     0.035 H 
ATOM     17  H9  <0> d           0.656   5.708   0.540  0.00  0.00     0.035 H 
ENDBRANCH   5  14
TORSDOF 2
