REMARK  1 active torsions:
REMARK  status: ('A' for Active; 'I' for Inactive)
REMARK    1  A    between atoms: C5_5  and  O1_7 
ROOT
ATOM      1  C1  <0> d           2.380   1.400  -0.012  0.00  0.00    -0.078 A 
ATOM      2  C2  <0> d           2.399   0.020  -0.020  0.00  0.00    -0.056 A 
ATOM      3  C3  <0> d           1.204  -0.698  -0.013  0.00  0.00     0.044 A 
ATOM      4  C4  <0> d           0.002  -0.004   0.002  0.00  0.00     0.011 A 
ATOM      5  C5  <0> d          -0.017   1.377   0.010  0.00  0.00     0.074 A 
ATOM      6  C6  <0> d           1.179   2.084   0.002  0.00  0.00    -0.050 A 
ATOM      7  C7  <0> d          -1.092  -1.047   0.006  0.00  0.00     0.038 A 
ATOM      8  C8  <0> d          -0.344  -2.364  -0.008  0.00  0.00     0.226 A 
ATOM      9  O2  <0> d          -0.837  -3.472  -0.010  0.00  0.00    -0.273 OA
ATOM     10  N1  <0> d           0.968  -2.073  -0.019  0.00  0.00    -0.326 N 
ATOM     11  H1  <0> d           3.310   1.949  -0.018  0.00  0.00     0.083 H 
ATOM     12  H2  <0> d           3.342  -0.505  -0.033  0.00  0.00     0.086 H 
ATOM     13  H3  <0> d           1.171   3.164   0.008  0.00  0.00     0.087 H 
ATOM     14  H5  <0> d          -1.697  -0.962   0.908  0.00  0.00     0.054 H 
ATOM     15  H6  <0> d          -1.714  -0.951  -0.883  0.00  0.00     0.054 H 
ATOM     16  H7  <0> d           1.669  -2.743  -0.029  0.00  0.00     0.169 HD
ENDROOT
BRANCH   5  17
ATOM     17  O1  <0> d          -1.202   2.042   0.019  0.00  0.00    -0.360 OA
ATOM     18  H4  <0> d          -1.540   2.230   0.905  0.00  0.00     0.217 HD
ENDBRANCH   5  17
TORSDOF 1
