REMARK  2 active torsions:
REMARK  status: ('A' for Active; 'I' for Inactive)
REMARK    1  A    between atoms: C1_1  and  C2_2 
REMARK    2  A    between atoms: C4_5  and  C6_10 
ROOT
ATOM      1  C2  <0> d          -0.320   3.413   2.769  0.00  0.00     0.029 C 
ATOM      2  H1  <0> d           0.318   4.295   2.823  0.00  0.00     0.055 H 
ATOM      3  C3  <0> d          -0.728   3.121   1.305  0.00  0.00    -0.029 C 
ATOM      4  C4  <0> d          -0.729   1.579   1.267  0.00  0.00     0.045 C 
ATOM      5  H2  <0> d          -1.753   1.206   1.284  0.00  0.00     0.083 H 
ATOM      6  O1  <0> d          -0.016   1.133   2.453  0.00  0.00    -0.316 OA
ATOM      7  C5  <0> d           0.451   2.168   3.163  0.00  0.00     0.263 C 
ATOM      8  O2  <0> d           1.338   2.118   3.982  0.00  0.00    -0.265 OA
ATOM      9  H6  <0> d           0.008   3.526   0.610  0.00  0.00     0.038 H 
ATOM     10  H7  <0> d          -1.721   3.516   1.093  0.00  0.00     0.038 H 
ENDROOT
BRANCH   1  11
ATOM     11  C1  <0> d          -1.558   3.585   3.651  0.00  0.00    -0.064 C 
ATOM     12  H3  <0> d          -1.251   3.701   4.690  0.00  0.00     0.028 H 
ATOM     13  H4  <0> d          -2.111   4.469   3.334  0.00  0.00     0.028 H 
ATOM     14  H5  <0> d          -2.196   2.705   3.557  0.00  0.00     0.028 H 
ENDBRANCH   1  11
BRANCH   4  15
ATOM     15  C6  <0> d          -0.013   1.086   0.008  0.00  0.00    -0.052 C 
ATOM     16  H8  <0> d           0.002  -0.004   0.002  0.00  0.00     0.030 H 
ATOM     17  H9  <0> d           1.010   1.463   0.000  0.00  0.00     0.030 H 
ATOM     18  H10 <0> d          -0.540   1.447  -0.875  0.00  0.00     0.030 H 
ENDBRANCH   4  15
TORSDOF 2
