REMARK  1 active torsions:
REMARK  status: ('A' for Active; 'I' for Inactive)
REMARK    1  A    between atoms: C4_4  and  O1_9 
ROOT
ATOM      1  C1  <0> d          -0.017   1.390   0.010  0.00  0.00    -0.043 A 
ATOM      2  C2  <0> d           1.183   2.099   0.002  0.00  0.00     0.048 A 
ATOM      3  C3  <0> d           2.398   1.411  -0.013  0.00  0.00    -0.031 A 
ATOM      4  C4  <0> d           2.412   0.025  -0.021  0.00  0.00     0.068 A 
ATOM      5  C5  <0> d           1.222  -0.684  -0.014  0.00  0.00    -0.031 A 
ATOM      6  C6  <0> d           0.002  -0.004   0.002  0.00  0.00     0.048 A 
ATOM      7  C7  <0> d          -1.228  -0.738   0.010  0.00  0.00     0.099 C 
ATOM      8  N1  <0> d          -2.203  -1.320   0.017  0.00  0.00    -0.191 NA
ATOM      9  C8  <0> d           1.170   3.531   0.009  0.00  0.00     0.099 C 
ATOM     10  N2  <0> d           1.159   4.667   0.015  0.00  0.00    -0.191 NA
ATOM     11  H1  <0> d          -0.958   1.918   0.026  0.00  0.00     0.088 H 
ATOM     12  H2  <0> d           3.329   1.960  -0.019  0.00  0.00     0.090 H 
ATOM     13  H3  <0> d           1.238  -1.764  -0.021  0.00  0.00     0.090 H 
ENDROOT
BRANCH   4  14
ATOM     14  O1  <0> d           3.597  -0.640  -0.037  0.00  0.00    -0.361 OA
ATOM     15  H4  <0> d           3.949  -0.838   0.842  0.00  0.00     0.217 HD
ENDBRANCH   4  14
TORSDOF 1
