REMARK  8 active torsions:
REMARK  status: ('A' for Active; 'I' for Inactive)
REMARK    1  A    between atoms: C1_1  and  C2_2 
REMARK    2  A    between atoms: C2_2  and  C3_3 
REMARK    3  A    between atoms: C3_3  and  C4_4 
REMARK    4  A    between atoms: C4_4  and  C5_5 
REMARK    5  A    between atoms: C5_5  and  C6_7 
REMARK    6  A    between atoms: C5_5  and  C8_9 
REMARK    7  A    between atoms: C6_7  and  C7_8 
REMARK       I    between atoms: C8_9  and  N1_11 
REMARK    8  A    between atoms: N1_11  and  C9_12 
ROOT
ATOM      1  C5  <0> d          -0.635   3.323   1.100  0.00  0.00     0.023 C 
ATOM      2  H1  <0> d           0.319   3.738   0.776  0.00  0.00     0.054 H 
ENDROOT
BRANCH   1   3
ATOM      3  C4  <0> d          -1.674   3.509  -0.009  0.00  0.00    -0.054 C 
ATOM      4  H9  <0> d          -2.599   3.006   0.272  0.00  0.00     0.034 H 
ATOM      5  H10 <0> d          -1.867   4.572  -0.151  0.00  0.00     0.034 H 
BRANCH   3   6
ATOM      6  C3  <0> d          -1.142   2.908  -1.311  0.00  0.00    -0.065 C 
ATOM      7  H7  <0> d          -0.171   3.346  -1.544  0.00  0.00     0.033 H 
ATOM      8  H8  <0> d          -1.036   1.829  -1.197  0.00  0.00     0.033 H 
BRANCH   6   9
ATOM      9  C2  <0> d          -2.122   3.207  -2.448  0.00  0.00    -0.069 C 
ATOM     10  H5  <0> d          -3.092   2.769  -2.216  0.00  0.00     0.032 H 
ATOM     11  H6  <0> d          -2.228   4.286  -2.562  0.00  0.00     0.032 H 
BRANCH   9  12
ATOM     12  C1  <0> d          -1.590   2.606  -3.751  0.00  0.00    -0.077 C 
ATOM     13  H2  <0> d          -2.288   2.819  -4.561  0.00  0.00     0.027 H 
ATOM     14  H3  <0> d          -0.619   3.044  -3.983  0.00  0.00     0.027 H 
ATOM     15  H4  <0> d          -1.484   1.528  -3.637  0.00  0.00     0.027 H 
ENDBRANCH   9  12
ENDBRANCH   6   9
ENDBRANCH   3   6
ENDBRANCH   1   3
BRANCH   1  16
ATOM     16  C6  <0> d          -0.469   1.832   1.398  0.00  0.00    -0.057 C 
ATOM     17  H11 <0> d           0.294   1.698   2.165  0.00  0.00     0.033 H 
ATOM     18  H12 <0> d          -0.166   1.311   0.489  0.00  0.00     0.033 H 
BRANCH  16  19
ATOM     19  C7  <0> d          -1.798   1.260   1.895  0.00  0.00    -0.076 C 
ATOM     20  H13 <0> d          -1.652   0.227   2.213  0.00  0.00     0.027 H 
ATOM     21  H14 <0> d          -2.531   1.291   1.089  0.00  0.00     0.027 H 
ATOM     22  H15 <0> d          -2.156   1.852   2.737  0.00  0.00     0.027 H 
ENDBRANCH  16  19
ENDBRANCH   1  16
BRANCH   1  23
ATOM     23  C8  <0> d          -1.097   4.036   2.345  0.00  0.00     0.221 C 
ATOM     24  O1  <0> d          -2.152   4.633   2.345  0.00  0.00    -0.273 OA
ATOM     25  N1  <0> d          -0.337   4.010   3.457  0.00  0.00    -0.365 N 
ATOM     26  H16 <0> d           0.507   3.532   3.457  0.00  0.00     0.161 HD
BRANCH  25  27
ATOM     27  C9  <0> d          -0.785   4.702   4.668  0.00  0.00    -0.018 C 
ATOM     28  H17 <0> d          -0.046   4.570   5.457  0.00  0.00     0.056 H 
ATOM     29  H18 <0> d          -0.904   5.765   4.455  0.00  0.00     0.056 H 
ATOM     30  H19 <0> d          -1.740   4.288   4.991  0.00  0.00     0.056 H 
ENDBRANCH  25  27
ENDBRANCH   1  23
TORSDOF 8
