REMARK  2 active torsions:
REMARK  status: ('A' for Active; 'I' for Inactive)
REMARK    1  A    between atoms: C2_2  and  C4_7 
REMARK    2  A    between atoms: C3_5  and  N2_6 
ROOT
ATOM      1  C1  <0> d           1.329   1.719  -0.001  0.00  0.00    -0.006 A 
ATOM      2  C2  <0> d          -0.016   1.300   0.009  0.00  0.00     0.070 A 
ATOM      3  N1  <0> d           0.002  -0.004   0.002  0.00  0.00    -0.131 NA
ATOM      4  O1  <0> d           1.130  -0.439  -0.011  0.00  0.00    -0.196 OA
ATOM      5  C3  <0> d           2.038   0.551  -0.014  0.00  0.00     0.168 A 
ATOM      6  H1  <0> d           1.711   2.729   0.000  0.00  0.00     0.093 H 
ENDROOT
BRANCH   2   7
ATOM      7  C4  <0> d          -1.236   2.184   0.020  0.00  0.00    -0.009 A 
ATOM      8  C6  <0> d          -1.730   2.689   1.377  0.00  0.00    -0.056 A 
ATOM      9  C5  <0> d          -1.041   3.652   0.406  0.00  0.00    -0.056 A 
ATOM     10  H7  <0> d          -2.806   2.796   1.513  0.00  0.00     0.034 H 
ATOM     11  H8  <0> d          -1.173   2.382   2.262  0.00  0.00     0.034 H 
ATOM     12  H5  <0> d          -0.030   3.977   0.653  0.00  0.00     0.034 H 
ATOM     13  H6  <0> d          -1.664   4.391  -0.096  0.00  0.00     0.034 H 
ATOM     14  H4  <0> d          -1.987   1.958  -0.737  0.00  0.00     0.049 H 
ENDBRANCH   2   7
BRANCH   5  15
ATOM     15  N2  <0> d           3.413   0.415  -0.028  0.00  0.00    -0.378 N 
ATOM     16  H2  <0> d           3.813  -0.469  -0.036  0.00  0.00     0.158 HD
ATOM     17  H3  <0> d           3.979   1.203  -0.030  0.00  0.00     0.158 HD
ENDBRANCH   5  15
TORSDOF 2
