REMARK  5 active torsions:
REMARK  status: ('A' for Active; 'I' for Inactive)
REMARK    1  A    between atoms: C1_1  and  C2_2 
REMARK    2  A    between atoms: C2_2  and  C3_3 
REMARK    3  A    between atoms: C3_3  and  O1_4 
REMARK    4  A    between atoms: O1_4  and  C4_5 
REMARK    5  A    between atoms: C9_11  and  O2_13 
ROOT
ATOM      1  C4  <0> d           0.746  -1.888  -1.280  0.00  0.00     0.063 C 
ATOM      2  H1  <0> d           0.777  -2.326  -0.282  0.00  0.00     0.087 H 
ATOM      3  C5  <0> d          -0.483  -2.409  -2.027  0.00  0.00    -0.038 C 
ATOM      4  C6  <0> d          -0.403  -3.933  -2.141  0.00  0.00    -0.063 C 
ATOM      5  C7  <0> d           0.862  -4.321  -2.908  0.00  0.00    -0.063 C 
ATOM      6  C8  <0> d           2.091  -3.800  -2.160  0.00  0.00    -0.039 C 
ATOM      7  C9  <0> d           2.011  -2.276  -2.047  0.00  0.00     0.060 C 
ATOM      8  H2  <0> d           1.980  -1.839  -3.045  0.00  0.00     0.086 H 
ATOM      9  H10 <0> d          -1.385  -2.132  -1.481  0.00  0.00     0.036 H 
ATOM     10  H11 <0> d          -0.515  -1.971  -3.025  0.00  0.00     0.036 H 
ATOM     11  H12 <0> d          -0.372  -4.370  -1.143  0.00  0.00     0.033 H 
ATOM     12  H13 <0> d          -1.279  -4.304  -2.673  0.00  0.00     0.033 H 
ATOM     13  H14 <0> d           0.919  -5.407  -2.988  0.00  0.00     0.033 H 
ATOM     14  H15 <0> d           0.831  -3.884  -3.905  0.00  0.00     0.033 H 
ATOM     15  H16 <0> d           2.123  -4.238  -1.163  0.00  0.00     0.036 H 
ATOM     16  H17 <0> d           2.993  -4.077  -2.707  0.00  0.00     0.036 H 
ENDROOT
BRANCH   1  17
ATOM     17  O1  <0> d           0.671  -0.465  -1.174  0.00  0.00    -0.383 OA
BRANCH  17  18
ATOM     18  C3  <0> d           0.002  -0.004   0.002  0.00  0.00     0.020 C 
ATOM     19  H8  <0> d           0.529  -0.365   0.885  0.00  0.00     0.074 H 
ATOM     20  H9  <0> d          -1.020  -0.381   0.010  0.00  0.00     0.074 H 
BRANCH  18  21
ATOM     21  C2  <0> d          -0.019   1.526   0.010  0.00  0.00    -0.049 C 
ATOM     22  H6  <0> d           1.004   1.903   0.003  0.00  0.00     0.035 H 
ATOM     23  H7  <0> d          -0.546   1.887  -0.873  0.00  0.00     0.035 H 
BRANCH  21  24
ATOM     24  C1  <0> d          -0.735   2.019   1.269  0.00  0.00    -0.075 C 
ATOM     25  H3  <0> d          -1.757   1.642   1.277  0.00  0.00     0.027 H 
ATOM     26  H4  <0> d          -0.208   1.658   2.152  0.00  0.00     0.027 H 
ATOM     27  H5  <0> d          -0.750   3.109   1.275  0.00  0.00     0.027 H 
ENDBRANCH  21  24
ENDBRANCH  18  21
ENDBRANCH  17  18
ENDBRANCH   1  17
BRANCH   7  28
ATOM     28  O2  <0> d           3.159  -1.790  -1.349  0.00  0.00    -0.393 OA
ATOM     29  H18 <0> d           4.000  -2.000  -1.779  0.00  0.00     0.210 HD
ENDBRANCH   7  28
TORSDOF 5
