REMARK  6 active torsions:
REMARK  status: ('A' for Active; 'I' for Inactive)
REMARK    1  A    between atoms: C1_1  and  C2_2 
REMARK    2  A    between atoms: C2_2  and  O1_3 
REMARK    3  A    between atoms: O1_3  and  C3_4 
REMARK    4  A    between atoms: C3_4  and  C4_5 
REMARK    5  A    between atoms: C3_4  and  C5_6 
REMARK    6  A    between atoms: C3_4  and  C6_7 
ROOT
ATOM      1  C3  <0> d          -1.432  -1.925   0.005  0.00  0.00     0.050 C 
ENDROOT
BRANCH   1   2
ATOM      2  O1  <0> d          -1.339  -0.499   0.012  0.00  0.00    -0.382 OA
BRANCH   2   3
ATOM      3  C2  <0> d           0.002  -0.004   0.002  0.00  0.00     0.017 C 
ATOM      4  H4  <0> d           0.512  -0.356  -0.895  0.00  0.00     0.073 H 
ATOM      5  H5  <0> d           0.529  -0.365   0.885  0.00  0.00     0.073 H 
BRANCH   3   6
ATOM      6  C1  <0> d          -0.019   1.526   0.010  0.00  0.00    -0.056 C 
ATOM      7  H1  <0> d           1.004   1.903   0.003  0.00  0.00     0.030 H 
ATOM      8  H2  <0> d          -0.546   1.887  -0.873  0.00  0.00     0.030 H 
ATOM      9  H3  <0> d          -0.529   1.877   0.907  0.00  0.00     0.030 H 
ENDBRANCH   3   6
ENDBRANCH   2   3
ENDBRANCH   1   2
BRANCH   1  10
ATOM     10  C4  <0> d          -0.734  -2.487   1.245  0.00  0.00    -0.048 C 
ATOM     11  H6  <0> d          -1.214  -2.096   2.142  0.00  0.00     0.031 H 
ATOM     12  H7  <0> d          -0.805  -3.575   1.240  0.00  0.00     0.031 H 
ATOM     13  H8  <0> d           0.315  -2.192   1.237  0.00  0.00     0.031 H 
ENDBRANCH   1  10
BRANCH   1  14
ATOM     14  C5  <0> d          -2.905  -2.339   0.017  0.00  0.00    -0.048 C 
ATOM     15  H9  <0> d          -3.402  -1.938  -0.866  0.00  0.00     0.031 H 
ATOM     16  H10 <0> d          -2.976  -3.427   0.012  0.00  0.00     0.031 H 
ATOM     17  H11 <0> d          -3.385  -1.948   0.914  0.00  0.00     0.031 H 
ENDBRANCH   1  14
BRANCH   1  18
ATOM     18  C6  <0> d          -0.758  -2.474  -1.253  0.00  0.00    -0.048 C 
ATOM     19  H12 <0> d           0.291  -2.179  -1.262  0.00  0.00     0.031 H 
ATOM     20  H13 <0> d          -0.829  -3.562  -1.258  0.00  0.00     0.031 H 
ATOM     21  H14 <0> d          -1.255  -2.073  -2.136  0.00  0.00     0.031 H 
ENDBRANCH   1  18
TORSDOF 6
