REMARK  3 active torsions:
REMARK  status: ('A' for Active; 'I' for Inactive)
REMARK    1  A    between atoms: C1_1  and  N1_2 
REMARK    2  A    between atoms: N1_2  and  C2_3 
REMARK    3  A    between atoms: C5_7  and  N4_9 
ROOT
ATOM      1  C2  <0> d          -2.404   3.620   0.033  0.00  0.00     0.723 A 
ATOM      2  N2  <0> d          -3.562   2.978   0.035  0.00  0.00    -0.075 NA
ATOM      3  C3  <0> d          -3.607   1.654   0.028  0.00  0.00     0.025 A 
ATOM      4  C4  <0> d          -2.426   0.938   0.019  0.00  0.00    -0.021 A 
ATOM      5  C5  <0> d          -1.220   1.642   0.017  0.00  0.00     0.141 A 
ATOM      6  N3  <0> d          -1.249   2.971   0.030  0.00  0.00    -0.046 NA
ATOM      7  H5  <0> d          -4.557   1.139   0.029  0.00  0.00     0.115 H 
ATOM      8  H6  <0> d          -2.434  -0.142   0.013  0.00  0.00     0.091 H 
ENDROOT
BRANCH   1   9
ATOM      9  N1  <0> d          -2.400   5.004   0.041  0.00  0.00    -0.227 N 
ATOM     10  H4  <0> d          -1.558   5.487   0.039  0.00  0.00     0.177 HD
BRANCH   9  11
ATOM     11  C1  <0> d          -3.666   5.740   0.051  0.00  0.00    -0.005 C 
ATOM     12  H1  <0> d          -4.243   5.484  -0.838  0.00  0.00     0.057 H 
ATOM     13  H2  <0> d          -4.234   5.474   0.942  0.00  0.00     0.057 H 
ATOM     14  H3  <0> d          -3.464   6.811   0.055  0.00  0.00     0.057 H 
ENDBRANCH   9  11
ENDBRANCH   1   9
BRANCH   5  15
ATOM     15  N4  <0> d          -0.011   0.966   0.007  0.00  0.00    -0.383 N 
ATOM     16  H7  <0> d           0.002  -0.004   0.002  0.00  0.00     0.157 HD
ATOM     17  H8  <0> d           0.822   1.462   0.002  0.00  0.00     0.157 HD
ENDBRANCH   5  15
TORSDOF 3
