REMARK  2 active torsions:
REMARK  status: ('A' for Active; 'I' for Inactive)
REMARK    1  A    between atoms: C1_1  and  C2_2 
REMARK    2  A    between atoms: C2_2  and  C3_4 
ROOT
ATOM      1  C3  <0> d          -1.262  -0.757   0.010  0.00  0.00     0.140 A 
ATOM      2  C4  <0> d          -1.237  -2.156   0.008  0.00  0.00     0.151 A 
ATOM      3  C5  <0> d          -2.439  -2.851   0.016  0.00  0.00    -0.005 A 
ATOM      4  C6  <0> d          -3.622  -2.126   0.025  0.00  0.00     0.136 A 
ATOM      5  C7  <0> d          -3.570  -0.736   0.026  0.00  0.00     0.040 A 
ATOM      6  N1  <0> d          -2.420  -0.103   0.025  0.00  0.00    -0.251 NA
ATOM      7  F1  <0> d          -4.812  -2.765   0.032  0.00  0.00    -0.204 F 
ATOM      8  F2  <0> d          -0.061  -2.821  -0.002  0.00  0.00    -0.203 F 
ATOM      9  H4  <0> d          -2.452  -3.931   0.014  0.00  0.00     0.093 H 
ATOM     10  H5  <0> d          -4.490  -0.170   0.034  0.00  0.00     0.119 H 
ENDROOT
BRANCH   1  11
ATOM     11  C2  <0> d           0.002  -0.004   0.002  0.00  0.00     0.177 C 
ATOM     12  O1  <0> d           1.060  -0.596  -0.011  0.00  0.00    -0.291 OA
BRANCH  11  13
ATOM     13  C1  <0> d          -0.018   1.503   0.010  0.00  0.00    -0.015 C 
ATOM     14  H1  <0> d           1.004   1.880   0.003  0.00  0.00     0.038 H 
ATOM     15  H2  <0> d          -0.545   1.864  -0.873  0.00  0.00     0.038 H 
ATOM     16  H3  <0> d          -0.529   1.854   0.907  0.00  0.00     0.038 H 
ENDBRANCH  11  13
ENDBRANCH   1  11
TORSDOF 2
