REMARK  3 active torsions:
REMARK  status: ('A' for Active; 'I' for Inactive)
REMARK    1  A    between atoms: C1_1  and  C2_2 
REMARK    2  A    between atoms: C1_1  and  C4_8 
REMARK    3  A    between atoms: C3_3  and  N3_7 
REMARK       I    between atoms: C4_8  and  N4_10 
ROOT
ATOM      1  C2  <0> d          -2.549   1.028   0.020  0.00  0.00     0.120 A 
ATOM      2  C3  <0> d          -1.225   1.645   0.017  0.00  0.00     0.178 A 
ATOM      3  N1  <0> d          -1.375   2.942   0.030  0.00  0.00    -0.085 NA
ATOM      4  O1  <0> d          -2.765   3.215   0.033  0.00  0.00    -0.105 OA
ATOM      5  N2  <0> d          -3.443   1.970   0.030  0.00  0.00    -0.105 NA
ENDROOT
BRANCH   1   6
ATOM      6  C1  <0> d          -2.831  -0.452   0.012  0.00  0.00     0.055 C 
ATOM      7  H1  <0> d          -3.776  -0.639  -0.498  0.00  0.00     0.057 H 
ATOM      8  H2  <0> d          -2.027  -0.972  -0.509  0.00  0.00     0.057 H 
BRANCH   6   9
ATOM      9  C4  <0> d          -2.918  -0.954   1.430  0.00  0.00     0.221 C 
ATOM     10  O2  <0> d          -2.766  -0.186   2.356  0.00  0.00    -0.273 OA
ATOM     11  N4  <0> d          -3.164  -2.257   1.670  0.00  0.00    -0.370 N 
ATOM     12  H5  <0> d          -3.286  -2.872   0.929  0.00  0.00     0.159 HD
ATOM     13  H6  <0> d          -3.220  -2.581   2.583  0.00  0.00     0.159 HD
ENDBRANCH   6   9
ENDBRANCH   1   6
BRANCH   2  14
ATOM     14  N3  <0> d          -0.011   0.966   0.007  0.00  0.00    -0.380 N 
ATOM     15  H3  <0> d           0.002  -0.004   0.002  0.00  0.00     0.157 HD
ATOM     16  H4  <0> d           0.822   1.462   0.002  0.00  0.00     0.157 HD
ENDBRANCH   2  14
TORSDOF 3
