REMARK  2 active torsions:
REMARK  status: ('A' for Active; 'I' for Inactive)
REMARK    1  A    between atoms: C3_3  and  C7_8 
REMARK    2  A    between atoms: C5_5  and  N1_7 
ROOT
ATOM      1  C1  <0> d          -0.017   1.378   0.010  0.00  0.00    -0.080 A 
ATOM      2  C2  <0> d           1.166   2.089   0.002  0.00  0.00    -0.066 A 
ATOM      3  C3  <0> d           2.388   1.412  -0.013  0.00  0.00     0.043 A 
ATOM      4  C4  <0> d           2.406   0.016  -0.021  0.00  0.00    -0.041 A 
ATOM      5  C5  <0> d           1.212  -0.688  -0.013  0.00  0.00     0.026 A 
ATOM      6  C6  <0> d           0.002  -0.004   0.002  0.00  0.00    -0.058 A 
ATOM      7  H1  <0> d          -0.960   1.903   0.026  0.00  0.00     0.083 H 
ATOM      8  H2  <0> d           1.147   3.169   0.008  0.00  0.00     0.085 H 
ATOM      9  H3  <0> d           3.348  -0.513  -0.033  0.00  0.00     0.088 H 
ATOM     10  H4  <0> d          -0.927  -0.555   0.008  0.00  0.00     0.086 H 
ENDROOT
BRANCH   3  11
ATOM     11  C7  <0> d           3.654   2.170  -0.022  0.00  0.00     0.209 C 
ATOM     12  O1  <0> d           3.635   3.392  -0.015  0.00  0.00    -0.644 OA
ATOM     13  O2  <0> d           4.722   1.575  -0.035  0.00  0.00    -0.644 OA
ENDBRANCH   3  11
BRANCH   5  14
ATOM     14  N1  <0> d           1.225  -2.085  -0.021  0.00  0.00    -0.399 N 
ATOM     15  H5  <0> d           2.070  -2.562  -0.032  0.00  0.00     0.156 HD
ATOM     16  H6  <0> d           0.390  -2.578  -0.016  0.00  0.00     0.156 HD
ENDBRANCH   5  14
TORSDOF 2
