REMARK  2 active torsions:
REMARK  status: ('A' for Active; 'I' for Inactive)
REMARK    1  A    between atoms: C6_8  and  O2_13 
REMARK    2  A    between atoms: C7_10  and  O1_12 
ROOT
ATOM      1  C1  <0> d           1.103   3.215   0.520  0.00  0.00    -0.059 C 
ATOM      2  C2  <0> d           1.380   1.786  -0.002  0.00  0.00    -0.059 C 
ATOM      3  C3  <0> d          -0.013   1.086   0.008  0.00  0.00    -0.026 C 
ATOM      4  H1  <0> d           0.014  -0.013  -0.035  0.00  0.00     0.044 H 
ATOM      5  C4  <0> d          -0.670   1.764   1.262  0.00  0.00    -0.054 C 
ATOM      6  C5  <0> d          -0.432   3.243   0.795  0.00  0.00    -0.026 C 
ATOM      7  H2  <0> d          -0.774   4.062   1.444  0.00  0.00     0.044 H 
ATOM      8  C6  <0> d          -1.083   3.207  -0.621  0.00  0.00     0.064 C 
ATOM      9  H3  <0> d          -2.142   3.505  -0.640  0.00  0.00     0.087 H 
ATOM     10  C7  <0> d          -0.798   1.763  -1.156  0.00  0.00     0.064 C 
ATOM     11  H4  <0> d          -1.682   1.210  -1.507  0.00  0.00     0.087 H 
ATOM     12  H5  <0> d           1.355   3.980  -0.230  0.00  0.00     0.033 H 
ATOM     13  H6  <0> d           1.647   3.423   1.453  0.00  0.00     0.033 H 
ATOM     14  H7  <0> d           1.803   1.842  -1.015  0.00  0.00     0.033 H 
ATOM     15  H8  <0> d           2.095   1.285   0.667  0.00  0.00     0.033 H 
ATOM     16  H9  <0> d          -1.722   1.451   1.339  0.00  0.00     0.034 H 
ATOM     17  H10 <0> d          -0.129   1.457   2.170  0.00  0.00     0.034 H 
ENDROOT
BRANCH   8  18
ATOM     18  O2  <0> d          -0.474   4.178  -1.475  0.00  0.00    -0.393 OA
ATOM     19  H12 <0> d          -0.816   4.287  -2.515  0.00  0.00     0.210 HD
ENDBRANCH   8  18
BRANCH  10  20
ATOM     20  O1  <0> d           0.005   1.814  -2.337  0.00  0.00    -0.393 OA
ATOM     21  H11 <0> d          -0.397   2.262  -3.257  0.00  0.00     0.210 HD
ENDBRANCH  10  20
TORSDOF 2
