REMARK  2 active torsions:
REMARK  status: ('A' for Active; 'I' for Inactive)
REMARK    1  A    between atoms: C1_1  and  C2_2 
REMARK    2  A    between atoms: C6_6  and  C8_8 
ROOT
ATOM      1  C8  <0> d           0.050  -2.820   2.420  0.00  0.00    -0.075 C 
ATOM      2  C9  <0> d           0.062  -3.416   3.432  0.00  0.00    -0.149 C 
ATOM      3  H7  <0> d           0.073  -3.948   4.336  0.00  0.00     0.166 H 
ENDROOT
BRANCH   1   4
ATOM      4  C6  <0> d           0.036  -2.093   1.186  0.00  0.00     0.056 A 
ATOM      5  C5  <0> d           0.039  -2.778  -0.032  0.00  0.00     0.135 A 
ATOM      6  C4  <0> d           0.024  -2.070  -1.219  0.00  0.00    -0.044 A 
ATOM      7  F1  <0> d           0.056  -4.129  -0.050  0.00  0.00    -0.205 F 
ATOM      8  C3  <0> d           0.006  -0.687  -1.201  0.00  0.00    -0.074 A 
ATOM      9  H5  <0> d           0.026  -2.597  -2.162  0.00  0.00     0.088 H 
ATOM     10  C2  <0> d           0.002  -0.004   0.002  0.00  0.00    -0.060 A 
ATOM     11  H4  <0> d          -0.006  -0.138  -2.131  0.00  0.00     0.084 H 
ATOM     12  C7  <0> d           0.023  -0.698   1.194  0.00  0.00    -0.056 A 
ATOM     13  H6  <0> d           0.024  -0.163   2.132  0.00  0.00     0.086 H 
BRANCH  10  14
ATOM     14  C1  <0> d          -0.018   1.503   0.010  0.00  0.00    -0.051 C 
ATOM     15  H1  <0> d           1.004   1.880   0.003  0.00  0.00     0.033 H 
ATOM     16  H2  <0> d          -0.545   1.864  -0.873  0.00  0.00     0.033 H 
ATOM     17  H3  <0> d          -0.529   1.854   0.907  0.00  0.00     0.033 H 
ENDBRANCH  10  14
ENDBRANCH   1   4
TORSDOF 2
