REMARK  2 active torsions:
REMARK  status: ('A' for Active; 'I' for Inactive)
REMARK    1  A    between atoms: C2_2  and  C4_7 
REMARK    2  A    between atoms: C3_5  and  N2_6 
ROOT
ATOM      1  C4  <0> d          -1.367   4.779   0.039  0.00  0.00    -0.009 C 
ATOM      2  C5  <0> d          -2.674   4.599   0.837  0.00  0.00    -0.056 C 
ATOM      3  C6  <0> d          -3.712   5.447   0.060  0.00  0.00    -0.064 C 
ATOM      4  C7  <0> d          -3.316   5.204  -1.418  0.00  0.00    -0.064 C 
ATOM      5  C8  <0> d          -1.774   5.163  -1.394  0.00  0.00    -0.056 C 
ATOM      6  H4  <0> d          -0.711   5.537   0.492  0.00  0.00     0.049 H 
ATOM      7  H5  <0> d          -2.946   3.533   0.861  0.00  0.00     0.034 H 
ATOM      8  H6  <0> d          -2.530   4.964   1.865  0.00  0.00     0.034 H 
ATOM      9  H7  <0> d          -4.726   5.089   0.292  0.00  0.00     0.033 H 
ATOM     10  H8  <0> d          -3.620   6.502   0.356  0.00  0.00     0.033 H 
ATOM     11  H9  <0> d          -3.749   4.252  -1.761  0.00  0.00     0.033 H 
ATOM     12  H10 <0> d          -3.698   6.026  -2.040  0.00  0.00     0.033 H 
ATOM     13  H11 <0> d          -1.352   6.148  -1.644  0.00  0.00     0.034 H 
ATOM     14  H12 <0> d          -1.391   4.411  -2.099  0.00  0.00     0.034 H 
ENDROOT
BRANCH   1  15
ATOM     15  C2  <0> d          -0.589   3.488   0.026  0.00  0.00     0.070 A 
ATOM     16  C1  <0> d          -1.121   2.184   0.018  0.00  0.00    -0.006 A 
ATOM     17  C3  <0> d          -0.017   1.378   0.010  0.00  0.00     0.168 A 
ATOM     18  H1  <0> d          -2.160   1.889   0.021  0.00  0.00     0.093 H 
ATOM     19  O1  <0> d           1.046   2.199   0.004  0.00  0.00    -0.196 OA
ATOM     20  N1  <0> d           0.709   3.360   0.013  0.00  0.00    -0.131 NA
BRANCH  17  21
ATOM     21  N2  <0> d           0.002  -0.004   0.002  0.00  0.00    -0.378 N 
ATOM     22  H2  <0> d           0.962  -0.541  -0.005  0.00  0.00     0.158 HD
ATOM     23  H3  <0> d          -0.943  -0.567   0.003  0.00  0.00     0.158 HD
ENDBRANCH  17  21
ENDBRANCH   1  15
TORSDOF 2
