REMARK  2 active torsions:
REMARK  status: ('A' for Active; 'I' for Inactive)
REMARK    1  A    between atoms: C1_1  and  C2_2 
REMARK    2  A    between atoms: C2_2  and  C3_4 
ROOT
ATOM      1  C3  <0> d          -0.000  -0.735  -1.279  0.00  0.00     0.124 A 
ATOM      2  C4  <0> d           0.013  -2.135  -1.291  0.00  0.00    -0.047 A 
ATOM      3  C5  <0> d           0.010  -2.773  -2.522  0.00  0.00    -0.040 A 
ATOM      4  C6  <0> d          -0.005  -1.987  -3.666  0.00  0.00     0.148 A 
ATOM      5  N1  <0> d          -0.017  -0.667  -3.564  0.00  0.00    -0.137 NA
ATOM      6  N2  <0> d          -0.020  -0.067  -2.429  0.00  0.00    -0.145 NA
ATOM      7 Cl1  <0> d          -0.009  -2.735  -5.232  0.00  0.00    -0.061 Cl
ATOM      8  H4  <0> d           0.025  -2.700  -0.371  0.00  0.00     0.087 H 
ATOM      9  H5  <0> d           0.020  -3.851  -2.589  0.00  0.00     0.088 H 
ENDROOT
BRANCH   1  10
ATOM     10  C2  <0> d           0.002  -0.004   0.002  0.00  0.00     0.175 C 
ATOM     11  O1  <0> d           0.020  -0.616   1.048  0.00  0.00    -0.291 OA
BRANCH  10  12
ATOM     12  C1  <0> d          -0.018   1.503   0.010  0.00  0.00    -0.015 C 
ATOM     13  H1  <0> d           1.004   1.880   0.003  0.00  0.00     0.038 H 
ATOM     14  H2  <0> d          -0.545   1.864  -0.873  0.00  0.00     0.038 H 
ATOM     15  H3  <0> d          -0.529   1.854   0.907  0.00  0.00     0.038 H 
ENDBRANCH  10  12
ENDBRANCH   1  10
TORSDOF 2
