REMARK  1 active torsions:
REMARK  status: ('A' for Active; 'I' for Inactive)
REMARK    1  A    between atoms: C5_6  and  O2_7 
ROOT
ATOM      1  C1  <0> d           1.422   2.047  -0.001  0.00  0.00    -0.021 C 
ATOM      2  C2  <0> d           2.174   1.469   1.202  0.00  0.00     0.022 C 
ATOM      3  O1  <0> d           2.128   0.042   1.149  0.00  0.00    -0.391 OA
ATOM      4  C3  <0> d           0.808  -0.502   1.204  0.00  0.00     0.022 C 
ATOM      5  C4  <0> d           0.002  -0.004   0.002  0.00  0.00    -0.021 C 
ATOM      6  C5  <0> d          -0.019   1.528   0.010  0.00  0.00     0.039 C 
ATOM      7  H1  <0> d           1.915   1.735  -0.922  0.00  0.00     0.040 H 
ATOM      8  H2  <0> d           1.418   3.135   0.061  0.00  0.00     0.040 H 
ATOM      9  H3  <0> d           1.705   1.814   2.123  0.00  0.00     0.074 H 
ATOM     10  H4  <0> d           3.212   1.801   1.175  0.00  0.00     0.074 H 
ATOM     11  H5  <0> d           0.322  -0.183   2.126  0.00  0.00     0.074 H 
ATOM     12  H6  <0> d           0.862  -1.591   1.180  0.00  0.00     0.074 H 
ATOM     13  H7  <0> d          -1.018  -0.383   0.066  0.00  0.00     0.040 H 
ATOM     14  H8  <0> d           0.466  -0.357  -0.919  0.00  0.00     0.040 H 
ATOM     15  H9  <0> d          -0.527   1.880   0.908  0.00  0.00     0.083 H 
ENDROOT
BRANCH   6  16
ATOM     16  O2  <0> d          -0.707   2.003  -1.148  0.00  0.00    -0.395 OA
ATOM     17  H10 <0> d          -0.758   2.966  -1.208  0.00  0.00     0.210 HD
ENDBRANCH   6  16
TORSDOF 1
