REMARK  4 active torsions:
REMARK  status: ('A' for Active; 'I' for Inactive)
REMARK    1  A    between atoms: C1_1  and  C2_2 
REMARK    2  A    between atoms: C2_2  and  N1_3 
REMARK    3  A    between atoms: N1_3  and  C3_4 
REMARK    4  A    between atoms: C6_7  and  N2_10 
ROOT
ATOM      1  C3  <0> d           1.214  -0.682  -0.013  0.00  0.00     0.028 A 
ATOM      2  C4  <0> d           0.002  -0.004   0.002  0.00  0.00    -0.055 A 
ATOM      3  C5  <0> d          -0.017   1.377   0.010  0.00  0.00    -0.056 A 
ATOM      4  C6  <0> d           1.176   2.087   0.002  0.00  0.00     0.025 A 
ATOM      5  C7  <0> d           2.388   1.409  -0.013  0.00  0.00    -0.056 A 
ATOM      6  C8  <0> d           2.407   0.029  -0.021  0.00  0.00    -0.055 A 
ATOM      7  H7  <0> d          -0.926  -0.557   0.008  0.00  0.00     0.087 H 
ATOM      8  H8  <0> d          -0.959   1.904   0.017  0.00  0.00     0.087 H 
ATOM      9  H9  <0> d           3.316   1.962  -0.019  0.00  0.00     0.087 H 
ATOM     10  H10 <0> d           3.349  -0.498  -0.032  0.00  0.00     0.087 H 
ENDROOT
BRANCH   1  11
ATOM     11  N1  <0> d           1.233  -2.082  -0.021  0.00  0.00    -0.390 N 
ATOM     12  H6  <0> d           0.288  -2.645  -0.014  0.00  0.00     0.159 HD
BRANCH  11  13
ATOM     13  C2  <0> d           2.511  -2.797  -0.037  0.00  0.00    -0.011 C 
ATOM     14  H4  <0> d           3.093  -2.528   0.857  0.00  0.00     0.063 H 
ATOM     15  H5  <0> d           3.076  -2.519  -0.939  0.00  0.00     0.063 H 
BRANCH  13  16
ATOM     16  C1  <0> d           2.252  -4.305  -0.042  0.00  0.00    -0.061 C 
ATOM     17  H1  <0> d           3.212  -4.842  -0.054  0.00  0.00     0.029 H 
ATOM     18  H2  <0> d           1.670  -4.574  -0.935  0.00  0.00     0.029 H 
ATOM     19  H3  <0> d           1.688  -4.583   0.861  0.00  0.00     0.029 H 
ENDBRANCH  13  16
ENDBRANCH  11  13
ENDBRANCH   1  11
BRANCH   4  20
ATOM     20  N2  <0> d           1.157   3.487   0.009  0.00  0.00    -0.399 N 
ATOM     21  H11 <0> d           2.102   4.050   0.003  0.00  0.00     0.156 HD
ATOM     22  H12 <0> d           0.197   4.024   0.021  0.00  0.00     0.156 HD
ENDBRANCH   4  20
TORSDOF 4
