REMARK  2 active torsions:
REMARK  status: ('A' for Active; 'I' for Inactive)
REMARK    1  A    between atoms: C1_1  and  C2_2 
REMARK    2  A    between atoms: C4_4  and  C5_7 
ROOT
ATOM      1  C5  <0> d           0.002  -0.004   0.002  0.00  0.00    -0.005 A 
ATOM      2  C6  <0> d          -0.017   1.389   0.010  0.00  0.00    -0.071 A 
ATOM      3  C7  <0> d           1.170   2.093   0.002  0.00  0.00    -0.082 A 
ATOM      4  C8  <0> d           2.377   1.418  -0.013  0.00  0.00    -0.083 A 
ATOM      5  C9  <0> d           2.402   0.035  -0.021  0.00  0.00    -0.082 A 
ATOM      6  C10 <0> d           1.221  -0.679  -0.013  0.00  0.00    -0.071 A 
ATOM      7  H5  <0> d          -0.959   1.917   0.017  0.00  0.00     0.084 H 
ATOM      8  H6  <0> d           1.157   3.173   0.008  0.00  0.00     0.083 H 
ATOM      9  H7  <0> d           3.304   1.972  -0.020  0.00  0.00     0.083 H 
ATOM     10  H8  <0> d           3.347  -0.488  -0.033  0.00  0.00     0.083 H 
ATOM     11  H9  <0> d           1.241  -1.759  -0.019  0.00  0.00     0.084 H 
ENDROOT
BRANCH   1  12
ATOM     12  C4  <0> d          -1.272  -0.766   0.011  0.00  0.00     0.097 A 
ATOM     13  C3  <0> d          -1.421  -2.181  -0.001  0.00  0.00    -0.022 A 
ATOM     14  C2  <0> d          -2.761  -2.367   0.016  0.00  0.00     0.077 A 
ATOM     15  H4  <0> d          -0.645  -2.932  -0.018  0.00  0.00     0.091 H 
ATOM     16  O1  <0> d          -3.318  -1.148   0.028  0.00  0.00    -0.218 OA
ATOM     17  N1  <0> d          -2.485  -0.272   0.025  0.00  0.00    -0.128 NA
BRANCH  14  18
ATOM     18  C1  <0> d          -3.486  -3.688   0.016  0.00  0.00    -0.029 C 
ATOM     19  H1  <0> d          -4.562  -3.512   0.027  0.00  0.00     0.036 H 
ATOM     20  H2  <0> d          -3.219  -4.249  -0.880  0.00  0.00     0.036 H 
ATOM     21  H3  <0> d          -3.202  -4.259   0.900  0.00  0.00     0.036 H 
ENDBRANCH  14  18
ENDBRANCH   1  12
TORSDOF 2
