REMARK  8 active torsions:
REMARK  status: ('A' for Active; 'I' for Inactive)
REMARK    1  A    between atoms: C1_1  and  C2_2 
REMARK    2  A    between atoms: C2_2  and  C3_3 
REMARK    3  A    between atoms: C3_3  and  C4_4 
REMARK    4  A    between atoms: C4_4  and  C5_6 
REMARK    5  A    between atoms: C4_4  and  O1_10 
REMARK    6  A    between atoms: C5_6  and  C6_7 
REMARK    7  A    between atoms: C5_6  and  C7_8 
REMARK    8  A    between atoms: C5_6  and  C8_9 
ROOT
ATOM      1  C4  <0> d          -0.013   1.086   0.008  0.00  0.00     0.042 C 
ATOM      2  H1  <0> d           0.002  -0.004   0.002  0.00  0.00     0.084 H 
ENDROOT
BRANCH   1   3
ATOM      3  C3  <0> d           1.423   1.615  -0.003  0.00  0.00    -0.041 C 
ATOM      4  H7  <0> d           1.408   2.702  -0.086  0.00  0.00     0.036 H 
ATOM      5  H8  <0> d           1.923   1.329   0.922  0.00  0.00     0.036 H 
BRANCH   3   6
ATOM      6  C2  <0> d           2.176   1.022  -1.195  0.00  0.00    -0.066 C 
ATOM      7  H5  <0> d           2.191  -0.065  -1.111  0.00  0.00     0.032 H 
ATOM      8  H6  <0> d           1.676   1.309  -2.120  0.00  0.00     0.032 H 
BRANCH   6   9
ATOM      9  C1  <0> d           3.612   1.552  -1.206  0.00  0.00    -0.076 C 
ATOM     10  H2  <0> d           4.112   1.265  -0.281  0.00  0.00     0.027 H 
ATOM     11  H3  <0> d           4.148   1.129  -2.055  0.00  0.00     0.027 H 
ATOM     12  H4  <0> d           3.597   2.638  -1.289  0.00  0.00     0.027 H 
ENDBRANCH   6   9
ENDBRANCH   3   6
ENDBRANCH   1   3
BRANCH   1  13
ATOM     13  C5  <0> d          -0.729   1.579   1.267  0.00  0.00    -0.025 C 
BRANCH  13  14
ATOM     14  C6  <0> d          -0.750   3.109   1.275  0.00  0.00    -0.067 C 
ATOM     15  H9  <0> d          -1.277   3.470   0.392  0.00  0.00     0.028 H 
ATOM     16  H10 <0> d          -1.260   3.461   2.172  0.00  0.00     0.028 H 
ATOM     17  H11 <0> d           0.273   3.486   1.268  0.00  0.00     0.028 H 
ENDBRANCH  13  14
BRANCH  13  18
ATOM     18  C7  <0> d          -2.164   1.050   1.278  0.00  0.00    -0.067 C 
ATOM     19  H12 <0> d          -2.149  -0.040   1.272  0.00  0.00     0.028 H 
ATOM     20  H13 <0> d          -2.674   1.401   2.175  0.00  0.00     0.028 H 
ATOM     21  H14 <0> d          -2.691   1.411   0.395  0.00  0.00     0.028 H 
ENDBRANCH  13  18
BRANCH  13  22
ATOM     22  C8  <0> d           0.011   1.072   2.506  0.00  0.00    -0.067 C 
ATOM     23  H15 <0> d           1.034   1.450   2.499  0.00  0.00     0.028 H 
ATOM     24  H16 <0> d          -0.499   1.424   3.403  0.00  0.00     0.028 H 
ATOM     25  H17 <0> d           0.026  -0.018   2.500  0.00  0.00     0.028 H 
ENDBRANCH  13  22
ENDBRANCH   1  13
BRANCH   1  26
ATOM     26  O1  <0> d          -0.704   1.559  -1.150  0.00  0.00    -0.395 OA
ATOM     27  H18 <0> d          -0.756   2.523  -1.210  0.00  0.00     0.210 HD
ENDBRANCH   1  26
TORSDOF 8
