REMARK  3 active torsions:
REMARK  status: ('A' for Active; 'I' for Inactive)
REMARK    1  A    between atoms: C1_1  and  N1_2 
REMARK    2  A    between atoms: C3_6  and  S1_7 
REMARK    3  A    between atoms: S1_7  and  C4_8 
ROOT
ATOM      1  C4  <0> d           0.174   5.878   0.032  0.00  0.00     0.063 C 
ATOM      2  C5  <0> d           0.740   7.237   0.035  0.00  0.00     0.069 C 
ATOM      3  N4  <0> d           1.177   8.286   0.036  0.00  0.00    -0.197 NA
ATOM      4  H5  <0> d          -0.449   5.746  -0.853  0.00  0.00     0.071 H 
ATOM      5  H6  <0> d          -0.432   5.736   0.927  0.00  0.00     0.071 H 
ENDROOT
BRANCH   1   6
ATOM      6  S1  <0> d           1.516   4.665   0.013  0.00  0.00    -0.076 SA
BRANCH   6   7
ATOM      7  C3  <0> d           0.580   3.172   0.014  0.00  0.00     0.191 A 
ATOM      8  N1  <0> d           1.078   1.901   0.002  0.00  0.00    -0.322 N 
ATOM      9  C2  <0> d          -0.013   1.076   0.008  0.00  0.00     0.089 A 
ATOM     10  N2  <0> d          -1.073   1.834   0.017  0.00  0.00    -0.143 NA
ATOM     11  H4  <0> d           0.002  -0.004   0.002  0.00  0.00     0.146 H 
ATOM     12  N3  <0> d          -0.729   3.072   0.025  0.00  0.00    -0.123 NA
BRANCH   8  13
ATOM     13  C1  <0> d           2.488   1.504  -0.014  0.00  0.00    -0.011 C 
ATOM     14  H1  <0> d           2.828   1.410  -1.045  0.00  0.00     0.057 H 
ATOM     15  H2  <0> d           3.084   2.259   0.498  0.00  0.00     0.057 H 
ATOM     16  H3  <0> d           2.601   0.546   0.494  0.00  0.00     0.057 H 
ENDBRANCH   8  13
ENDBRANCH   6   7
ENDBRANCH   1   6
TORSDOF 3
