REMARK  3 active torsions:
REMARK  status: ('A' for Active; 'I' for Inactive)
REMARK    1  A    between atoms: C4_4  and  C7_7 
REMARK    2  A    between atoms: C7_7  and  C8_9 
REMARK    3  A    between atoms: C8_9  and  C9_10 
ROOT
ATOM      1  C9  <0> d          -0.993  -2.276  -0.001  0.00  0.00     0.021 C 
ATOM      2  C10 <0> d          -2.257  -3.029   0.007  0.00  0.00     0.059 C 
ATOM      3  N1  <0> d          -3.233  -3.610   0.013  0.00  0.00    -0.197 NA
ATOM      4  H8  <0> d          -0.426  -2.526  -0.897  0.00  0.00     0.055 H 
ATOM      5  H9  <0> d          -0.409  -2.536   0.882  0.00  0.00     0.055 H 
ENDROOT
BRANCH   1   6
ATOM      6  C8  <0> d          -1.293  -0.775   0.010  0.00  0.00     0.006 C 
ATOM      7  H6  <0> d          -1.812  -0.545   0.833  0.00  0.00     0.046 H 
ATOM      8  H7  <0> d          -1.876  -0.515  -0.873  0.00  0.00     0.046 H 
BRANCH   6   9
ATOM      9  C7  <0> d           0.002  -0.004   0.002  0.00  0.00     0.160 C 
ATOM     10  O1  <0> d           1.060  -0.596  -0.011  0.00  0.00    -0.292 OA
BRANCH   9  11
ATOM     11  C4  <0> d          -0.018   1.467   0.010  0.00  0.00     0.010 A 
ATOM     12  C3  <0> d           1.181   2.187   0.003  0.00  0.00    -0.070 A 
ATOM     13  C2  <0> d           1.154   3.565   0.010  0.00  0.00    -0.082 A 
ATOM     14  H3  <0> d           2.126   1.664  -0.009  0.00  0.00     0.085 H 
ATOM     15  C1  <0> d          -0.056   4.237   0.025  0.00  0.00    -0.083 A 
ATOM     16  H2  <0> d           2.080   4.122   0.004  0.00  0.00     0.083 H 
ATOM     17  C6  <0> d          -1.247   3.533   0.032  0.00  0.00    -0.082 A 
ATOM     18  H1  <0> d          -0.070   5.317   0.031  0.00  0.00     0.083 H 
ATOM     19  C5  <0> d          -1.236   2.154   0.020  0.00  0.00    -0.070 A 
ATOM     20  H5  <0> d          -2.187   4.064   0.043  0.00  0.00     0.083 H 
ATOM     21  H4  <0> d          -2.167   1.605   0.021  0.00  0.00     0.085 H 
ENDBRANCH   9  11
ENDBRANCH   6   9
ENDBRANCH   1   6
TORSDOF 3
