REMARK  2 active torsions:
REMARK  status: ('A' for Active; 'I' for Inactive)
REMARK    1  A    between atoms: C2_2  and  C4_7 
REMARK    2  A    between atoms: C4_7  and  O1_8 
ROOT
ATOM      1  C1  <0> d          -0.017   1.365   0.009  0.00  0.00     0.004 A 
ATOM      2  C2  <0> d           1.267   1.772  -0.001  0.00  0.00     0.074 A 
ATOM      3  N1  <0> d           2.048   0.681  -0.014  0.00  0.00    -0.245 NA
ATOM      4  C3  <0> d           1.297  -0.386  -0.012  0.00  0.00     0.064 A 
ATOM      5  N2  <0> d           0.002  -0.004   0.002  0.00  0.00    -0.359 N 
ATOM      6  H1  <0> d          -0.771  -0.590   0.006  0.00  0.00     0.166 HD
ATOM      7  H2  <0> d          -0.892   1.996   0.025  0.00  0.00     0.114 H 
ATOM      8  H3  <0> d           1.653  -1.406  -0.022  0.00  0.00     0.143 H 
ENDROOT
BRANCH   2   9
ATOM      9  C4  <0> d           1.743   3.202   0.003  0.00  0.00     0.058 C 
ATOM     10  H4  <0> d           2.353   3.380   0.888  0.00  0.00     0.083 H 
ATOM     11  H5  <0> d           2.336   3.389  -0.892  0.00  0.00     0.083 H 
BRANCH   9  12
ATOM     12  O1  <0> d           0.615   4.079   0.018  0.00  0.00    -0.395 OA
ATOM     13  H6  <0> d           0.846   5.018   0.021  0.00  0.00     0.209 HD
ENDBRANCH   9  12
ENDBRANCH   2   9
TORSDOF 2
