REMARK  4 active torsions:
REMARK  status: ('A' for Active; 'I' for Inactive)
REMARK    1  A    between atoms: C1_1  and  C2_2 
REMARK    2  A    between atoms: C7_9  and  C8_11 
REMARK    3  A    between atoms: C8_11  and  O2_12 
REMARK    4  A    between atoms: O2_12  and  C9_13 
ROOT
ATOM      1  C2  <0> d           0.002  -0.004   0.002  0.00  0.00    -0.046 C 
ATOM      2  H1  <0> d          -1.020  -0.382   0.010  0.00  0.00     0.040 H 
ATOM      3  C3  <0> d           0.719  -0.498  -1.256  0.00  0.00    -0.061 C 
ATOM      4  C4  <0> d           0.666  -2.025  -1.317  0.00  0.00    -0.059 C 
ATOM      5  C5  <0> d           1.433  -2.609  -0.126  0.00  0.00    -0.009 C 
ATOM      6  C6  <0> d           0.869  -2.016   1.147  0.00  0.00     0.133 C 
ATOM      7  O1  <0> d           0.527  -2.726   2.062  0.00  0.00    -0.297 OA
ATOM      8  C7  <0> d           0.744  -0.512   1.243  0.00  0.00     0.027 C 
ATOM      9  H2  <0> d           1.651  -0.094   1.283  0.00  0.00     0.055 H 
ATOM     10  H6  <0> d           0.230  -0.083  -2.138  0.00  0.00     0.033 H 
ATOM     11  H7  <0> d           1.758  -0.172  -1.232  0.00  0.00     0.033 H 
ATOM     12  H8  <0> d           1.122  -2.368  -2.246  0.00  0.00     0.033 H 
ATOM     13  H9  <0> d          -0.372  -2.355  -1.278  0.00  0.00     0.033 H 
ATOM     14  H10 <0> d           2.403  -2.380  -0.209  0.00  0.00     0.044 H 
ATOM     15  H11 <0> d           1.317  -3.693  -0.108  0.00  0.00     0.044 H 
ENDROOT
BRANCH   8  16
ATOM     16  C8  <0> d          -0.045  -0.141   2.501  0.00  0.00     0.029 C 
ATOM     17  H12 <0> d          -0.225   0.934   2.513  0.00  0.00     0.075 H 
ATOM     18  H13 <0> d          -0.999  -0.669   2.500  0.00  0.00     0.075 H 
BRANCH  16  19
ATOM     19  O2  <0> d           0.704  -0.512   3.659  0.00  0.00    -0.395 OA
BRANCH  19  20
ATOM     20  C9  <0> d           0.053  -0.208   4.894  0.00  0.00     0.004 C 
ATOM     21  H14 <0> d           0.686  -0.520   5.725  0.00  0.00     0.066 H 
ATOM     22  H15 <0> d          -0.124   0.865   4.957  0.00  0.00     0.066 H 
ATOM     23  H16 <0> d          -0.898  -0.738   4.944  0.00  0.00     0.066 H 
ENDBRANCH  19  20
ENDBRANCH  16  19
ENDBRANCH   8  16
BRANCH   1  24
ATOM     24  C1  <0> d          -0.019   1.526   0.010  0.00  0.00    -0.072 C 
ATOM     25  H3  <0> d           1.004   1.903   0.003  0.00  0.00     0.028 H 
ATOM     26  H4  <0> d          -0.546   1.887  -0.873  0.00  0.00     0.028 H 
ATOM     27  H5  <0> d          -0.529   1.877   0.907  0.00  0.00     0.028 H 
ENDBRANCH   1  24
TORSDOF 4
