REMARK  6 active torsions:
REMARK  status: ('A' for Active; 'I' for Inactive)
REMARK    1  A    between atoms: C1_1  and  C2_2 
REMARK    2  A    between atoms: C2_2  and  C3_3 
REMARK    3  A    between atoms: C3_3  and  C4_5 
REMARK    4  A    between atoms: C3_3  and  O1_6 
REMARK    5  A    between atoms: O1_6  and  C5_7 
REMARK    6  A    between atoms: C5_7  and  C6_8 
ROOT
ATOM      1  C6  <0> d          -0.148   0.493  -4.746  0.00  0.00     0.034 C 
ATOM      2  C7  <0> d           0.671   0.723  -5.947  0.00  0.00     0.061 C 
ATOM      3  N1  <0> d           1.303   0.900  -6.874  0.00  0.00    -0.197 NA
ATOM      4  H12 <0> d          -0.859  -0.310  -4.939  0.00  0.00     0.058 H 
ATOM      5  H13 <0> d          -0.689   1.405  -4.495  0.00  0.00     0.058 H 
ENDROOT
BRANCH   1   6
ATOM      6  C5  <0> d           0.759   0.100  -3.578  0.00  0.00     0.031 C 
ATOM      7  H10 <0> d           1.471   0.903  -3.384  0.00  0.00     0.075 H 
ATOM      8  H11 <0> d           1.300  -0.812  -3.829  0.00  0.00     0.075 H 
BRANCH   6   9
ATOM      9  O1  <0> d          -0.036  -0.123  -2.412  0.00  0.00    -0.385 OA
BRANCH   9  10
ATOM     10  C3  <0> d           0.718  -0.497  -1.257  0.00  0.00     0.034 C 
ATOM     11  H1  <0> d           1.710  -0.049  -1.310  0.00  0.00     0.082 H 
BRANCH  10  12
ATOM     12  C2  <0> d           0.002  -0.004   0.002  0.00  0.00    -0.044 C 
ATOM     13  H5  <0> d           0.529  -0.365   0.885  0.00  0.00     0.036 H 
ATOM     14  H6  <0> d          -1.020  -0.381   0.010  0.00  0.00     0.036 H 
BRANCH  12  15
ATOM     15  C1  <0> d          -0.019   1.526   0.010  0.00  0.00    -0.074 C 
ATOM     16  H2  <0> d           1.004   1.903   0.003  0.00  0.00     0.027 H 
ATOM     17  H3  <0> d          -0.546   1.887  -0.873  0.00  0.00     0.027 H 
ATOM     18  H4  <0> d          -0.529   1.877   0.907  0.00  0.00     0.027 H 
ENDBRANCH  12  15
ENDBRANCH  10  12
BRANCH  10  19
ATOM     19  C4  <0> d           0.849  -2.021  -1.205  0.00  0.00    -0.052 C 
ATOM     20  H7  <0> d          -0.143  -2.469  -1.152  0.00  0.00     0.030 H 
ATOM     21  H8  <0> d           1.359  -2.373  -2.102  0.00  0.00     0.030 H 
ATOM     22  H9  <0> d           1.425  -2.306  -0.324  0.00  0.00     0.030 H 
ENDBRANCH  10  19
ENDBRANCH   9  10
ENDBRANCH   6   9
ENDBRANCH   1   6
TORSDOF 6
