REMARK  6 active torsions:
REMARK  status: ('A' for Active; 'I' for Inactive)
REMARK    1  A    between atoms: C1_1  and  C2_2 
REMARK    2  A    between atoms: N2_5  and  C5_8 
REMARK    3  A    between atoms: C4_6  and  N3_7 
REMARK    4  A    between atoms: C5_8  and  C6_9 
REMARK    5  A    between atoms: C6_9  and  C7_10 
REMARK    6  A    between atoms: C6_9  and  C8_11 
ROOT
ATOM      1  C2  <0> d          -0.017   1.393   0.010  0.00  0.00     0.002 A 
ATOM      2  C3  <0> d           0.002  -0.004   0.002  0.00  0.00     0.031 A 
ATOM      3  N1  <0> d           1.250  -0.399  -0.012  0.00  0.00    -0.183 NA
ATOM      4  N2  <0> d           2.071   0.736  -0.014  0.00  0.00    -0.254 N 
ATOM      5  C4  <0> d           1.274   1.828  -0.000  0.00  0.00     0.125 A 
ATOM      6  H4  <0> d          -0.865  -0.648   0.007  0.00  0.00     0.118 H 
ENDROOT
BRANCH   4   7
ATOM      7  C5  <0> d           3.536   0.738  -0.027  0.00  0.00     0.021 C 
ATOM      8  H7  <0> d           3.903   1.627   0.487  0.00  0.00     0.068 H 
ATOM      9  H8  <0> d           3.906  -0.153   0.479  0.00  0.00     0.068 H 
BRANCH   7  10
ATOM     10  C6  <0> d           4.033   0.746  -1.474  0.00  0.00    -0.044 C 
ATOM     11  H9  <0> d           3.595  -0.094  -2.013  0.00  0.00     0.041 H 
BRANCH  10  12
ATOM     12  C7  <0> d           3.620   2.056  -2.148  0.00  0.00    -0.072 C 
ATOM     13  H10 <0> d           4.058   2.896  -1.609  0.00  0.00     0.028 H 
ATOM     14  H11 <0> d           3.973   2.062  -3.179  0.00  0.00     0.028 H 
ATOM     15  H12 <0> d           2.533   2.143  -2.137  0.00  0.00     0.028 H 
ENDBRANCH  10  12
BRANCH  10  16
ATOM     16  C8  <0> d           5.558   0.623  -1.491  0.00  0.00    -0.072 C 
ATOM     17  H13 <0> d           5.853  -0.310  -1.011  0.00  0.00     0.028 H 
ATOM     18  H14 <0> d           5.912   0.629  -2.522  0.00  0.00     0.028 H 
ATOM     19  H15 <0> d           5.996   1.464  -0.952  0.00  0.00     0.028 H 
ENDBRANCH  10  16
ENDBRANCH   7  10
ENDBRANCH   4   7
BRANCH   5  20
ATOM     20  N3  <0> d           1.695   3.154   0.002  0.00  0.00    -0.384 N 
ATOM     21  H5  <0> d           1.042   3.871   0.013  0.00  0.00     0.157 HD
ATOM     22  H6  <0> d           2.643   3.362  -0.006  0.00  0.00     0.157 HD
ENDBRANCH   5  20
BRANCH   1  23
ATOM     23  C1  <0> d          -1.246   2.265   0.021  0.00  0.00    -0.046 C 
ATOM     24  H1  <0> d          -1.538   2.469   1.051  0.00  0.00     0.033 H 
ATOM     25  H2  <0> d          -1.031   3.204  -0.490  0.00  0.00     0.033 H 
ATOM     26  H3  <0> d          -2.060   1.751  -0.492  0.00  0.00     0.033 H 
ENDBRANCH   1  23
TORSDOF 6
