REMARK  1 active torsions:
REMARK  status: ('A' for Active; 'I' for Inactive)
REMARK    1  A    between atoms: C1_1  and  N1_2 
ROOT
ATOM      1  N1  <0> d          -0.721   1.571  -1.179  0.00  0.00    -0.323 N 
ATOM      2  C2  <0> d          -0.029   1.812  -2.347  0.00  0.00    -0.003 A 
ATOM      3  C3  <0> d          -0.640   2.252  -3.442  0.00  0.00    -0.005 A 
ATOM      4  N2  <0> d          -1.998   2.491  -3.467  0.00  0.00    -0.328 N 
ATOM      5  C4  <0> d          -2.739   2.277  -2.359  0.00  0.00     0.313 A 
ATOM      6  C5  <0> d          -2.055   1.778  -1.133  0.00  0.00     0.315 A 
ATOM      7  O1  <0> d          -2.683   1.567  -0.113  0.00  0.00    -0.262 OA
ATOM      8  O2  <0> d          -3.937   2.482  -2.362  0.00  0.00    -0.262 OA
ATOM      9  H4  <0> d           1.037   1.638  -2.372  0.00  0.00     0.113 H 
ATOM     10  H5  <0> d          -0.058   2.428  -4.335  0.00  0.00     0.113 H 
ATOM     11  H6  <0> d          -2.420   2.813  -4.279  0.00  0.00     0.168 HD
ENDROOT
BRANCH   1  12
ATOM     12  C1  <0> d          -0.013   1.086   0.008  0.00  0.00    -0.011 C 
ATOM     13  H1  <0> d           0.002  -0.004   0.002  0.00  0.00     0.057 H 
ATOM     14  H2  <0> d           1.010   1.463   0.000  0.00  0.00     0.057 H 
ATOM     15  H3  <0> d          -0.523   1.437   0.905  0.00  0.00     0.057 H 
ENDBRANCH   1  12
TORSDOF 1
