REMARK  4 active torsions:
REMARK  status: ('A' for Active; 'I' for Inactive)
REMARK    1  A    between atoms: C1_1  and  O1_2 
REMARK    2  A    between atoms: O1_2  and  C2_3 
REMARK    3  A    between atoms: C4_5  and  O3_10 
REMARK    4  A    between atoms: C6_7  and  O2_9 
ROOT
ATOM      1  C2  <0> d           0.606  -0.607  -1.056  0.00  0.00     0.073 A 
ATOM      2  C3  <0> d           1.172   0.162  -2.061  0.00  0.00    -0.019 A 
ATOM      3  C4  <0> d           1.789  -0.454  -3.140  0.00  0.00     0.070 A 
ATOM      4  C5  <0> d           1.839  -1.838  -3.214  0.00  0.00    -0.019 A 
ATOM      5  C6  <0> d           1.272  -2.606  -2.208  0.00  0.00     0.070 A 
ATOM      6  C7  <0> d           0.660  -1.991  -1.127  0.00  0.00    -0.019 A 
ATOM      7  H4  <0> d           1.133   1.239  -2.004  0.00  0.00     0.092 H 
ATOM      8  H5  <0> d           2.318  -2.317  -4.055  0.00  0.00     0.092 H 
ATOM      9  H6  <0> d           0.223  -2.590  -0.341  0.00  0.00     0.092 H 
ENDROOT
BRANCH   1  10
ATOM     10  O1  <0> d           0.002  -0.004   0.002  0.00  0.00    -0.356 OA
BRANCH  10  11
ATOM     11  C1  <0> d          -0.017   1.425   0.010  0.00  0.00     0.010 C 
ATOM     12  H1  <0> d           1.005   1.802   0.002  0.00  0.00     0.066 H 
ATOM     13  H2  <0> d          -0.544   1.786  -0.873  0.00  0.00     0.066 H 
ATOM     14  H3  <0> d          -0.527   1.776   0.907  0.00  0.00     0.066 H 
ENDBRANCH  10  11
ENDBRANCH   1  10
BRANCH   5  15
ATOM     15  O2  <0> d           1.321  -3.962  -2.280  0.00  0.00    -0.361 OA
ATOM     16  H7  <0> d           2.104  -4.351  -1.865  0.00  0.00     0.217 HD
ENDBRANCH   5  15
BRANCH   3  17
ATOM     17  O3  <0> d           2.344   0.299  -4.126  0.00  0.00    -0.361 OA
ATOM     18  H8  <0> d           3.272   0.522  -3.975  0.00  0.00     0.217 HD
ENDBRANCH   3  17
TORSDOF 4
