REMARK  3 active torsions:
REMARK  status: ('A' for Active; 'I' for Inactive)
REMARK    1  A    between atoms: C1_1  and  C2_2 
REMARK    2  A    between atoms: C2_2  and  C3_3 
REMARK    3  A    between atoms: C3_3  and  N1_4 
ROOT
ATOM      1  N1  <0> d           2.357   0.037  -0.021  0.00  0.00    -0.232 N 
ATOM      2  C4  <0> d           2.373   1.385  -0.013  0.00  0.00     0.263 A 
ATOM      3  O1  <0> d           3.435   1.987  -0.020  0.00  0.00    -0.267 OA
ATOM      4  C5  <0> d           1.155   2.094   0.002  0.00  0.00    -0.012 A 
ATOM      5  C6  <0> d          -0.017   1.403   0.010  0.00  0.00    -0.022 A 
ATOM      6  C7  <0> d           0.002  -0.004   0.002  0.00  0.00     0.219 A 
ATOM      7  N2  <0> d           1.139  -0.653  -0.013  0.00  0.00    -0.141 NA
ATOM      8  O2  <0> d          -1.168  -0.694   0.009  0.00  0.00    -0.169 OA
ATOM      9  H8  <0> d           1.152   3.174   0.008  0.00  0.00     0.092 H 
ATOM     10  H9  <0> d          -0.958   1.932   0.017  0.00  0.00     0.090 H 
ENDROOT
BRANCH   1  11
ATOM     11  C3  <0> d           3.618  -0.709  -0.037  0.00  0.00     0.020 C 
ATOM     12  H6  <0> d           4.386  -0.119  -0.559  0.00  0.00     0.067 H 
ATOM     13  H7  <0> d           3.472  -1.665  -0.559  0.00  0.00     0.067 H 
BRANCH  11  14
ATOM     14  C2  <0> d           4.071  -0.976   1.400  0.00  0.00    -0.051 C 
ATOM     15  H4  <0> d           3.304  -1.565   1.923  0.00  0.00     0.035 H 
ATOM     16  H5  <0> d           4.217  -0.019   1.922  0.00  0.00     0.035 H 
BRANCH  14  17
ATOM     17  C1  <0> d           5.388  -1.754   1.383  0.00  0.00    -0.075 C 
ATOM     18  H1  <0> d           5.714  -1.946   2.416  0.00  0.00     0.027 H 
ATOM     19  H2  <0> d           6.156  -1.164   0.861  0.00  0.00     0.027 H 
ATOM     20  H3  <0> d           5.242  -2.711   0.861  0.00  0.00     0.027 H 
ENDBRANCH  14  17
ENDBRANCH  11  14
ENDBRANCH   1  11
TORSDOF 3
