REMARK  1 active torsions:
REMARK  status: ('A' for Active; 'I' for Inactive)
REMARK    1  A    between atoms: C3_3  and  N3_8 
ROOT
ATOM      1  C1  <0> d           1.172   2.163  -0.009  0.00  0.00     0.030 A 
ATOM      2  C2  <0> d          -0.017   1.428   0.004  0.00  0.00     0.107 A 
ATOM      3  C3  <0> d          -1.238   2.137   0.025  0.00  0.00     0.148 A 
ATOM      4  N1  <0> d          -1.206   3.465   0.044  0.00  0.00    -0.186 NA
ATOM      5  C4  <0> d          -0.054   4.115   0.036  0.00  0.00     0.301 A 
ATOM      6  N2  <0> d           1.111   3.483  -0.001  0.00  0.00    -0.216 NA
ATOM      7  O1  <0> d          -0.065   5.468   0.048  0.00  0.00    -0.147 OA
ATOM      8  C5  <0> d           0.002  -0.004  -0.004  0.00  0.00     0.105 C 
ATOM      9  N4  <0> d           0.018  -1.140  -0.011  0.00  0.00    -0.191 NA
ATOM     10  H1  <0> d           2.127   1.659  -0.026  0.00  0.00     0.117 H 
ENDROOT
BRANCH   3  11
ATOM     11  N3  <0> d          -2.442   1.463   0.028  0.00  0.00    -0.383 N 
ATOM     12  H3  <0> d          -3.387   2.026   0.044  0.00  0.00     0.157 HD
ATOM     13  H2  <0> d          -2.457   0.363   0.012  0.00  0.00     0.157 HD
ENDBRANCH   3  11
TORSDOF 1
