REMARK  5 active torsions:
REMARK  status: ('A' for Active; 'I' for Inactive)
REMARK    1  A    between atoms: C1_1  and  C2_2 
REMARK    2  A    between atoms: C2_2  and  S1_3 
REMARK    3  A    between atoms: S1_3  and  N1_6 
REMARK    4  A    between atoms: N1_6  and  C3_7 
REMARK    5  A    between atoms: N1_6  and  C4_8 
ROOT
ATOM      1  S1  <0> d          -0.017   1.417   0.010  0.00  0.00     0.227 S 
ATOM      2  O1  <0> d           0.002  -0.004   0.002  0.00  0.00    -0.206 OA
ATOM      3  O2  <0> d           1.195   2.158   0.002  0.00  0.00    -0.206 OA
ENDROOT
BRANCH   1   4
ATOM      4  C2  <0> d          -1.110   2.020   1.327  0.00  0.00     0.043 C 
ATOM      5  H4  <0> d          -1.225   3.100   1.237  0.00  0.00     0.058 H 
ATOM      6  H5  <0> d          -2.085   1.541   1.237  0.00  0.00     0.058 H 
BRANCH   4   7
ATOM      7  C1  <0> d          -0.500   1.683   2.689  0.00  0.00    -0.062 C 
ATOM      8  H1  <0> d           0.475   2.161   2.779  0.00  0.00     0.028 H 
ATOM      9  H2  <0> d          -1.156   2.045   3.480  0.00  0.00     0.028 H 
ATOM     10  H3  <0> d          -0.385   0.603   2.779  0.00  0.00     0.028 H 
ENDBRANCH   4   7
ENDBRANCH   1   4
BRANCH   1  11
ATOM     11  N1  <0> d          -0.778   1.837  -1.400  0.00  0.00    -0.320 N 
BRANCH  11  12
ATOM     12  C3  <0> d          -0.501   3.133  -2.023  0.00  0.00    -0.009 C 
ATOM     13  H6  <0> d           0.333   3.032  -2.717  0.00  0.00     0.057 H 
ATOM     14  H7  <0> d          -1.385   3.472  -2.564  0.00  0.00     0.057 H 
ATOM     15  H8  <0> d          -0.247   3.860  -1.252  0.00  0.00     0.057 H 
ENDBRANCH  11  12
BRANCH  11  16
ATOM     16  C4  <0> d          -1.728   0.912  -2.023  0.00  0.00    -0.009 C 
ATOM     17  H9  <0> d          -1.802   0.007  -1.421  0.00  0.00     0.057 H 
ATOM     18  H10 <0> d          -2.707   1.386  -2.090  0.00  0.00     0.057 H 
ATOM     19  H11 <0> d          -1.380   0.654  -3.024  0.00  0.00     0.057 H 
ENDBRANCH  11  16
ENDBRANCH   1  11
TORSDOF 5
