REMARK  9 active torsions:
REMARK  status: ('A' for Active; 'I' for Inactive)
REMARK    1  A    between atoms: C1_1  and  C2_2 
REMARK    2  A    between atoms: C2_2  and  C3_3 
REMARK    3  A    between atoms: C2_2  and  C4_4 
REMARK    4  A    between atoms: C4_4  and  C5_6 
REMARK    5  A    between atoms: C4_4  and  O2_11 
REMARK    6  A    between atoms: C5_6  and  C6_7 
REMARK    7  A    between atoms: C5_6  and  C7_8 
REMARK    8  A    between atoms: C5_6  and  C8_9 
REMARK    9  A    between atoms: C8_9  and  O1_10 
ROOT
ATOM      1  C4  <0> d          -1.092   1.542   1.497  0.00  0.00     0.047 C 
ATOM      2  H1  <0> d          -1.256   2.612   1.627  0.00  0.00     0.084 H 
ENDROOT
BRANCH   1   3
ATOM      3  C2  <0> d          -0.536   1.279   0.096  0.00  0.00    -0.035 C 
ATOM      4  H5  <0> d           0.545   1.416   0.102  0.00  0.00     0.042 H 
BRANCH   3   5
ATOM      5  C1  <0> d          -1.169   2.257  -0.896  0.00  0.00    -0.071 C 
ATOM      6  H2  <0> d          -1.005   3.279  -0.553  0.00  0.00     0.028 H 
ATOM      7  H3  <0> d          -0.713   2.126  -1.877  0.00  0.00     0.028 H 
ATOM      8  H4  <0> d          -2.240   2.064  -0.964  0.00  0.00     0.028 H 
ENDBRANCH   3   5
BRANCH   3   9
ATOM      9  C3  <0> d          -0.866  -0.155  -0.323  0.00  0.00    -0.071 C 
ATOM     10  H6  <0> d          -0.443  -0.353  -1.308  0.00  0.00     0.028 H 
ATOM     11  H7  <0> d          -0.441  -0.852   0.401  0.00  0.00     0.028 H 
ATOM     12  H8  <0> d          -1.948  -0.284  -0.359  0.00  0.00     0.028 H 
ENDBRANCH   3   9
ENDBRANCH   1   3
BRANCH   1  13
ATOM     13  C5  <0> d          -0.091   1.048   2.543  0.00  0.00    -0.000 C 
BRANCH  13  14
ATOM     14  C6  <0> d           0.180  -0.442   2.327  0.00  0.00    -0.065 C 
ATOM     15  H9  <0> d           0.777  -0.576   1.425  0.00  0.00     0.028 H 
ATOM     16  H10 <0> d           0.722  -0.841   3.184  0.00  0.00     0.028 H 
ATOM     17  H11 <0> d          -0.767  -0.971   2.218  0.00  0.00     0.028 H 
ENDBRANCH  13  14
BRANCH  13  18
ATOM     18  C7  <0> d           1.218   1.829   2.406  0.00  0.00    -0.065 C 
ATOM     19  H12 <0> d           1.016   2.896   2.503  0.00  0.00     0.028 H 
ATOM     20  H13 <0> d           1.910   1.518   3.188  0.00  0.00     0.028 H 
ATOM     21  H14 <0> d           1.659   1.630   1.430  0.00  0.00     0.028 H 
ENDBRANCH  13  18
BRANCH  13  22
ATOM     22  C8  <0> d          -0.669   1.264   3.943  0.00  0.00     0.025 C 
ATOM     23  H15 <0> d          -0.862   2.325   4.097  0.00  0.00     0.075 H 
ATOM     24  H16 <0> d          -1.601   0.707   4.041  0.00  0.00     0.075 H 
BRANCH  22  25
ATOM     25  O1  <0> d           0.266   0.802   4.921  0.00  0.00    -0.400 OA
ATOM     26  H17 <0> d          -0.035   0.908   5.833  0.00  0.00     0.209 HD
ENDBRANCH  22  25
ENDBRANCH  13  22
ENDBRANCH   1  13
BRANCH   1  27
ATOM     27  O2  <0> d          -2.330   0.847   1.656  0.00  0.00    -0.394 OA
ATOM     28  H18 <0> d          -2.259  -0.112   1.553  0.00  0.00     0.210 HD
ENDBRANCH   1  27
TORSDOF 9
