REMARK  2 active torsions:
REMARK  status: ('A' for Active; 'I' for Inactive)
REMARK    1  A    between atoms: C5_5  and  O1_8 
REMARK    2  A    between atoms: C6_6  and  N1_7 
ROOT
ATOM      1  C1  <0> d           3.128   2.401   1.186  0.00  0.00    -0.052 A 
ATOM      2  C2  <0> d           3.742   2.696  -0.018  0.00  0.00    -0.040 A 
ATOM      3  C3  <0> d           3.102   2.412  -1.212  0.00  0.00     0.157 A 
ATOM      4  C4  <0> d           1.844   1.831  -1.206  0.00  0.00     0.190 A 
ATOM      5  C5  <0> d           1.224   1.533  -0.001  0.00  0.00     0.134 A 
ATOM      6  C6  <0> d           1.867   1.824   1.199  0.00  0.00     0.062 A 
ATOM      7  F1  <0> d           1.221   1.555  -2.372  0.00  0.00    -0.200 F 
ATOM      8  F2  <0> d           3.705   2.702  -2.385  0.00  0.00    -0.203 F 
ATOM      9  H1  <0> d           3.630   2.623   2.116  0.00  0.00     0.087 H 
ATOM     10  H2  <0> d           4.722   3.149  -0.026  0.00  0.00     0.088 H 
ENDROOT
BRANCH   6  11
ATOM     11  N1  <0> d           1.242   1.531   2.419  0.00  0.00    -0.397 N 
ATOM     12  H3  <0> d           0.362   1.124   2.427  0.00  0.00     0.156 HD
ATOM     13  H4  <0> d           1.691   1.734   3.254  0.00  0.00     0.156 HD
ENDBRANCH   6  11
BRANCH   5  14
ATOM     14  O1  <0> d          -0.011   0.963   0.007  0.00  0.00    -0.356 OA
ATOM     15  H5  <0> d           0.002  -0.004   0.002  0.00  0.00     0.218 HD
ENDBRANCH   5  14
TORSDOF 2
