REMARK  3 active torsions:
REMARK  status: ('A' for Active; 'I' for Inactive)
REMARK    1  A    between atoms: C1_1  and  C2_2 
REMARK    2  A    between atoms: C5_6  and  C8_9 
REMARK    3  A    between atoms: C6_7  and  C7_8 
ROOT
ATOM      1  C2  <0> d           0.002  -0.004   0.002  0.00  0.00    -0.051 A 
ATOM      2  C3  <0> d           0.006  -0.707  -1.193  0.00  0.00    -0.038 A 
ATOM      3  C4  <0> d           0.026  -2.090  -1.161  0.00  0.00     0.126 A 
ATOM      4  N1  <0> d           0.040  -2.738  -0.011  0.00  0.00    -0.241 NA
ATOM      5  C5  <0> d           0.036  -2.101   1.143  0.00  0.00     0.038 A 
ATOM      6  C6  <0> d           0.023  -0.720   1.189  0.00  0.00    -0.032 A 
ATOM      7 Cl1  <0> d           0.031  -2.983  -2.650  0.00  0.00    -0.062 Cl
ATOM      8  H4  <0> d          -0.006  -0.182  -2.136  0.00  0.00     0.089 H 
ENDROOT
BRANCH   1   9
ATOM      9  C1  <0> d          -0.018   1.503   0.010  0.00  0.00    -0.051 C 
ATOM     10  H1  <0> d           1.004   1.880   0.003  0.00  0.00     0.033 H 
ATOM     11  H2  <0> d          -0.545   1.864  -0.873  0.00  0.00     0.033 H 
ATOM     12  H3  <0> d          -0.529   1.854   0.907  0.00  0.00     0.033 H 
ENDBRANCH   1   9
BRANCH   6  13
ATOM     13  C7  <0> d           0.025  -0.001   2.514  0.00  0.00    -0.049 C 
ATOM     14  H5  <0> d          -1.002   0.158   2.842  0.00  0.00     0.033 H 
ATOM     15  H6  <0> d           0.554  -0.602   3.253  0.00  0.00     0.033 H 
ATOM     16  H7  <0> d           0.525   0.962   2.404  0.00  0.00     0.033 H 
ENDBRANCH   6  13
BRANCH   5  17
ATOM     17  C8  <0> d           0.052  -2.889   2.428  0.00  0.00    -0.035 C 
ATOM     18  H8  <0> d           1.084  -3.065   2.733  0.00  0.00     0.035 H 
ATOM     19  H9  <0> d          -0.466  -2.327   3.205  0.00  0.00     0.035 H 
ATOM     20  H10 <0> d          -0.450  -3.844   2.275  0.00  0.00     0.035 H 
ENDBRANCH   5  17
TORSDOF 3
