REMARK  5 active torsions:
REMARK  status: ('A' for Active; 'I' for Inactive)
REMARK    1  A    between atoms: C1_1  and  C2_2 
REMARK    2  A    between atoms: C2_2  and  C3_3 
REMARK    3  A    between atoms: C3_3  and  C4_4 
REMARK    4  A    between atoms: C7_8  and  C10_14 
REMARK    5  A    between atoms: C9_11  and  O1_13 
ROOT
ATOM      1  C4  <0> d          -0.729   1.579   1.267  0.00  0.00    -0.029 C 
ATOM      2  H1  <0> d          -0.202   1.218   2.150  0.00  0.00     0.043 H 
ATOM      3  C5  <0> d          -0.750   3.109   1.275  0.00  0.00    -0.059 C 
ATOM      4  C6  <0> d           0.686   3.639   1.264  0.00  0.00    -0.061 C 
ATOM      5  C7  <0> d           1.402   3.145   0.006  0.00  0.00    -0.055 C 
ATOM      6  H2  <0> d           0.875   3.506  -0.877  0.00  0.00     0.039 H 
ATOM      7  C8  <0> d           1.423   1.615  -0.003  0.00  0.00    -0.038 C 
ATOM      8  C9  <0> d          -0.013   1.086   0.008  0.00  0.00     0.039 C 
ATOM      9  H3  <0> d           0.002  -0.004   0.002  0.00  0.00     0.083 H 
ATOM     10  H11 <0> d          -1.260   3.461   2.172  0.00  0.00     0.033 H 
ATOM     11  H12 <0> d          -1.277   3.470   0.392  0.00  0.00     0.033 H 
ATOM     12  H13 <0> d           1.213   3.278   2.147  0.00  0.00     0.033 H 
ATOM     13  H14 <0> d           0.671   4.729   1.270  0.00  0.00     0.033 H 
ATOM     14  H15 <0> d           1.950   1.254   0.880  0.00  0.00     0.037 H 
ATOM     15  H16 <0> d           1.933   1.264  -0.900  0.00  0.00     0.037 H 
ENDROOT
BRANCH   1  16
ATOM     16  C3  <0> d          -2.164   1.050   1.278  0.00  0.00    -0.060 C 
ATOM     17  H9  <0> d          -2.717   1.481   0.443  0.00  0.00     0.033 H 
ATOM     18  H10 <0> d          -2.152  -0.036   1.182  0.00  0.00     0.033 H 
BRANCH  16  19
ATOM     19  C2  <0> d          -2.841   1.438   2.594  0.00  0.00    -0.068 C 
ATOM     20  H7  <0> d          -2.288   1.006   3.428  0.00  0.00     0.032 H 
ATOM     21  H8  <0> d          -2.854   2.524   2.689  0.00  0.00     0.032 H 
BRANCH  19  22
ATOM     22  C1  <0> d          -4.277   0.908   2.604  0.00  0.00    -0.077 C 
ATOM     23  H4  <0> d          -4.264  -0.177   2.509  0.00  0.00     0.027 H 
ATOM     24  H5  <0> d          -4.759   1.185   3.542  0.00  0.00     0.027 H 
ATOM     25  H6  <0> d          -4.830   1.340   1.770  0.00  0.00     0.027 H 
ENDBRANCH  19  22
ENDBRANCH  16  19
ENDBRANCH   1  16
BRANCH   8  26
ATOM     26  O1  <0> d          -0.704   1.559  -1.150  0.00  0.00    -0.395 OA
ATOM     27  H17 <0> d          -0.304   1.284  -1.986  0.00  0.00     0.210 HD
ENDBRANCH   8  26
BRANCH   5  28
ATOM     28  C10 <0> d           2.837   3.675  -0.005  0.00  0.00    -0.073 C 
ATOM     29  H18 <0> d           3.348   3.323  -0.902  0.00  0.00     0.028 H 
ATOM     30  H19 <0> d           2.822   4.765   0.001  0.00  0.00     0.028 H 
ATOM     31  H20 <0> d           3.365   3.314   0.878  0.00  0.00     0.028 H 
ENDBRANCH   5  28
TORSDOF 5
