REMARK  6 active torsions:
REMARK  status: ('A' for Active; 'I' for Inactive)
REMARK    1  A    between atoms: C1_1  and  O1_2 
REMARK    2  A    between atoms: O1_2  and  C2_3 
REMARK    3  A    between atoms: C2_3  and  C3_4 
REMARK    4  A    between atoms: C3_4  and  O2_5 
REMARK    5  A    between atoms: O2_5  and  C4_6 
REMARK    6  A    between atoms: C4_6  and  C5_8 
ROOT
ATOM      1  C5  <0> d          -1.329   1.940   0.019  0.00  0.00     0.095 C 
ATOM      2  C6  <0> d          -2.435   0.968   0.019  0.00  0.00     0.069 C 
ATOM      3  N1  <0> d          -3.289   0.218   0.019  0.00  0.00    -0.197 NA
ATOM      4  H8  <0> d          -1.391   2.561   0.913  0.00  0.00     0.070 H 
ATOM      5  H9  <0> d          -1.400   2.570  -0.867  0.00  0.00     0.070 H 
ENDROOT
BRANCH   1   6
ATOM      6  C4  <0> d          -0.014   1.204   0.009  0.00  0.00     0.272 C 
ATOM      7  O3  <0> d           0.002  -0.004   0.002  0.00  0.00    -0.264 OA
BRANCH   6   8
ATOM      8  O2  <0> d           1.139   1.891   0.001  0.00  0.00    -0.319 OA
BRANCH   8   9
ATOM      9  C3  <0> d           2.367   1.117  -0.015  0.00  0.00     0.048 C 
ATOM     10  H6  <0> d           2.409   0.484   0.872  0.00  0.00     0.078 H 
ATOM     11  H7  <0> d           2.392   0.493  -0.908  0.00  0.00     0.078 H 
BRANCH   9  12
ATOM     12  C2  <0> d           3.568   2.065  -0.021  0.00  0.00     0.039 C 
ATOM     13  H4  <0> d           4.487   1.488  -0.122  0.00  0.00     0.077 H 
ATOM     14  H5  <0> d           3.479   2.757  -0.858  0.00  0.00     0.077 H 
BRANCH  12  15
ATOM     15  O1  <0> d           3.600   2.801   1.204  0.00  0.00    -0.394 OA
BRANCH  15  16
ATOM     16  C1  <0> d           4.689   3.721   1.301  0.00  0.00     0.004 C 
ATOM     17  H1  <0> d           5.631   3.177   1.227  0.00  0.00     0.066 H 
ATOM     18  H2  <0> d           4.624   4.447   0.491  0.00  0.00     0.066 H 
ATOM     19  H3  <0> d           4.643   4.239   2.258  0.00  0.00     0.066 H 
ENDBRANCH  15  16
ENDBRANCH  12  15
ENDBRANCH   9  12
ENDBRANCH   8   9
ENDBRANCH   6   8
ENDBRANCH   1   6
TORSDOF 6
