REMARK  1 active torsions:
REMARK  status: ('A' for Active; 'I' for Inactive)
REMARK    1  A    between atoms: C1_1  and  C2_2 
ROOT
ATOM      1  C2  <0> d           3.313   3.282   0.235  0.00  0.00     0.038 A 
ATOM      2  C3  <0> d           4.130   2.258  -0.136  0.00  0.00     0.006 A 
ATOM      3  C4  <0> d           3.547   1.016  -0.453  0.00  0.00     0.250 A 
ATOM      4  O1  <0> d           4.243   0.072  -0.788  0.00  0.00    -0.268 OA
ATOM      5  N1  <0> d           2.201   0.884  -0.378  0.00  0.00    -0.302 N 
ATOM      6  C5  <0> d           1.446   1.935  -0.001  0.00  0.00     0.109 A 
ATOM      7  N2  <0> d           1.995   3.090   0.292  0.00  0.00    -0.240 NA
ATOM      8  C6  <0> d          -0.019   1.540   0.011  0.00  0.00    -0.008 C 
ATOM      9  C7  <0> d           0.002  -0.004   0.002  0.00  0.00    -0.043 C 
ATOM     10  C8  <0> d           1.365  -0.294  -0.661  0.00  0.00     0.005 C 
ATOM     11  H4  <0> d           5.200   2.395  -0.186  0.00  0.00     0.095 H 
ATOM     12  H5  <0> d          -0.523   1.920  -0.878  0.00  0.00     0.044 H 
ATOM     13  H6  <0> d          -0.506   1.910   0.913  0.00  0.00     0.044 H 
ATOM     14  H7  <0> d          -0.031  -0.401   1.017  0.00  0.00     0.035 H 
ATOM     15  H8  <0> d          -0.816  -0.402  -0.598  0.00  0.00     0.035 H 
ATOM     16  H9  <0> d           1.813  -1.187  -0.225  0.00  0.00     0.065 H 
ATOM     17  H10 <0> d           1.242  -0.420  -1.736  0.00  0.00     0.065 H 
ENDROOT
BRANCH   1  18
ATOM     18  C1  <0> d           3.897   4.628   0.580  0.00  0.00    -0.035 C 
ATOM     19  H1  <0> d           3.094   5.314   0.850  0.00  0.00     0.035 H 
ATOM     20  H2  <0> d           4.582   4.522   1.420  0.00  0.00     0.035 H 
ATOM     21  H3  <0> d           4.436   5.021  -0.282  0.00  0.00     0.035 H 
ENDBRANCH   1  18
TORSDOF 1
