REMARK  4 active torsions:
REMARK  status: ('A' for Active; 'I' for Inactive)
REMARK    1  A    between atoms: C1_1  and  C2_2 
REMARK    2  A    between atoms: C2_2  and  N1_3 
REMARK    3  A    between atoms: C3_4  and  C6_9 
REMARK    4  A    between atoms: C5_6  and  N3_8 
ROOT
ATOM      1  N1  <0> d          -0.698   1.558   1.213  0.00  0.00    -0.273 N 
ATOM      2  C3  <0> d          -0.447   2.712   1.868  0.00  0.00     0.030 A 
ATOM      3  C4  <0> d          -1.291   2.782   2.922  0.00  0.00    -0.015 A 
ATOM      4  C5  <0> d          -2.083   1.623   2.919  0.00  0.00     0.143 A 
ATOM      5  N2  <0> d          -1.725   0.889   1.892  0.00  0.00    -0.155 NA
ATOM      6  H6  <0> d          -1.343   3.586   3.642  0.00  0.00     0.092 H 
ENDROOT
BRANCH   1   7
ATOM      7  C2  <0> d          -0.013   1.086   0.008  0.00  0.00     0.014 C 
ATOM      8  H4  <0> d           0.002  -0.004   0.002  0.00  0.00     0.066 H 
ATOM      9  H5  <0> d           1.010   1.463   0.000  0.00  0.00     0.066 H 
BRANCH   7  10
ATOM     10  C1  <0> d          -0.753   1.593  -1.232  0.00  0.00    -0.059 C 
ATOM     11  H1  <0> d          -0.767   2.683  -1.226  0.00  0.00     0.029 H 
ATOM     12  H2  <0> d          -0.242   1.241  -2.128  0.00  0.00     0.029 H 
ATOM     13  H3  <0> d          -1.775   1.215  -1.224  0.00  0.00     0.029 H 
ENDBRANCH   7  10
ENDBRANCH   1   7
BRANCH   2  14
ATOM     14  C6  <0> d           0.587   3.740   1.488  0.00  0.00    -0.036 C 
ATOM     15  H9  <0> d           0.141   4.471   0.812  0.00  0.00     0.035 H 
ATOM     16  H10 <0> d           0.943   4.245   2.385  0.00  0.00     0.035 H 
ATOM     17  H11 <0> d           1.423   3.248   0.991  0.00  0.00     0.035 H 
ENDBRANCH   2  14
BRANCH   4  18
ATOM     18  N3  <0> d          -3.079   1.304   3.850  0.00  0.00    -0.383 N 
ATOM     19  H7  <0> d          -3.575   0.475   3.764  0.00  0.00     0.157 HD
ATOM     20  H8  <0> d          -3.273   1.913   4.580  0.00  0.00     0.157 HD
ENDBRANCH   4  18
TORSDOF 4
