REMARK  3 active torsions:
REMARK  status: ('A' for Active; 'I' for Inactive)
REMARK    1  A    between atoms: C1_1  and  C2_2 
REMARK    2  A    between atoms: C5_7  and  C6_9 
REMARK    3  A    between atoms: C5_7  and  C7_10 
ROOT
ATOM      1  C2  <0> d          -1.241   3.263   0.028  0.00  0.00     0.052 C 
ATOM      2  C3  <0> d          -1.246   1.916   0.018  0.00  0.00     0.018 C 
ATOM      3  C4  <0> d          -0.014   1.212   0.009  0.00  0.00     0.287 C 
ATOM      4  O1  <0> d           0.002  -0.004   0.002  0.00  0.00    -0.260 OA
ATOM      5  O2  <0> d           1.143   1.916   0.001  0.00  0.00    -0.280 OA
ATOM      6  C5  <0> d           1.074   3.223   0.589  0.00  0.00     0.172 C 
ATOM      7  O3  <0> d          -0.064   3.925   0.012  0.00  0.00    -0.319 OA
ATOM      8  H4  <0> d          -2.181   1.376   0.022  0.00  0.00     0.096 H 
ENDROOT
BRANCH   6   9
ATOM      9  C6  <0> d           0.890   3.099   2.103  0.00  0.00    -0.025 C 
ATOM     10  H5  <0> d           1.734   2.555   2.527  0.00  0.00     0.035 H 
ATOM     11  H6  <0> d           0.839   4.094   2.545  0.00  0.00     0.035 H 
ATOM     12  H7  <0> d          -0.033   2.559   2.313  0.00  0.00     0.035 H 
ENDBRANCH   6   9
BRANCH   6  13
ATOM     13  C7  <0> d           2.362   3.992   0.286  0.00  0.00    -0.025 C 
ATOM     14  H8  <0> d           2.484   4.087  -0.793  0.00  0.00     0.035 H 
ATOM     15  H9  <0> d           2.306   4.984   0.734  0.00  0.00     0.035 H 
ATOM     16  H10 <0> d           3.213   3.453   0.702  0.00  0.00     0.035 H 
ENDBRANCH   6  13
BRANCH   1  17
ATOM     17  C1  <0> d          -2.541   4.026   0.049  0.00  0.00    -0.032 C 
ATOM     18  H1  <0> d          -2.869   4.213  -0.974  0.00  0.00     0.036 H 
ATOM     19  H2  <0> d          -3.297   3.442   0.573  0.00  0.00     0.036 H 
ATOM     20  H3  <0> d          -2.396   4.977   0.563  0.00  0.00     0.036 H 
ENDBRANCH   1  17
TORSDOF 3
