REMARK  4 active torsions:
REMARK  status: ('A' for Active; 'I' for Inactive)
REMARK    1  A    between atoms: C1_1  and  C2_2 
REMARK    2  A    between atoms: C6_6  and  C9_10 
REMARK    3  A    between atoms: C7_7  and  C8_8 
REMARK    4  A    between atoms: C8_8  and  O1_9 
ROOT
ATOM      1  C2  <0> d           0.002  -0.004   0.002  0.00  0.00    -0.050 A 
ATOM      2  C3  <0> d           0.006  -0.688  -1.199  0.00  0.00    -0.039 A 
ATOM      3  C4  <0> d           0.025  -2.073  -1.206  0.00  0.00     0.117 A 
ATOM      4  C5  <0> d           0.041  -2.770  -0.010  0.00  0.00    -0.039 A 
ATOM      5  C6  <0> d           0.037  -2.084   1.190  0.00  0.00    -0.050 A 
ATOM      6  C7  <0> d           0.023  -0.701   1.196  0.00  0.00    -0.023 A 
ATOM      7  F1  <0> d           0.028  -2.743  -2.379  0.00  0.00    -0.206 F 
ATOM      8  H4  <0> d          -0.007  -0.143  -2.131  0.00  0.00     0.089 H 
ATOM      9  H5  <0> d           0.055  -3.850  -0.015  0.00  0.00     0.089 H 
ENDROOT
BRANCH   6  10
ATOM     10  C8  <0> d           0.025   0.046   2.504  0.00  0.00     0.041 C 
ATOM     11  H6  <0> d           0.554  -0.539   3.256  0.00  0.00     0.081 H 
ATOM     12  H7  <0> d           0.524   1.006   2.374  0.00  0.00     0.081 H 
BRANCH  10  13
ATOM     13  O1  <0> d          -1.322   0.263   2.930  0.00  0.00    -0.396 OA
ATOM     14  H8  <0> d          -1.397   0.740   3.768  0.00  0.00     0.209 HD
ENDBRANCH  10  13
ENDBRANCH   6  10
BRANCH   1  15
ATOM     15  C1  <0> d          -0.018   1.503   0.010  0.00  0.00    -0.051 C 
ATOM     16  H1  <0> d           1.004   1.880   0.003  0.00  0.00     0.033 H 
ATOM     17  H2  <0> d          -0.545   1.864  -0.873  0.00  0.00     0.033 H 
ATOM     18  H3  <0> d          -0.529   1.854   0.907  0.00  0.00     0.033 H 
ENDBRANCH   1  15
BRANCH   5  19
ATOM     19  C9  <0> d           0.053  -2.842   2.491  0.00  0.00    -0.051 C 
ATOM     20  H9  <0> d           1.085  -3.011   2.801  0.00  0.00     0.033 H 
ATOM     21  H10 <0> d          -0.465  -2.264   3.256  0.00  0.00     0.033 H 
ATOM     22  H11 <0> d          -0.448  -3.801   2.360  0.00  0.00     0.033 H 
ENDBRANCH   5  19
TORSDOF 4
