REMARK  3 active torsions:
REMARK  status: ('A' for Active; 'I' for Inactive)
REMARK    1  A    between atoms: C2_2  and  N4_10 
REMARK    2  A    between atoms: N1_4  and  C4_6 
REMARK    3  A    between atoms: C4_6  and  C5_7 
REMARK       I    between atoms: C5_7  and  N3_9 
ROOT
ATOM      1  C1  <0> d          -0.695   3.200   0.026  0.00  0.00     0.048 A 
ATOM      2  C2  <0> d          -1.118   1.863   0.017  0.00  0.00     0.062 A 
ATOM      3  C3  <0> d          -0.013   1.076   0.008  0.00  0.00     0.025 A 
ATOM      4  N1  <0> d           1.073   1.894   0.002  0.00  0.00    -0.270 N 
ATOM      5  N2  <0> d           0.614   3.217   0.013  0.00  0.00    -0.182 NA
ATOM      6  H1  <0> d          -1.338   4.066   0.036  0.00  0.00     0.121 H 
ATOM      7  H2  <0> d           0.002  -0.004   0.002  0.00  0.00     0.117 H 
ENDROOT
BRANCH   4   8
ATOM      8  C4  <0> d           2.475   1.468  -0.013  0.00  0.00     0.089 C 
ATOM      9  H3  <0> d           2.962   1.775   0.924  0.00  0.00     0.082 H 
ATOM     10  H4  <0> d           2.524   0.373  -0.110  0.00  0.00     0.082 H 
BRANCH   8  11
ATOM     11  C5  <0> d           3.182   2.107  -1.181  0.00  0.00     0.235 C 
ATOM     12  O1  <0> d           2.575   2.846  -1.926  0.00  0.00    -0.272 OA
ATOM     13  N3  <0> d           4.489   1.857  -1.396  0.00  0.00    -0.369 N 
ATOM     14  H5  <0> d           5.005   2.324  -2.248  0.00  0.00     0.159 HD
ATOM     15  H6  <0> d           5.039   1.187  -0.720  0.00  0.00     0.159 HD
ENDBRANCH   8  11
ENDBRANCH   4   8
BRANCH   2  16
ATOM     16  N4  <0> d          -2.453   1.416   0.019  0.00  0.00    -0.397 N 
ATOM     17  H7  <0> d          -2.673   0.339   0.012  0.00  0.00     0.156 HD
ATOM     18  H8  <0> d          -3.277   2.146   0.029  0.00  0.00     0.156 HD
ENDBRANCH   2  16
TORSDOF 3
