REMARK  3 active torsions:
REMARK  status: ('A' for Active; 'I' for Inactive)
REMARK    1  A    between atoms: C1_1  and  C2_2 
REMARK    2  A    between atoms: C3_3  and  C7_11 
REMARK    3  A    between atoms: C5_9  and  C6_10 
ROOT
ATOM      1  C2  <0> d          -1.201   2.175   0.019  0.00  0.00    -0.015 A 
ATOM      2  C3  <0> d          -0.018   1.503   0.010  0.00  0.00     0.018 A 
ATOM      3  N1  <0> d           1.144   2.206   0.003  0.00  0.00    -0.311 N 
ATOM      4  H1  <0> d           2.108   1.676  -0.009  0.00  0.00     0.170 HD
ATOM      5  C4  <0> d           1.119   3.552   0.011  0.00  0.00     0.346 A 
ATOM      6  O1  <0> d           2.169   4.173   0.004  0.00  0.00    -0.245 OA
ATOM      7  N2  <0> d          -0.038   4.218   0.025  0.00  0.00    -0.199 NA
ATOM      8  C5  <0> d          -1.187   3.573   0.032  0.00  0.00     0.044 A 
ENDROOT
BRANCH   1   9
ATOM      9  C1  <0> d          -2.507   1.424   0.021  0.00  0.00    -0.048 C 
ATOM     10  H2  <0> d          -2.308   0.342   0.010  0.00  0.00     0.033 H 
ATOM     11  H3  <0> d          -3.090   1.698  -0.870  0.00  0.00     0.033 H 
ATOM     12  H4  <0> d          -3.077   1.682   0.926  0.00  0.00     0.033 H 
ENDBRANCH   1   9
BRANCH   8  13
ATOM     13  C6  <0> d          -2.484   4.341   0.048  0.00  0.00    -0.035 C 
ATOM     14  H5  <0> d          -2.271   5.420   0.057  0.00  0.00     0.035 H 
ATOM     15  H6  <0> d          -3.058   4.073   0.948  0.00  0.00     0.035 H 
ATOM     16  H7  <0> d          -3.070   4.090  -0.848  0.00  0.00     0.035 H 
ENDBRANCH   8  13
BRANCH   2  17
ATOM     17  C7  <0> d           0.002  -0.004   0.002  0.00  0.00    -0.037 C 
ATOM     18  H8  <0> d           1.044  -0.357  -0.005  0.00  0.00     0.035 H 
ATOM     19  H9  <0> d          -0.516  -0.373  -0.896  0.00  0.00     0.035 H 
ATOM     20  H10 <0> d          -0.507  -0.383   0.900  0.00  0.00     0.035 H 
ENDBRANCH   2  17
TORSDOF 3
