REMARK  4 active torsions:
REMARK  status: ('A' for Active; 'I' for Inactive)
REMARK    1  A    between atoms: C1_1  and  C2_2 
REMARK    2  A    between atoms: C2_2  and  O1_3 
REMARK    3  A    between atoms: O1_3  and  C3_4 
REMARK    4  A    between atoms: C8_9  and  O2_10 
ROOT
ATOM      1  C3  <0> d          -0.017   1.387   0.010  0.00  0.00     0.101 A 
ATOM      2  C4  <0> d           1.175   2.093   0.002  0.00  0.00    -0.048 A 
ATOM      3  C5  <0> d           2.380   1.415  -0.013  0.00  0.00    -0.080 A 
ATOM      4  C6  <0> d           2.399   0.033  -0.021  0.00  0.00    -0.080 A 
ATOM      5  C7  <0> d           1.213  -0.677  -0.013  0.00  0.00    -0.048 A 
ATOM      6  C8  <0> d           0.002  -0.004   0.002  0.00  0.00     0.099 A 
ATOM      7  H6  <0> d           1.164   3.173   0.008  0.00  0.00     0.087 H 
ATOM      8  H7  <0> d           3.309   1.967  -0.020  0.00  0.00     0.083 H 
ATOM      9  H8  <0> d           3.342  -0.493  -0.033  0.00  0.00     0.083 H 
ATOM     10  H9  <0> d           1.230  -1.757  -0.019  0.00  0.00     0.087 H 
ENDROOT
BRANCH   1  11
ATOM     11  O1  <0> d          -1.203   2.053   0.019  0.00  0.00    -0.349 OA
BRANCH  11  12
ATOM     12  C2  <0> d          -1.146   3.481   0.026  0.00  0.00     0.023 C 
ATOM     13  H4  <0> d          -0.613   3.818   0.916  0.00  0.00     0.074 H 
ATOM     14  H5  <0> d          -0.622   3.828  -0.864  0.00  0.00     0.074 H 
BRANCH  12  15
ATOM     15  C1  <0> d          -2.566   4.048   0.036  0.00  0.00    -0.056 C 
ATOM     16  H1  <0> d          -3.099   3.710  -0.853  0.00  0.00     0.030 H 
ATOM     17  H2  <0> d          -3.090   3.701   0.927  0.00  0.00     0.030 H 
ATOM     18  H3  <0> d          -2.523   5.137   0.042  0.00  0.00     0.030 H 
ENDBRANCH  12  15
ENDBRANCH  11  12
ENDBRANCH   1  11
BRANCH   6  19
ATOM     19  O2  <0> d          -1.165  -0.702   0.009  0.00  0.00    -0.358 OA
ATOM     20  H10 <0> d          -1.511  -0.898  -0.872  0.00  0.00     0.217 HD
ENDBRANCH   6  19
TORSDOF 4
