REMARK  3 active torsions:
REMARK  status: ('A' for Active; 'I' for Inactive)
REMARK    1  A    between atoms: C1_1  and  C2_2 
REMARK    2  A    between atoms: C2_2  and  O1_3 
REMARK    3  A    between atoms: O1_3  and  C3_4 
ROOT
ATOM      1  C3  <0> d          -0.736   2.970   1.304  0.00  0.00     0.131 C 
ATOM      2  H1  <0> d           0.277   3.372   1.313  0.00  0.00     0.129 H 
ATOM      3  C4  <0> d          -1.506   3.553   0.116  0.00  0.00    -0.019 C 
ATOM      4  C5  <0> d          -0.823   3.123  -1.186  0.00  0.00    -0.059 C 
ATOM      5  C6  <0> d          -0.754   1.593  -1.232  0.00  0.00    -0.045 C 
ATOM      6  C7  <0> d          -0.013   1.086   0.008  0.00  0.00     0.023 C 
ATOM      7  O2  <0> d          -0.682   1.547   1.183  0.00  0.00    -0.361 OA
ATOM      8  H7  <0> d          -1.509   4.641   0.183  0.00  0.00     0.040 H 
ATOM      9  H8  <0> d          -2.531   3.183   0.129  0.00  0.00     0.040 H 
ATOM     10  H9  <0> d           0.186   3.534  -1.222  0.00  0.00     0.033 H 
ATOM     11  H10 <0> d          -1.397   3.488  -2.037  0.00  0.00     0.033 H 
ATOM     12  H11 <0> d          -0.220   1.280  -2.129  0.00  0.00     0.036 H 
ATOM     13  H12 <0> d          -1.764   1.183  -1.246  0.00  0.00     0.036 H 
ATOM     14  H13 <0> d           0.002  -0.004   0.002  0.00  0.00     0.074 H 
ATOM     15  H14 <0> d           1.010   1.463   0.000  0.00  0.00     0.074 H 
ENDROOT
BRANCH   1  16
ATOM     16  O1  <0> d          -1.399   3.320   2.520  0.00  0.00    -0.362 OA
BRANCH  16  17
ATOM     17  C2  <0> d          -0.648   3.021   3.699  0.00  0.00     0.019 C 
ATOM     18  H5  <0> d          -0.446   1.951   3.740  0.00  0.00     0.073 H 
ATOM     19  H6  <0> d           0.294   3.568   3.678  0.00  0.00     0.073 H 
BRANCH  17  20
ATOM     20  C1  <0> d          -1.451   3.436   4.934  0.00  0.00    -0.056 C 
ATOM     21  H2  <0> d          -0.878   3.208   5.833  0.00  0.00     0.030 H 
ATOM     22  H3  <0> d          -1.652   4.507   4.893  0.00  0.00     0.030 H 
ATOM     23  H4  <0> d          -2.393   2.889   4.955  0.00  0.00     0.030 H 
ENDBRANCH  17  20
ENDBRANCH  16  17
ENDBRANCH   1  16
TORSDOF 3
