REMARK  0 active torsions:
REMARK  status: ('A' for Active; 'I' for Inactive)
ROOT
ATOM      1  C1  <0> d          -2.384  -0.050   0.106  0.00  0.00    -0.082 A 
ATOM      2  C2  <0> d          -2.411   1.332   0.091  0.00  0.00    -0.081 A 
ATOM      3  C3  <0> d          -1.233   2.052   0.043  0.00  0.00    -0.057 A 
ATOM      4  C4  <0> d          -0.017   1.380   0.010  0.00  0.00     0.034 A 
ATOM      5  C5  <0> d           0.002  -0.004   0.002  0.00  0.00    -0.032 A 
ATOM      6  C6  <0> d          -1.174  -0.721   0.061  0.00  0.00    -0.075 A 
ATOM      7  C7  <0> d           1.333  -0.729  -0.089  0.00  0.00    -0.039 C 
ATOM      8  C8  <0> d           2.112  -0.509   1.204  0.00  0.00    -0.060 C 
ATOM      9  C9  <0> d           2.901   0.791   1.157  0.00  0.00    -0.050 C 
ATOM     10  C10 <0> d           2.034   2.027   1.200  0.00  0.00    -0.007 C 
ATOM     11  N1  <0> d           1.181   2.097   0.002  0.00  0.00    -0.389 N 
ATOM     12  H1  <0> d          -3.308  -0.608   0.153  0.00  0.00     0.083 H 
ATOM     13  H2  <0> d          -3.358   1.852   0.117  0.00  0.00     0.083 H 
ATOM     14  H3  <0> d          -1.257   3.131   0.032  0.00  0.00     0.086 H 
ATOM     15  H4  <0> d          -1.151  -1.801   0.073  0.00  0.00     0.084 H 
ATOM     16  H5  <0> d           1.158  -1.796  -0.232  0.00  0.00     0.040 H 
ATOM     17  H6  <0> d           1.905  -0.338  -0.930  0.00  0.00     0.040 H 
ATOM     18  H7  <0> d           1.414  -0.473   2.040  0.00  0.00     0.033 H 
ATOM     19  H8  <0> d           2.803  -1.340   1.351  0.00  0.00     0.033 H 
ATOM     20  H9  <0> d           3.585   0.815   2.006  0.00  0.00     0.035 H 
ATOM     21  H10 <0> d           3.487   0.810   0.238  0.00  0.00     0.035 H 
ATOM     22  H11 <0> d           1.405   1.996   2.089  0.00  0.00     0.063 H 
ATOM     23  H12 <0> d           2.670   2.912   1.238  0.00  0.00     0.063 H 
ATOM     24  H13 <0> d           1.444   2.624  -0.769  0.00  0.00     0.159 HD
ENDROOT
TORSDOF 0
