REMARK  4 active torsions:
REMARK  status: ('A' for Active; 'I' for Inactive)
REMARK    1  A    between atoms: C1_1  and  C2_2 
REMARK    2  A    between atoms: C2_2  and  C3_3 
REMARK    3  A    between atoms: C2_2  and  C4_4 
REMARK    4  A    between atoms: C4_4  and  N1_5 
ROOT
ATOM      1  C4  <0> d           1.704   3.175   0.003  0.00  0.00     0.019 C 
ATOM      2  H8  <0> d           2.219   3.396  -0.932  0.00  0.00     0.067 H 
ATOM      3  H9  <0> d           0.838   3.829   0.104  0.00  0.00     0.067 H 
ENDROOT
BRANCH   1   4
ATOM      4  C2  <0> d           2.658   3.406   1.177  0.00  0.00    -0.044 C 
ATOM      5  H4  <0> d           2.173   3.101   2.104  0.00  0.00     0.041 H 
BRANCH   4   6
ATOM      6  C1  <0> d           3.930   2.581   0.971  0.00  0.00    -0.072 C 
ATOM      7  H1  <0> d           4.414   2.886   0.043  0.00  0.00     0.028 H 
ATOM      8  H2  <0> d           4.609   2.745   1.807  0.00  0.00     0.028 H 
ATOM      9  H3  <0> d           3.671   1.523   0.915  0.00  0.00     0.028 H 
ENDBRANCH   4   6
BRANCH   4  10
ATOM     10  C3  <0> d           3.020   4.890   1.255  0.00  0.00    -0.072 C 
ATOM     11  H5  <0> d           2.114   5.478   1.402  0.00  0.00     0.028 H 
ATOM     12  H6  <0> d           3.700   5.055   2.091  0.00  0.00     0.028 H 
ATOM     13  H7  <0> d           3.505   5.195   0.327  0.00  0.00     0.028 H 
ENDBRANCH   4  10
ENDBRANCH   1   4
BRANCH   1  14
ATOM     14  N1  <0> d           1.263   1.778  -0.001  0.00  0.00    -0.281 N 
ATOM     15  N2  <0> d           2.095   0.651  -0.015  0.00  0.00    -0.185 NA
ATOM     16  C7  <0> d           1.339  -0.416  -0.013  0.00  0.00     0.023 A 
ATOM     17  C6  <0> d           0.002  -0.004   0.002  0.00  0.00    -0.048 A 
ATOM     18  H12 <0> d           1.686  -1.439  -0.022  0.00  0.00     0.117 H 
ATOM     19  C5  <0> d          -0.016   1.349   0.009  0.00  0.00    -0.000 A 
ATOM     20  H11 <0> d          -0.863  -0.651   0.007  0.00  0.00     0.087 H 
ATOM     21  H10 <0> d          -0.897   1.974   0.017  0.00  0.00     0.114 H 
ENDBRANCH   1  14
TORSDOF 4
