REMARK  3 active torsions:
REMARK  status: ('A' for Active; 'I' for Inactive)
REMARK    1  A    between atoms: C1_1  and  C2_2 
REMARK    2  A    between atoms: C2_2  and  N1_3 
REMARK    3  A    between atoms: C3_4  and  C6_9 
ROOT
ATOM      1  N1  <0> d          -2.103   1.072   1.277  0.00  0.00    -0.330 N 
ATOM      2  C3  <0> d          -3.115   1.789   0.709  0.00  0.00     0.016 A 
ATOM      3  C4  <0> d          -4.361   1.315   0.721  0.00  0.00    -0.020 A 
ATOM      4  S1  <0> d          -4.165  -0.235   1.586  0.00  0.00    -0.062 SA
ATOM      5  C5  <0> d          -2.404  -0.137   1.866  0.00  0.00     0.165 A 
ATOM      6  N2  <0> d          -1.610  -0.987   2.470  0.00  0.00    -0.277 NA
ATOM      7  H6  <0> d          -5.259   1.757   0.315  0.00  0.00     0.098 H 
ATOM      8  H7  <0> d          -1.971  -1.808   2.840  0.00  0.00     0.189 HD
ENDROOT
BRANCH   1   9
ATOM      9  C2  <0> d          -0.729   1.579   1.267  0.00  0.00    -0.002 C 
ATOM     10  H4  <0> d          -0.202   1.218   2.150  0.00  0.00     0.064 H 
ATOM     11  H5  <0> d          -0.744   2.669   1.273  0.00  0.00     0.064 H 
BRANCH   9  12
ATOM     12  C1  <0> d          -0.013   1.086   0.008  0.00  0.00    -0.061 C 
ATOM     13  H1  <0> d           0.002  -0.004   0.002  0.00  0.00     0.029 H 
ATOM     14  H2  <0> d           1.010   1.463   0.000  0.00  0.00     0.029 H 
ATOM     15  H3  <0> d          -0.540   1.447  -0.875  0.00  0.00     0.029 H 
ENDBRANCH   9  12
ENDBRANCH   1   9
BRANCH   2  16
ATOM     16  C6  <0> d          -2.824   3.118   0.061  0.00  0.00    -0.037 C 
ATOM     17  H8  <0> d          -2.585   2.964  -0.991  0.00  0.00     0.035 H 
ATOM     18  H9  <0> d          -3.698   3.763   0.146  0.00  0.00     0.035 H 
ATOM     19  H10 <0> d          -1.976   3.587   0.561  0.00  0.00     0.035 H 
ENDBRANCH   2  16
TORSDOF 3
