REMARK  3 active torsions:
REMARK  status: ('A' for Active; 'I' for Inactive)
REMARK    1  A    between atoms: C1_1  and  C2_2 
REMARK    2  A    between atoms: C2_2  and  C3_3 
REMARK    3  A    between atoms: C5_5  and  C6_9 
ROOT
ATOM      1  C3  <0> d           0.000   1.080   2.488  0.00  0.00     0.030 A 
ATOM      2  C4  <0> d          -0.167  -0.122   3.087  0.00  0.00    -0.024 A 
ATOM      3  C5  <0> d           0.732  -0.128   4.181  0.00  0.00     0.155 A 
ATOM      4  N1  <0> d           1.353   1.035   4.173  0.00  0.00    -0.168 NA
ATOM      5  N2  <0> d           0.937   1.751   3.191  0.00  0.00    -0.282 N 
ATOM      6  H1  <0> d           1.261   2.673   2.979  0.00  0.00     0.189 HD
ATOM      7  H7  <0> d          -0.842  -0.912   2.791  0.00  0.00     0.090 H 
ENDROOT
BRANCH   1   8
ATOM      8  C2  <0> d          -0.729   1.579   1.267  0.00  0.00    -0.029 C 
ATOM      9  H5  <0> d          -0.744   2.669   1.273  0.00  0.00     0.041 H 
ATOM     10  H6  <0> d          -1.751   1.202   1.275  0.00  0.00     0.041 H 
BRANCH   8  11
ATOM     11  C1  <0> d          -0.013   1.086   0.008  0.00  0.00    -0.071 C 
ATOM     12  H2  <0> d           0.002  -0.004   0.002  0.00  0.00     0.028 H 
ATOM     13  H3  <0> d           1.010   1.463   0.000  0.00  0.00     0.028 H 
ATOM     14  H4  <0> d          -0.540   1.447  -0.875  0.00  0.00     0.028 H 
ENDBRANCH   8  11
ENDBRANCH   1   8
BRANCH   3  15
ATOM     15  C6  <0> d           0.930  -1.224   5.149  0.00  0.00     0.230 C 
ATOM     16  O1  <0> d           0.289  -2.251   5.043  0.00  0.00    -0.643 OA
ATOM     17  O2  <0> d           1.822  -1.086   6.149  0.00  0.00    -0.643 OA
ENDBRANCH   3  15
TORSDOF 3
