REMARK  1 active torsions:
REMARK  status: ('A' for Active; 'I' for Inactive)
REMARK    1  A    between atoms: C1_1  and  N1_2 
ROOT
ATOM      1  N1  <0> d           2.767   0.575  -1.227  0.00  0.00    -0.356 N 
ATOM      2  C2  <0> d           2.077   1.871  -1.323  0.00  0.00    -0.003 C 
ATOM      3  C3  <0> d           1.362   2.145   0.001  0.00  0.00    -0.050 C 
ATOM      4  C4  <0> d          -0.018   1.514   0.010  0.00  0.00    -0.063 C 
ATOM      5  C5  <0> d           0.002  -0.004   0.002  0.00  0.00    -0.057 C 
ATOM      6  C6  <0> d           0.560  -0.531  -1.322  0.00  0.00     0.009 C 
ATOM      7  C7  <0> d           2.071  -0.563  -1.228  0.00  0.00     0.219 C 
ATOM      8  O1  <0> d           2.650  -1.626  -1.152  0.00  0.00    -0.273 OA
ATOM      9  H4  <0> d           2.805   2.660  -1.515  0.00  0.00     0.064 H 
ATOM     10  H5  <0> d           1.350   1.839  -2.135  0.00  0.00     0.064 H 
ATOM     11  H6  <0> d           1.264   3.222   0.139  0.00  0.00     0.035 H 
ATOM     12  H7  <0> d           1.951   1.731   0.819  0.00  0.00     0.035 H 
ATOM     13  H8  <0> d          -0.566   1.859  -0.867  0.00  0.00     0.033 H 
ATOM     14  H9  <0> d          -0.549   1.850   0.902  0.00  0.00     0.033 H 
ATOM     15  H10 <0> d           0.627  -0.359   0.822  0.00  0.00     0.033 H 
ATOM     16  H11 <0> d          -1.013  -0.378   0.138  0.00  0.00     0.033 H 
ATOM     17  H12 <0> d           0.184  -1.538  -1.503  0.00  0.00     0.047 H 
ATOM     18  H13 <0> d           0.255   0.126  -2.136  0.00  0.00     0.047 H 
ENDROOT
BRANCH   1  19
ATOM     19  C1  <0> d           4.229   0.534  -1.128  0.00  0.00    -0.016 C 
ATOM     20  H1  <0> d           4.559  -0.503  -1.065  0.00  0.00     0.056 H 
ATOM     21  H2  <0> d           4.665   1.002  -2.011  0.00  0.00     0.056 H 
ATOM     22  H3  <0> d           4.548   1.072  -0.236  0.00  0.00     0.056 H 
ENDBRANCH   1  19
TORSDOF 1
