REMARK  3 active torsions:
REMARK  status: ('A' for Active; 'I' for Inactive)
REMARK    1  A    between atoms: C1_1  and  C2_2 
REMARK    2  A    between atoms: C4_4  and  C8_10 
REMARK    3  A    between atoms: C7_7  and  N1_8 
ROOT
ATOM      1  C2  <0> d           1.175   1.782   0.000  0.00  0.00    -0.035 A 
ATOM      2  C3  <0> d          -0.013   1.076   0.008  0.00  0.00    -0.066 A 
ATOM      3  C4  <0> d          -1.220   1.750   0.017  0.00  0.00    -0.023 A 
ATOM      4  C5  <0> d          -1.242   3.135   0.030  0.00  0.00     0.124 A 
ATOM      5  C6  <0> d          -0.057   3.846   0.022  0.00  0.00    -0.019 A 
ATOM      6  C7  <0> d           1.157   3.171   0.008  0.00  0.00     0.034 A 
ATOM      7  F1  <0> d          -2.424   3.790   0.044  0.00  0.00    -0.205 F 
ATOM      8  H4  <0> d           0.002  -0.004   0.002  0.00  0.00     0.085 H 
ATOM      9  H5  <0> d          -0.074   4.926   0.028  0.00  0.00     0.091 H 
ENDROOT
BRANCH   1  10
ATOM     10  C1  <0> d           2.490   1.045  -0.015  0.00  0.00    -0.049 C 
ATOM     11  H1  <0> d           2.797   0.872  -1.046  0.00  0.00     0.033 H 
ATOM     12  H2  <0> d           3.246   1.642   0.495  0.00  0.00     0.033 H 
ATOM     13  H3  <0> d           2.376   0.089   0.495  0.00  0.00     0.033 H 
ENDBRANCH   1  10
BRANCH   6  14
ATOM     14  N1  <0> d           2.356   3.886   0.000  0.00  0.00    -0.399 N 
ATOM     15  H6  <0> d           3.203   3.413  -0.009  0.00  0.00     0.156 HD
ATOM     16  H7  <0> d           2.342   4.856   0.005  0.00  0.00     0.156 HD
ENDBRANCH   6  14
BRANCH   3  17
ATOM     17  C8  <0> d          -2.513   0.976   0.020  0.00  0.00    -0.048 C 
ATOM     18  H8  <0> d          -2.820   0.784   1.048  0.00  0.00     0.033 H 
ATOM     19  H9  <0> d          -3.284   1.556  -0.487  0.00  0.00     0.033 H 
ATOM     20  H10 <0> d          -2.370   0.028  -0.500  0.00  0.00     0.033 H 
ENDBRANCH   3  17
TORSDOF 3
