REMARK  5 active torsions:
REMARK  status: ('A' for Active; 'I' for Inactive)
REMARK    1  A    between atoms: C1_1  and  O1_2 
REMARK    2  A    between atoms: O1_2  and  C2_3 
REMARK    3  A    between atoms: C2_3  and  C3_4 
REMARK    4  A    between atoms: C2_3  and  O3_7 
REMARK       I    between atoms: C3_4  and  N1_6 
REMARK    5  A    between atoms: O3_7  and  C4_8 
ROOT
ATOM      1  C2  <0> d          -0.853   3.142  -0.291  0.00  0.00     0.207 C 
ATOM      2  H4  <0> d          -0.596   3.678  -1.205  0.00  0.00     0.144 H 
ENDROOT
BRANCH   1   3
ATOM      3  O1  <0> d          -2.229   3.368   0.022  0.00  0.00    -0.358 OA
BRANCH   3   4
ATOM      4  C1  <0> d          -2.699   4.671  -0.328  0.00  0.00     0.007 C 
ATOM      5  H1  <0> d          -3.714   4.804   0.045  0.00  0.00     0.066 H 
ATOM      6  H2  <0> d          -2.047   5.424   0.116  0.00  0.00     0.066 H 
ATOM      7  H3  <0> d          -2.693   4.780  -1.413  0.00  0.00     0.066 H 
ENDBRANCH   3   4
ENDBRANCH   1   3
BRANCH   1   8
ATOM      8  C3  <0> d          -0.619   1.667  -0.491  0.00  0.00     0.270 C 
ATOM      9  O2  <0> d          -1.512   0.963  -0.914  0.00  0.00    -0.268 OA
ATOM     10  N1  <0> d           0.582   1.129  -0.200  0.00  0.00    -0.366 N 
ATOM     11  H5  <0> d           0.732   0.180  -0.329  0.00  0.00     0.159 HD
ATOM     12  H6  <0> d           1.297   1.693   0.134  0.00  0.00     0.159 HD
ENDBRANCH   1   8
BRANCH   1  13
ATOM     13  O3  <0> d          -0.036   3.612   0.783  0.00  0.00    -0.358 OA
BRANCH  13  14
ATOM     14  C4  <0> d           0.061   5.036   0.858  0.00  0.00     0.007 C 
ATOM     15  H7  <0> d           0.212   5.443  -0.142  0.00  0.00     0.066 H 
ATOM     16  H8  <0> d          -0.858   5.441   1.281  0.00  0.00     0.066 H 
ATOM     17  H9  <0> d           0.905   5.309   1.492  0.00  0.00     0.066 H 
ENDBRANCH  13  14
ENDBRANCH   1  13
TORSDOF 5
