REMARK  0 active torsions:
REMARK  status: ('A' for Active; 'I' for Inactive)
ROOT
ATOM      1  C1  <0> d          -0.019   1.527   0.010  0.00  0.00    -0.060 C 
ATOM      2  C2  <0> d           1.413   2.070  -0.000  0.00  0.00    -0.060 C 
ATOM      3  C3  <0> d           2.067   1.782   1.359  0.00  0.00    -0.031 C 
ATOM      4  C4  <0> d           1.815   0.349   1.705  0.00  0.00     0.029 A 
ATOM      5  C5  <0> d           0.907  -0.482   1.125  0.00  0.00     0.072 A 
ATOM      6  N1  <0> d           0.911  -1.701   1.639  0.00  0.00    -0.146 NA
ATOM      7  N2  <0> d           1.726  -1.984   2.595  0.00  0.00    -0.110 NA
ATOM      8  S1  <0> d           2.543  -0.609   2.857  0.00  0.00     0.032 SA
ATOM      9  C6  <0> d           0.002  -0.004   0.002  0.00  0.00    -0.022 C 
ATOM     10  H1  <0> d          -0.532   1.877   0.906  0.00  0.00     0.033 H 
ATOM     11  H2  <0> d          -0.549   1.886  -0.872  0.00  0.00     0.033 H 
ATOM     12  H3  <0> d           1.982   1.582  -0.791  0.00  0.00     0.033 H 
ATOM     13  H4  <0> d           1.393   3.146  -0.175  0.00  0.00     0.033 H 
ATOM     14  H5  <0> d           3.141   1.961   1.296  0.00  0.00     0.041 H 
ATOM     15  H6  <0> d           1.631   2.426   2.122  0.00  0.00     0.041 H 
ATOM     16  H7  <0> d          -1.007  -0.385   0.159  0.00  0.00     0.042 H 
ATOM     17  H8  <0> d           0.386  -0.360  -0.954  0.00  0.00     0.042 H 
ENDROOT
TORSDOF 0
