REMARK  4 active torsions:
REMARK  status: ('A' for Active; 'I' for Inactive)
REMARK    1  A    between atoms: C2_2  and  O4_12 
REMARK    2  A    between atoms: C3_4  and  C5_10 
REMARK    3  A    between atoms: C4_7  and  O2_9 
REMARK    4  A    between atoms: C5_10  and  O3_11 
ROOT
ATOM      1  C1  <0> d           2.192   0.804   0.604  0.00  0.00     0.007 C 
ATOM      2  C2  <0> d           1.480  -0.451   0.029  0.00  0.00     0.067 C 
ATOM      3  H1  <0> d           1.878  -0.838  -0.920  0.00  0.00     0.087 H 
ATOM      4  C3  <0> d           0.002  -0.004   0.002  0.00  0.00     0.086 C 
ATOM      5  H2  <0> d          -0.559  -0.337   0.887  0.00  0.00     0.090 H 
ATOM      6  O1  <0> d          -0.017   1.428   0.010  0.00  0.00    -0.351 OA
ATOM      7  C4  <0> d           1.326   1.937  -0.000  0.00  0.00     0.131 C 
ATOM      8  H3  <0> d           1.601   2.269  -1.012  0.00  0.00     0.128 H 
ATOM      9  H4  <0> d           3.232   0.914   0.261  0.00  0.00     0.044 H 
ATOM     10  H5  <0> d           2.160   0.863   1.702  0.00  0.00     0.044 H 
ENDROOT
BRANCH   4  11
ATOM     11  C5  <0> d          -0.674  -0.525  -1.268  0.00  0.00     0.043 C 
ATOM     12  H7  <0> d          -0.209  -0.059  -2.148  0.00  0.00     0.078 H 
ATOM     13  H8  <0> d          -0.555  -1.617  -1.325  0.00  0.00     0.078 H 
BRANCH  11  14
ATOM     14  O3  <0> d          -2.065  -0.200  -1.234  0.00  0.00    -0.398 OA
ATOM     15  H9  <0> d          -2.719  -0.495  -2.068  0.00  0.00     0.209 HD
ENDBRANCH  11  14
ENDBRANCH   4  11
BRANCH   2  16
ATOM     16  O4  <0> d           1.654  -1.579   0.890  0.00  0.00    -0.393 OA
ATOM     17  H10 <0> d           1.208  -2.548   0.623  0.00  0.00     0.210 HD
ENDBRANCH   2  16
BRANCH   7  18
ATOM     18  O2  <0> d           1.417   3.114   0.805  0.00  0.00    -0.371 OA
ATOM     19  H6  <0> d           0.861   4.019   0.521  0.00  0.00     0.212 HD
ENDBRANCH   7  18
TORSDOF 4
