REMARK  3 active torsions:
REMARK  status: ('A' for Active; 'I' for Inactive)
REMARK    1  A    between atoms: C1_1  and  C2_2 
REMARK    2  A    between atoms: C2_2  and  C3_4 
REMARK    3  A    between atoms: C7_8  and  N1_10 
ROOT
ATOM      1  C3  <0> d          -0.048   3.850   0.022  0.00  0.00     0.011 A 
ATOM      2  C4  <0> d           1.168   3.160   0.007  0.00  0.00    -0.069 A 
ATOM      3  C5  <0> d           1.177   1.781   0.000  0.00  0.00    -0.080 A 
ATOM      4  C6  <0> d          -0.013   1.076   0.008  0.00  0.00    -0.058 A 
ATOM      5  C7  <0> d          -1.228   1.752   0.017  0.00  0.00     0.026 A 
ATOM      6  C8  <0> d          -1.250   3.138   0.030  0.00  0.00    -0.044 A 
ATOM      7  H4  <0> d           2.099   3.706   0.001  0.00  0.00     0.085 H 
ATOM      8  H5  <0> d           2.117   1.249  -0.011  0.00  0.00     0.083 H 
ATOM      9  H6  <0> d           0.002  -0.004   0.002  0.00  0.00     0.086 H 
ATOM     10  H7  <0> d          -2.193   3.664   0.042  0.00  0.00     0.088 H 
ENDROOT
BRANCH   1  11
ATOM     11  C2  <0> d          -0.062   5.322   0.030  0.00  0.00     0.155 C 
ATOM     12  O1  <0> d          -1.118   5.918   0.043  0.00  0.00    -0.293 OA
BRANCH  11  13
ATOM     13  C1  <0> d           1.236   6.088   0.022  0.00  0.00    -0.017 C 
ATOM     14  H1  <0> d           1.755   5.856  -0.800  0.00  0.00     0.038 H 
ATOM     15  H2  <0> d           1.026   7.158   0.030  0.00  0.00     0.038 H 
ATOM     16  H3  <0> d           1.818   5.825   0.906  0.00  0.00     0.038 H 
ENDBRANCH  11  13
ENDBRANCH   1  11
BRANCH   5  17
ATOM     17  N1  <0> d          -2.426   1.034   0.020  0.00  0.00    -0.399 N 
ATOM     18  H8  <0> d          -2.410   0.064   0.015  0.00  0.00     0.156 HD
ATOM     19  H9  <0> d          -3.274   1.505   0.026  0.00  0.00     0.156 HD
ENDBRANCH   5  17
TORSDOF 3
