REMARK  1 active torsions:
REMARK  status: ('A' for Active; 'I' for Inactive)
REMARK    1  A    between atoms: C7_7  and  C8_9 
ROOT
ATOM      1  C1  <0> d           0.186   5.823  -0.333  0.00  0.00    -0.064 C 
ATOM      2  C2  <0> d           1.371   5.699  -1.322  0.00  0.00    -0.064 C 
ATOM      3  C3  <0> d           2.174   4.487  -0.802  0.00  0.00    -0.057 C 
ATOM      4  C4  <0> d           1.192   3.632   0.010  0.00  0.00    -0.026 A 
ATOM      5  C5  <0> d          -0.172   4.345  -0.036  0.00  0.00    -0.057 C 
ATOM      6  C6  <0> d           1.643   2.892   1.265  0.00  0.00    -0.044 A 
ATOM      7  C7  <0> d           1.279   2.109   0.001  0.00  0.00     0.038 A 
ATOM      8  H1  <0> d           2.093   1.655  -0.563  0.00  0.00     0.057 H 
ATOM      9  H2  <0> d           0.496   6.335   0.578  0.00  0.00     0.033 H 
ATOM     10  H3  <0> d          -0.653   6.340  -0.798  0.00  0.00     0.033 H 
ATOM     11  H4  <0> d           1.984   6.600  -1.300  0.00  0.00     0.033 H 
ATOM     12  H5  <0> d           1.009   5.510  -2.333  0.00  0.00     0.033 H 
ATOM     13  H6  <0> d           2.991   4.826  -0.164  0.00  0.00     0.034 H 
ATOM     14  H7  <0> d           2.568   3.911  -1.639  0.00  0.00     0.034 H 
ATOM     15  H8  <0> d          -0.790   3.934  -0.834  0.00  0.00     0.034 H 
ATOM     16  H9  <0> d          -0.680   4.260   0.924  0.00  0.00     0.034 H 
ATOM     17  H10 <0> d           0.947   2.849   2.103  0.00  0.00     0.035 H 
ATOM     18  H11 <0> d           2.698   2.952   1.533  0.00  0.00     0.035 H 
ENDROOT
BRANCH   7  19
ATOM     19  C8  <0> d          -0.016   1.338   0.009  0.00  0.00     0.177 C 
ATOM     20  O1  <0> d          -1.071   1.928   0.018  0.00  0.00    -0.648 OA
ATOM     21  O2  <0> d           0.002  -0.004   0.002  0.00  0.00    -0.648 OA
ENDBRANCH   7  19
TORSDOF 1
