REMARK  7 active torsions:
REMARK  status: ('A' for Active; 'I' for Inactive)
REMARK    1  A    between atoms: C1_1  and  O1_2 
REMARK    2  A    between atoms: O1_2  and  C2_3 
REMARK    3  A    between atoms: C2_3  and  C3_4 
REMARK    4  A    between atoms: C3_4  and  C4_5 
REMARK    5  A    between atoms: C4_5  and  C5_6 
REMARK    6  A    between atoms: C5_6  and  O3_8 
REMARK    7  A    between atoms: O3_8  and  C6_9 
ROOT
ATOM      1  C3  <0> d          -2.479   0.930   0.019  0.00  0.00    -0.037 C 
ATOM      2  H6  <0> d          -2.417   0.309  -0.875  0.00  0.00     0.036 H 
ATOM      3  H7  <0> d          -2.408   0.299   0.905  0.00  0.00     0.036 H 
ENDROOT
BRANCH   1   4
ATOM      4  C2  <0> d          -3.814   1.677   0.029  0.00  0.00     0.019 C 
ATOM      5  H4  <0> d          -3.876   2.298   0.923  0.00  0.00     0.074 H 
ATOM      6  H5  <0> d          -3.885   2.307  -0.857  0.00  0.00     0.074 H 
BRANCH   4   7
ATOM      7  O1  <0> d          -4.888   0.733   0.029  0.00  0.00    -0.396 OA
BRANCH   7   8
ATOM      8  C1  <0> d          -6.186   1.330   0.039  0.00  0.00     0.004 C 
ATOM      9  H1  <0> d          -6.297   1.944   0.932  0.00  0.00     0.066 H 
ATOM     10  H2  <0> d          -6.306   1.954  -0.847  0.00  0.00     0.066 H 
ATOM     11  H3  <0> d          -6.945   0.548   0.038  0.00  0.00     0.066 H 
ENDBRANCH   7   8
ENDBRANCH   4   7
ENDBRANCH   1   4
BRANCH   1  12
ATOM     12  C4  <0> d          -1.329   1.940   0.019  0.00  0.00     0.018 C 
ATOM     13  H8  <0> d          -1.391   2.561   0.913  0.00  0.00     0.048 H 
ATOM     14  H9  <0> d          -1.400   2.570  -0.867  0.00  0.00     0.048 H 
BRANCH  12  15
ATOM     15  C5  <0> d          -0.014   1.204   0.009  0.00  0.00     0.258 C 
ATOM     16  O2  <0> d           0.002  -0.004   0.002  0.00  0.00    -0.265 OA
BRANCH  15  17
ATOM     17  O3  <0> d           1.139   1.891   0.001  0.00  0.00    -0.326 OA
BRANCH  17  18
ATOM     18  C6  <0> d           2.367   1.117  -0.015  0.00  0.00     0.013 C 
ATOM     19  H10 <0> d           2.392   0.493  -0.908  0.00  0.00     0.067 H 
ATOM     20  H11 <0> d           3.223   1.792  -0.019  0.00  0.00     0.067 H 
ATOM     21  H12 <0> d           2.409   0.484   0.872  0.00  0.00     0.067 H 
ENDBRANCH  17  18
ENDBRANCH  15  17
ENDBRANCH  12  15
ENDBRANCH   1  12
TORSDOF 7
