REMARK  2 active torsions:
REMARK  status: ('A' for Active; 'I' for Inactive)
REMARK    1  A    between atoms: C1_1  and  C2_2 
REMARK    2  A    between atoms: C5_6  and  O1_9 
ROOT
ATOM      1  C2  <0> d          -0.763   1.597   1.255  0.00  0.00    -0.055 C 
ATOM      2  H1  <0> d          -1.460   0.842   1.618  0.00  0.00     0.039 H 
ATOM      3  C3  <0> d          -1.531   2.845   0.750  0.00  0.00    -0.060 C 
ATOM      4  C4  <0> d          -1.978   2.421  -0.670  0.00  0.00    -0.041 C 
ATOM      5  C5  <0> d          -0.784   1.609  -1.216  0.00  0.00     0.036 C 
ATOM      6  H2  <0> d          -1.144   0.773  -1.816  0.00  0.00     0.082 H 
ATOM      7  C6  <0> d          -0.013   1.086   0.008  0.00  0.00    -0.038 C 
ATOM      8  H6  <0> d          -0.871   3.712   0.705  0.00  0.00     0.033 H 
ATOM      9  H7  <0> d          -2.395   3.052   1.382  0.00  0.00     0.033 H 
ATOM     10  H8  <0> d          -2.159   3.298  -1.292  0.00  0.00     0.036 H 
ATOM     11  H9  <0> d          -2.871   1.798  -0.619  0.00  0.00     0.036 H 
ATOM     12  H10 <0> d           0.002  -0.004   0.002  0.00  0.00     0.037 H 
ATOM     13  H11 <0> d           1.006   1.473   0.000  0.00  0.00     0.037 H 
ENDROOT
BRANCH   1  14
ATOM     14  C1  <0> d           0.228   1.986   2.354  0.00  0.00    -0.073 C 
ATOM     15  H3  <0> d           0.886   2.774   1.989  0.00  0.00     0.028 H 
ATOM     16  H4  <0> d          -0.319   2.344   3.227  0.00  0.00     0.028 H 
ATOM     17  H5  <0> d           0.823   1.115   2.631  0.00  0.00     0.028 H 
ENDBRANCH   1  14
BRANCH   5  18
ATOM     18  O1  <0> d           0.060   2.450  -2.004  0.00  0.00    -0.396 OA
ATOM     19  H12 <0> d          -0.370   2.812  -2.791  0.00  0.00     0.210 HD
ENDBRANCH   5  18
TORSDOF 2
