REMARK  2 active torsions:
REMARK  status: ('A' for Active; 'I' for Inactive)
REMARK    1  A    between atoms: C4_4  and  C7_7 
REMARK    2  A    between atoms: C7_7  and  O1_10 
ROOT
ATOM      1  C1  <0> d          -0.019   1.526   0.010  0.00  0.00    -0.065 C 
ATOM      2  C2  <0> d           1.417   2.055  -0.000  0.00  0.00    -0.065 C 
ATOM      3  C3  <0> d           2.157   1.548   1.239  0.00  0.00    -0.059 C 
ATOM      4  C4  <0> d           2.178   0.019   1.231  0.00  0.00    -0.024 C 
ATOM      5  C5  <0> d           0.742  -0.511   1.242  0.00  0.00    -0.059 C 
ATOM      6  C6  <0> d           0.002  -0.004   0.002  0.00  0.00    -0.065 C 
ATOM      7  H1  <0> d          -0.529   1.877   0.907  0.00  0.00     0.033 H 
ATOM      8  H2  <0> d          -0.546   1.887  -0.873  0.00  0.00     0.033 H 
ATOM      9  H3  <0> d           1.927   1.704  -0.897  0.00  0.00     0.033 H 
ATOM     10  H4  <0> d           1.402   3.145   0.006  0.00  0.00     0.033 H 
ATOM     11  H5  <0> d           3.179   1.926   1.231  0.00  0.00     0.033 H 
ATOM     12  H6  <0> d           1.647   1.900   2.136  0.00  0.00     0.033 H 
ATOM     13  H7  <0> d           2.688  -0.333   0.334  0.00  0.00     0.044 H 
ATOM     14  H8  <0> d           0.757  -1.601   1.236  0.00  0.00     0.033 H 
ATOM     15  H9  <0> d           0.232  -0.159   2.138  0.00  0.00     0.033 H 
ATOM     16  H10 <0> d          -1.020  -0.381   0.010  0.00  0.00     0.033 H 
ATOM     17  H11 <0> d           0.512  -0.356  -0.895  0.00  0.00     0.033 H 
ENDROOT
BRANCH   4  18
ATOM     18  C7  <0> d           2.917  -0.488   2.470  0.00  0.00     0.062 A 
ATOM     19  C9  <0> d           3.047  -2.002   2.646  0.00  0.00    -0.033 A 
ATOM     20  C8  <0> d           4.270  -1.171   2.256  0.00  0.00    -0.033 A 
ATOM     21  H14 <0> d           3.009  -2.396   3.662  0.00  0.00     0.037 H 
ATOM     22  H15 <0> d           2.604  -2.638   1.878  0.00  0.00     0.037 H 
ATOM     23  H12 <0> d           4.633  -1.258   1.232  0.00  0.00     0.037 H 
ATOM     24  H13 <0> d           5.037  -1.017   3.015  0.00  0.00     0.037 H 
BRANCH  18  25
ATOM     25  O1  <0> d           2.756   0.302   3.650  0.00  0.00    -0.389 OA
ATOM     26  H16 <0> d           3.233  -0.039   4.420  0.00  0.00     0.210 HD
ENDBRANCH  18  25
ENDBRANCH   4  18
TORSDOF 2
