REMARK  3 active torsions:
REMARK  status: ('A' for Active; 'I' for Inactive)
REMARK    1  A    between atoms: C4_4  and  C7_7 
REMARK    2  A    between atoms: C7_7  and  C8_9 
REMARK    3  A    between atoms: C7_7  and  O1_12 
ROOT
ATOM      1  C8  <0> d           1.407   4.098   1.431  0.00  0.00     0.042 C 
ATOM      2  C9  <0> d           1.269   5.564   1.462  0.00  0.00     0.062 C 
ATOM      3  N1  <0> d           1.162   6.694   1.486  0.00  0.00    -0.197 NA
ATOM      4  H7  <0> d           0.684   3.651   2.112  0.00  0.00     0.059 H 
ATOM      5  H8  <0> d           2.416   3.822   1.738  0.00  0.00     0.059 H 
ENDROOT
BRANCH   1   6
ATOM      6  C7  <0> d           1.151   3.592   0.010  0.00  0.00     0.072 C 
ATOM      7  H1  <0> d           0.177   3.944  -0.331  0.00  0.00     0.092 H 
BRANCH   6   8
ATOM      8  C4  <0> d           1.171   2.086   0.002  0.00  0.00    -0.029 A 
ATOM      9  C3  <0> d          -0.017   1.378   0.010  0.00  0.00    -0.074 A 
ATOM     10  C2  <0> d           0.002  -0.004   0.002  0.00  0.00    -0.082 A 
ATOM     11  H4  <0> d          -0.959   1.905   0.017  0.00  0.00     0.084 H 
ATOM     12  C1  <0> d           1.208  -0.679  -0.014  0.00  0.00    -0.083 A 
ATOM     13  H3  <0> d          -0.926  -0.557   0.008  0.00  0.00     0.083 H 
ATOM     14  C6  <0> d           2.396   0.029  -0.021  0.00  0.00    -0.082 A 
ATOM     15  H2  <0> d           1.223  -1.759  -0.020  0.00  0.00     0.083 H 
ATOM     16  C5  <0> d           2.377   1.411  -0.014  0.00  0.00    -0.074 A 
ATOM     17  H6  <0> d           3.339  -0.499  -0.033  0.00  0.00     0.083 H 
ATOM     18  H5  <0> d           3.305   1.963  -0.019  0.00  0.00     0.084 H 
ENDBRANCH   6   8
BRANCH   6  19
ATOM     19  O1  <0> d           2.168   4.087  -0.863  0.00  0.00    -0.390 OA
ATOM     20  H9  <0> d           3.063   3.813  -0.620  0.00  0.00     0.210 HD
ENDBRANCH   6  19
ENDBRANCH   1   6
TORSDOF 3
