REMARK  8 active torsions:
REMARK  status: ('A' for Active; 'I' for Inactive)
REMARK    1  A    between atoms: C1_1  and  C2_2 
REMARK    2  A    between atoms: C2_2  and  C3_3 
REMARK    3  A    between atoms: C3_3  and  C4_4 
REMARK    4  A    between atoms: C4_4  and  C5_5 
REMARK    5  A    between atoms: C5_5  and  C6_7 
REMARK    6  A    between atoms: C5_5  and  C8_9 
REMARK    7  A    between atoms: C6_7  and  C7_8 
REMARK       I    between atoms: C8_9  and  N1_11 
REMARK    8  A    between atoms: N1_11  and  C9_12 
ROOT
ATOM      1  C5  <0> d          -1.100   3.625   0.029  0.00  0.00     0.023 C 
ATOM      2  H1  <0> d          -0.653   4.033  -0.877  0.00  0.00     0.054 H 
ENDROOT
BRANCH   1   3
ATOM      3  C4  <0> d          -2.539   4.129   0.159  0.00  0.00    -0.054 C 
ATOM      4  H9  <0> d          -3.138   3.734  -0.662  0.00  0.00     0.034 H 
ATOM      5  H10 <0> d          -2.957   3.793   1.108  0.00  0.00     0.034 H 
BRANCH   3   6
ATOM      6  C3  <0> d          -2.550   5.658   0.109  0.00  0.00    -0.065 C 
ATOM      7  H7  <0> d          -1.951   6.053   0.930  0.00  0.00     0.033 H 
ATOM      8  H8  <0> d          -2.132   5.993  -0.840  0.00  0.00     0.033 H 
BRANCH   6   9
ATOM      9  C2  <0> d          -3.989   6.162   0.239  0.00  0.00    -0.069 C 
ATOM     10  H5  <0> d          -4.588   5.767  -0.581  0.00  0.00     0.032 H 
ATOM     11  H6  <0> d          -4.407   5.826   1.188  0.00  0.00     0.032 H 
BRANCH   9  12
ATOM     12  C1  <0> d          -4.000   7.691   0.190  0.00  0.00    -0.077 C 
ATOM     13  H2  <0> d          -3.582   8.027  -0.759  0.00  0.00     0.027 H 
ATOM     14  H3  <0> d          -5.025   8.050   0.282  0.00  0.00     0.027 H 
ATOM     15  H4  <0> d          -3.401   8.086   1.010  0.00  0.00     0.027 H 
ENDBRANCH   9  12
ENDBRANCH   6   9
ENDBRANCH   3   6
ENDBRANCH   1   3
BRANCH   1  16
ATOM     16  C6  <0> d          -0.290   4.075   1.246  0.00  0.00    -0.057 C 
ATOM     17  H11 <0> d          -0.370   5.157   1.355  0.00  0.00     0.033 H 
ATOM     18  H12 <0> d          -0.678   3.589   2.141  0.00  0.00     0.033 H 
BRANCH  16  19
ATOM     19  C7  <0> d           1.178   3.690   1.052  0.00  0.00    -0.076 C 
ATOM     20  H13 <0> d           1.269   2.604   1.032  0.00  0.00     0.027 H 
ATOM     21  H14 <0> d           1.541   4.101   0.110  0.00  0.00     0.027 H 
ATOM     22  H15 <0> d           1.770   4.089   1.875  0.00  0.00     0.027 H 
ENDBRANCH  16  19
ENDBRANCH   1  16
BRANCH   1  23
ATOM     23  C8  <0> d          -1.100   2.119  -0.046  0.00  0.00     0.221 C 
ATOM     24  O1  <0> d          -1.115   1.462   0.973  0.00  0.00    -0.273 OA
ATOM     25  N1  <0> d          -1.083   1.504  -1.245  0.00  0.00    -0.365 N 
ATOM     26  H16 <0> d          -1.148   2.027  -2.059  0.00  0.00     0.161 HD
BRANCH  25  27
ATOM     27  C9  <0> d          -0.973   0.045  -1.318  0.00  0.00    -0.018 C 
ATOM     28  H17 <0> d          -1.815  -0.410  -0.796  0.00  0.00     0.056 H 
ATOM     29  H18 <0> d          -0.980  -0.268  -2.362  0.00  0.00     0.056 H 
ATOM     30  H19 <0> d          -0.041  -0.273  -0.849  0.00  0.00     0.056 H 
ENDBRANCH  25  27
ENDBRANCH   1  23
TORSDOF 8
