REMARK  4 active torsions:
REMARK  status: ('A' for Active; 'I' for Inactive)
REMARK    1  A    between atoms: C1_1  and  C2_2 
REMARK    2  A    between atoms: C2_2  and  C3_3 
REMARK    3  A    between atoms: C3_3  and  N1_4 
REMARK       I    between atoms: N1_4  and  C4_5 
REMARK       I    between atoms: C4_5  and  N2_7 
REMARK    4  A    between atoms: N2_7  and  C5_8 
ROOT
ATOM      1  N1  <0> d           3.987   3.818   1.389  0.00  0.00    -0.343 N 
ATOM      2  C4  <0> d           3.404   2.897   0.595  0.00  0.00     0.316 C 
ATOM      3  O1  <0> d           4.009   2.446  -0.358  0.00  0.00    -0.247 OA
ATOM      4  N2  <0> d           2.151   2.477   0.858  0.00  0.00    -0.339 N 
ATOM      5  H8  <0> d           3.504   4.178   2.149  0.00  0.00     0.164 HD
ATOM      6  H9  <0> d           1.668   2.837   1.618  0.00  0.00     0.164 HD
ENDROOT
BRANCH   1   7
ATOM      7  C3  <0> d           5.349   4.275   1.103  0.00  0.00    -0.004 C 
ATOM      8  H6  <0> d           6.032   3.426   1.139  0.00  0.00     0.064 H 
ATOM      9  H7  <0> d           5.381   4.725   0.111  0.00  0.00     0.064 H 
BRANCH   7  10
ATOM     10  C2  <0> d           5.769   5.312   2.147  0.00  0.00    -0.053 C 
ATOM     11  H4  <0> d           5.085   6.161   2.110  0.00  0.00     0.034 H 
ATOM     12  H5  <0> d           5.737   4.862   3.139  0.00  0.00     0.034 H 
BRANCH  10  13
ATOM     13  C1  <0> d           7.191   5.789   1.848  0.00  0.00    -0.075 C 
ATOM     14  H1  <0> d           7.874   4.940   1.884  0.00  0.00     0.027 H 
ATOM     15  H2  <0> d           7.223   6.239   0.856  0.00  0.00     0.027 H 
ATOM     16  H3  <0> d           7.490   6.528   2.591  0.00  0.00     0.027 H 
ENDBRANCH  10  13
ENDBRANCH   7  10
ENDBRANCH   1   7
BRANCH   4  17
ATOM     17  C5  <0> d           1.518   1.476  -0.004  0.00  0.00     0.014 C 
ATOM     18  C8  <0> d           1.394   0.090   0.649  0.00  0.00    -0.046 C 
ATOM     19  C7  <0> d           0.002  -0.004   0.002  0.00  0.00    -0.061 C 
ATOM     20  H15 <0> d           1.368   0.121   1.738  0.00  0.00     0.035 H 
ATOM     21  H16 <0> d           2.105  -0.641   0.263  0.00  0.00     0.035 H 
ATOM     22  C6  <0> d          -0.019   1.534   0.011  0.00  0.00    -0.046 C 
ATOM     23  H13 <0> d          -0.751  -0.455   0.649  0.00  0.00     0.033 H 
ATOM     24  H14 <0> d           0.014  -0.435  -0.999  0.00  0.00     0.033 H 
ATOM     25  H11 <0> d          -0.448   1.969  -0.892  0.00  0.00     0.035 H 
ATOM     26  H12 <0> d          -0.431   1.960   0.925  0.00  0.00     0.035 H 
ATOM     27  H10 <0> d           1.944   1.450  -1.007  0.00  0.00     0.072 H 
ENDBRANCH   4  17
TORSDOF 4
