REMARK  1 active torsions:
REMARK  status: ('A' for Active; 'I' for Inactive)
REMARK    1  A    between atoms: C3_6  and  C4_7 
ROOT
ATOM      1  C1  <0> d          -0.699   3.054   0.024  0.00  0.00    -0.036 A 
ATOM      2  C2  <0> d           0.696   3.049   0.011  0.00  0.00     0.024 A 
ATOM      3  N1  <0> d           1.109   1.807   0.001  0.00  0.00    -0.187 NA
ATOM      4  N2  <0> d          -0.011   0.966   0.007  0.00  0.00    -0.278 N 
ATOM      5  H1  <0> d           0.003  -0.034   0.006  0.00  0.00     0.189 HD
ATOM      6  C3  <0> d          -1.122   1.754   0.016  0.00  0.00     0.062 A 
ATOM      7  H2  <0> d          -1.332   3.929   0.034  0.00  0.00     0.089 H 
ATOM      8  H3  <0> d           1.329   3.924   0.009  0.00  0.00     0.117 H 
ENDROOT
BRANCH   6   9
ATOM      9  C4  <0> d          -2.527   1.289   0.019  0.00  0.00    -0.001 A 
ATOM     10  C7  <0> d          -3.562   2.185   0.028  0.00  0.00    -0.033 A 
ATOM     11  S1  <0> d          -4.985   1.108   0.028  0.00  0.00    -0.113 SA
ATOM     12  H6  <0> d          -3.526   3.265   0.033  0.00  0.00     0.096 H 
ATOM     13  C6  <0> d          -4.124  -0.456   0.018  0.00  0.00    -0.044 A 
ATOM     14  C5  <0> d          -2.828  -0.070   0.009  0.00  0.00    -0.064 A 
ATOM     15  H5  <0> d          -4.534  -1.455   0.014  0.00  0.00     0.095 H 
ATOM     16  H4  <0> d          -2.038  -0.806  -0.003  0.00  0.00     0.085 H 
ENDBRANCH   6   9
TORSDOF 1
