REMARK  3 active torsions:
REMARK  status: ('A' for Active; 'I' for Inactive)
REMARK    1  A    between atoms: C1_1  and  C2_2 
REMARK    2  A    between atoms: C2_2  and  N1_3 
REMARK    3  A    between atoms: C3_4  and  C7_10 
ROOT
ATOM      1  N1  <0> d          -0.017   1.395   0.010  0.00  0.00    -0.273 N 
ATOM      2  C3  <0> d           1.252   1.838  -0.000  0.00  0.00     0.049 A 
ATOM      3  C4  <0> d           2.076   0.731  -0.014  0.00  0.00     0.087 A 
ATOM      4  C5  <0> d           1.242  -0.410  -0.012  0.00  0.00     0.044 A 
ATOM      5  N2  <0> d           0.002  -0.004   0.002  0.00  0.00    -0.183 NA
ATOM      6  C6  <0> d           3.508   0.737  -0.028  0.00  0.00     0.103 C 
ATOM      7  N3  <0> d           4.644   0.742  -0.038  0.00  0.00    -0.191 NA
ATOM      8  H6  <0> d           1.573  -1.438  -0.020  0.00  0.00     0.119 H 
ENDROOT
BRANCH   2   9
ATOM      9  C7  <0> d           1.694   3.279   0.003  0.00  0.00    -0.034 C 
ATOM     10  H7  <0> d           1.811   3.621   1.031  0.00  0.00     0.035 H 
ATOM     11  H8  <0> d           2.647   3.368  -0.519  0.00  0.00     0.035 H 
ATOM     12  H9  <0> d           0.945   3.890  -0.501  0.00  0.00     0.035 H 
ENDBRANCH   2   9
BRANCH   1  13
ATOM     13  C2  <0> d          -1.217   2.235   0.020  0.00  0.00     0.014 C 
ATOM     14  H4  <0> d          -1.007   3.175  -0.490  0.00  0.00     0.066 H 
ATOM     15  H5  <0> d          -2.028   1.717  -0.492  0.00  0.00     0.066 H 
BRANCH  13  16
ATOM     16  C1  <0> d          -1.627   2.520   1.466  0.00  0.00    -0.059 C 
ATOM     17  H1  <0> d          -1.837   1.580   1.976  0.00  0.00     0.029 H 
ATOM     18  H2  <0> d          -0.817   3.038   1.979  0.00  0.00     0.029 H 
ATOM     19  H3  <0> d          -2.520   3.145   1.474  0.00  0.00     0.029 H 
ENDBRANCH  13  16
ENDBRANCH   1  13
TORSDOF 3
