REMARK  1 active torsions:
REMARK  status: ('A' for Active; 'I' for Inactive)
REMARK    1  A    between atoms: C5_8  and  C6_10 
ROOT
ATOM      1  C1  <0> d          -0.017   1.376   0.010  0.00  0.00    -0.004 A 
ATOM      2  C2  <0> d           1.240   1.815  -0.000  0.00  0.00     0.021 A 
ATOM      3  N1  <0> d           2.090   0.724  -0.014  0.00  0.00    -0.227 N 
ATOM      4  C3  <0> d           1.324  -0.403  -0.013  0.00  0.00     0.131 A 
ATOM      5  N2  <0> d           0.002  -0.004   0.002  0.00  0.00    -0.349 N 
ATOM      6  H1  <0> d          -0.773  -0.588   0.007  0.00  0.00     0.167 HD
ATOM      7  C4  <0> d           2.162  -1.477  -0.026  0.00  0.00    -0.002 A 
ATOM      8  C5  <0> d           3.482  -0.992  -0.036  0.00  0.00     0.157 A 
ATOM      9  N3  <0> d           3.435   0.332  -0.029  0.00  0.00    -0.160 NA
ATOM     10  H2  <0> d          -0.901   1.995   0.025  0.00  0.00     0.113 H 
ATOM     11  H3  <0> d           1.544   2.851   0.002  0.00  0.00     0.117 H 
ATOM     12  H4  <0> d           1.865  -2.515  -0.029  0.00  0.00     0.093 H 
ENDROOT
BRANCH   8  13
ATOM     13  C6  <0> d           4.705  -1.812  -0.052  0.00  0.00     0.230 C 
ATOM     14  O1  <0> d           4.622  -3.033  -0.058  0.00  0.00    -0.643 OA
ATOM     15  O2  <0> d           5.803  -1.274  -0.060  0.00  0.00    -0.643 OA
ENDBRANCH   8  13
TORSDOF 1
