REMARK  4 active torsions:
REMARK  status: ('A' for Active; 'I' for Inactive)
REMARK    1  A    between atoms: C1_1  and  C2_2 
REMARK    2  A    between atoms: C2_2  and  C3_4 
REMARK    3  A    between atoms: C3_4  and  C4_6 
REMARK    4  A    between atoms: C3_4  and  O2_12 
ROOT
ATOM      1  C4  <0> d           1.171   2.086   0.002  0.00  0.00    -0.022 A 
ATOM      2  C5  <0> d          -0.017   1.378   0.010  0.00  0.00    -0.074 A 
ATOM      3  C6  <0> d           0.002  -0.004   0.002  0.00  0.00    -0.082 A 
ATOM      4  C7  <0> d           1.208  -0.679  -0.014  0.00  0.00    -0.083 A 
ATOM      5  C8  <0> d           2.396   0.029  -0.021  0.00  0.00    -0.082 A 
ATOM      6  C9  <0> d           2.377   1.411  -0.014  0.00  0.00    -0.074 A 
ATOM      7  H5  <0> d          -0.959   1.905   0.017  0.00  0.00     0.084 H 
ATOM      8  H6  <0> d          -0.926  -0.557   0.008  0.00  0.00     0.083 H 
ATOM      9  H7  <0> d           1.223  -1.759  -0.020  0.00  0.00     0.083 H 
ATOM     10  H8  <0> d           3.339  -0.499  -0.033  0.00  0.00     0.083 H 
ATOM     11  H9  <0> d           3.305   1.963  -0.019  0.00  0.00     0.084 H 
ENDROOT
BRANCH   1  12
ATOM     12  C3  <0> d           1.151   3.592   0.010  0.00  0.00     0.117 C 
ATOM     13  H1  <0> d           0.257   3.915  -0.302  0.00  0.00     0.102 H 
BRANCH  12  14
ATOM     14  C2  <0> d           1.403   4.091   1.409  0.00  0.00     0.156 C 
ATOM     15  O1  <0> d           2.478   4.561   1.698  0.00  0.00    -0.295 OA
BRANCH  14  16
ATOM     16  C1  <0> d           0.316   4.003   2.449  0.00  0.00    -0.018 C 
ATOM     17  H2  <0> d          -0.501   3.592   2.043  0.00  0.00     0.037 H 
ATOM     18  H3  <0> d           0.657   3.388   3.281  0.00  0.00     0.037 H 
ATOM     19  H4  <0> d           0.077   5.004   2.810  0.00  0.00     0.037 H 
ENDBRANCH  14  16
ENDBRANCH  12  14
BRANCH  12  20
ATOM     20  O2  <0> d           2.168   4.087  -0.863  0.00  0.00    -0.383 OA
ATOM     21  H10 <0> d           3.063   3.813  -0.620  0.00  0.00     0.211 HD
ENDBRANCH  12  20
ENDBRANCH   1  12
TORSDOF 4
