REMARK  3 active torsions:
REMARK  status: ('A' for Active; 'I' for Inactive)
REMARK    1  A    between atoms: C1_1  and  C2_2 
REMARK    2  A    between atoms: C2_2  and  O1_3 
REMARK    3  A    between atoms: O1_3  and  C3_4 
REMARK       I    between atoms: C3_4  and  N1_6 
ROOT
ATOM      1  C3  <0> d           2.878   2.027   1.974  0.00  0.00     0.362 C 
ATOM      2  O2  <0> d           3.481   1.472   2.871  0.00  0.00    -0.238 OA
ATOM      3  N1  <0> d           2.162   1.300   1.093  0.00  0.00    -0.324 N 
ATOM      4  C4  <0> d           1.423   1.950  -0.001  0.00  0.00     0.019 C 
ATOM      5  C5  <0> d          -0.017   1.425   0.010  0.00  0.00     0.034 C 
ATOM      6  O3  <0> d           0.002  -0.004   0.002  0.00  0.00    -0.388 OA
ATOM      7  C6  <0> d           0.622  -0.587   1.151  0.00  0.00     0.034 C 
ATOM      8  C7  <0> d           2.095  -0.166   1.198  0.00  0.00     0.019 C 
ATOM      9  H6  <0> d           1.894   1.710  -0.955  0.00  0.00     0.067 H 
ATOM     10  H7  <0> d           1.422   3.030   0.147  0.00  0.00     0.067 H 
ATOM     11  H8  <0> d          -0.543   1.787  -0.874  0.00  0.00     0.076 H 
ATOM     12  H9  <0> d          -0.526   1.778   0.907  0.00  0.00     0.076 H 
ATOM     13  H10 <0> d           0.115  -0.242   2.052  0.00  0.00     0.076 H 
ATOM     14  H11 <0> d           0.555  -1.673   1.088  0.00  0.00     0.076 H 
ATOM     15  H12 <0> d           2.538  -0.487   2.141  0.00  0.00     0.067 H 
ATOM     16  H13 <0> d           2.633  -0.619   0.366  0.00  0.00     0.067 H 
ENDROOT
BRANCH   1  17
ATOM     17  O1  <0> d           2.926   3.367   1.859  0.00  0.00    -0.304 OA
BRANCH  17  18
ATOM     18  C2  <0> d           3.717   4.085   2.843  0.00  0.00     0.027 C 
ATOM     19  H4  <0> d           3.321   3.890   3.840  0.00  0.00     0.074 H 
ATOM     20  H5  <0> d           4.753   3.750   2.791  0.00  0.00     0.074 H 
BRANCH  18  21
ATOM     21  C1  <0> d           3.652   5.586   2.553  0.00  0.00    -0.056 C 
ATOM     22  H1  <0> d           4.245   6.125   3.291  0.00  0.00     0.030 H 
ATOM     23  H2  <0> d           4.047   5.781   1.556  0.00  0.00     0.030 H 
ATOM     24  H3  <0> d           2.616   5.921   2.604  0.00  0.00     0.030 H 
ENDBRANCH  18  21
ENDBRANCH  17  18
ENDBRANCH   1  17
TORSDOF 3
