REMARK  6 active torsions:
REMARK  status: ('A' for Active; 'I' for Inactive)
REMARK    1  A    between atoms: C1_1  and  C2_2 
REMARK    2  A    between atoms: C2_2  and  C3_3 
REMARK    3  A    between atoms: C2_2  and  C4_4 
REMARK    4  A    between atoms: C4_4  and  C5_5 
REMARK    5  A    between atoms: C4_4  and  C6_6 
REMARK    6  A    between atoms: C4_4  and  O3_9 
ROOT
ATOM      1  C2  <0> d           0.002  -0.004   0.002  0.00  0.00    -0.022 C 
ATOM      2  H4  <0> d           0.512  -0.356  -0.895  0.00  0.00     0.044 H 
ENDROOT
BRANCH   1   3
ATOM      3  C1  <0> d          -0.019   1.526   0.010  0.00  0.00    -0.070 C 
ATOM      4  H1  <0> d           1.004   1.903   0.003  0.00  0.00     0.028 H 
ATOM      5  H2  <0> d          -0.546   1.887  -0.873  0.00  0.00     0.028 H 
ATOM      6  H3  <0> d          -0.529   1.877   0.907  0.00  0.00     0.028 H 
ENDBRANCH   1   3
BRANCH   1   7
ATOM      7  C3  <0> d           0.742  -0.511   1.242  0.00  0.00    -0.070 C 
ATOM      8  H5  <0> d           0.232  -0.159   2.138  0.00  0.00     0.028 H 
ATOM      9  H6  <0> d           0.757  -1.601   1.236  0.00  0.00     0.028 H 
ATOM     10  H7  <0> d           1.765  -0.134   1.234  0.00  0.00     0.028 H 
ENDBRANCH   1   7
BRANCH   1  11
ATOM     11  C4  <0> d          -1.433  -0.534   0.013  0.00  0.00     0.145 C 
BRANCH  11  12
ATOM     12  C5  <0> d          -2.149  -0.040   1.272  0.00  0.00    -0.038 C 
ATOM     13  H8  <0> d          -2.164   1.050   1.278  0.00  0.00     0.032 H 
ATOM     14  H9  <0> d          -3.172  -0.417   1.279  0.00  0.00     0.032 H 
ATOM     15  H10 <0> d          -1.622  -0.401   2.155  0.00  0.00     0.032 H 
ENDBRANCH  11  12
BRANCH  11  16
ATOM     16  C6  <0> d          -2.162  -0.034  -1.208  0.00  0.00     0.209 C 
ATOM     17  O1  <0> d          -2.622  -0.829  -2.010  0.00  0.00    -0.646 OA
ATOM     18  O2  <0> d          -2.292   1.164  -1.393  0.00  0.00    -0.646 OA
ENDBRANCH  11  16
BRANCH  11  19
ATOM     19  O3  <0> d          -1.414  -1.962   0.005  0.00  0.00    -0.379 OA
ATOM     20  H11 <0> d          -0.974  -2.346  -0.766  0.00  0.00     0.211 HD
ENDBRANCH  11  19
ENDBRANCH   1  11
TORSDOF 6
