REMARK  5 active torsions:
REMARK  status: ('A' for Active; 'I' for Inactive)
REMARK    1  A    between atoms: C1_1  and  C2_2 
REMARK    2  A    between atoms: C1_1  and  O3_6 
REMARK    3  A    between atoms: C2_2  and  C3_3 
REMARK    4  A    between atoms: C2_2  and  O2_5 
REMARK    5  A    between atoms: C3_3  and  O1_4 
ROOT
ATOM      1  C2  <0> d           0.002  -0.004   0.002  0.00  0.00     0.076 C 
ATOM      2  H3  <0> d           0.604  -0.364   0.836  0.00  0.00     0.089 H 
ENDROOT
BRANCH   1   3
ATOM      3  C1  <0> d          -0.019   1.526   0.010  0.00  0.00     0.042 C 
ATOM      4  H1  <0> d          -0.546   1.887  -0.873  0.00  0.00     0.078 H 
ATOM      5  H2  <0> d          -0.529   1.877   0.907  0.00  0.00     0.078 H 
BRANCH   3   6
ATOM      6  O3  <0> d           1.322   2.020   0.000  0.00  0.00    -0.398 OA
ATOM      7  H8  <0> d           1.385   2.985   0.005  0.00  0.00     0.209 HD
ENDBRANCH   3   6
ENDBRANCH   1   3
BRANCH   1   8
ATOM      8  C3  <0> d          -1.427  -0.534   0.139  0.00  0.00     0.042 C 
ATOM      9  H4  <0> d          -1.888  -0.111   1.031  0.00  0.00     0.078 H 
ATOM     10  H5  <0> d          -2.006  -0.249  -0.740  0.00  0.00     0.078 H 
BRANCH   8  11
ATOM     11  O1  <0> d          -1.398  -1.959   0.248  0.00  0.00    -0.398 OA
ATOM     12  H6  <0> d          -2.271  -2.364   0.338  0.00  0.00     0.209 HD
ENDBRANCH   8  11
ENDBRANCH   1   8
BRANCH   1  13
ATOM     13  O2  <0> d           0.566  -0.466  -1.227  0.00  0.00    -0.391 OA
ATOM     14  H7  <0> d           0.080  -0.183  -2.014  0.00  0.00     0.210 HD
ENDBRANCH   1  13
TORSDOF 5
