REMARK  3 active torsions:
REMARK  status: ('A' for Active; 'I' for Inactive)
REMARK    1  A    between atoms: C1_1  and  C2_2 
REMARK    2  A    between atoms: C3_3  and  C5_8 
REMARK    3  A    between atoms: C4_5  and  N2_7 
ROOT
ATOM      1  C2  <0> d          -0.922   2.850   1.597  0.00  0.00     0.064 A 
ATOM      2  C3  <0> d          -0.718   1.572   1.248  0.00  0.00     0.077 A 
ATOM      3  O1  <0> d          -1.257   0.800   2.217  0.00  0.00    -0.281 OA
ATOM      4  C4  <0> d          -1.787   1.616   3.142  0.00  0.00     0.244 A 
ATOM      5  N1  <0> d          -1.589   2.856   2.767  0.00  0.00    -0.211 NA
ENDROOT
BRANCH   1   6
ATOM      6  C1  <0> d          -0.487   4.064   0.817  0.00  0.00    -0.033 C 
ATOM      7  H1  <0> d          -1.276   4.352   0.122  0.00  0.00     0.035 H 
ATOM      8  H2  <0> d          -0.290   4.886   1.505  0.00  0.00     0.035 H 
ATOM      9  H3  <0> d           0.421   3.832   0.260  0.00  0.00     0.035 H 
ENDBRANCH   1   6
BRANCH   2  10
ATOM     10  C5  <0> d          -0.013   1.086   0.008  0.00  0.00    -0.029 C 
ATOM     11  H6  <0> d           0.002  -0.004   0.002  0.00  0.00     0.036 H 
ATOM     12  H7  <0> d           1.010   1.463   0.000  0.00  0.00     0.036 H 
ATOM     13  H8  <0> d          -0.540   1.447  -0.875  0.00  0.00     0.036 H 
ENDBRANCH   2  10
BRANCH   4  14
ATOM     14  N2  <0> d          -2.435   1.215   4.295  0.00  0.00    -0.363 N 
ATOM     15  H4  <0> d          -2.536   0.271   4.491  0.00  0.00     0.159 HD
ATOM     16  H5  <0> d          -2.788   1.879   4.908  0.00  0.00     0.159 HD
ENDBRANCH   4  14
TORSDOF 3
