REMARK  5 active torsions:
REMARK  status: ('A' for Active; 'I' for Inactive)
REMARK    1  A    between atoms: C1_1  and  C2_2 
REMARK    2  A    between atoms: C3_3  and  C8_10 
REMARK    3  A    between atoms: C4_5  and  C5_7 
REMARK    4  A    between atoms: C5_7  and  C6_8 
REMARK    5  A    between atoms: C5_7  and  C7_9 
ROOT
ATOM      1  C2  <0> d          -1.587   3.064   2.758  0.00  0.00     0.044 A 
ATOM      2  C3  <0> d          -2.005   2.020   3.518  0.00  0.00     0.005 A 
ATOM      3  S1  <0> d          -1.433   0.645   2.531  0.00  0.00    -0.077 SA
ATOM      4  C4  <0> d          -0.718   1.572   1.248  0.00  0.00     0.079 A 
ATOM      5  N1  <0> d          -0.945   2.805   1.638  0.00  0.00    -0.250 NA
ENDROOT
BRANCH   4   6
ATOM      6  C5  <0> d          -0.013   1.086   0.008  0.00  0.00    -0.012 C 
ATOM      7  H4  <0> d           0.002  -0.004   0.002  0.00  0.00     0.049 H 
BRANCH   6   8
ATOM      8  C6  <0> d           1.423   1.615  -0.003  0.00  0.00    -0.067 C 
ATOM      9  H5  <0> d           1.408   2.705   0.003  0.00  0.00     0.028 H 
ATOM     10  H6  <0> d           1.950   1.254   0.880  0.00  0.00     0.028 H 
ATOM     11  H7  <0> d           1.933   1.264  -0.900  0.00  0.00     0.028 H 
ENDBRANCH   6   8
BRANCH   6  12
ATOM     12  C7  <0> d          -0.753   1.593  -1.232  0.00  0.00    -0.067 C 
ATOM     13  H8  <0> d          -0.242   1.241  -2.128  0.00  0.00     0.028 H 
ATOM     14  H9  <0> d          -1.775   1.215  -1.224  0.00  0.00     0.028 H 
ATOM     15  H10 <0> d          -0.767   2.683  -1.226  0.00  0.00     0.028 H 
ENDBRANCH   6  12
ENDBRANCH   4   6
BRANCH   2  16
ATOM     16  C8  <0> d          -2.746   2.020   4.830  0.00  0.00    -0.043 C 
ATOM     17  H11 <0> d          -2.917   0.993   5.151  0.00  0.00     0.034 H 
ATOM     18  H12 <0> d          -2.154   2.542   5.582  0.00  0.00     0.034 H 
ATOM     19  H13 <0> d          -3.704   2.526   4.707  0.00  0.00     0.034 H 
ENDBRANCH   2  16
BRANCH   1  20
ATOM     20  C1  <0> d          -1.845   4.485   3.189  0.00  0.00    -0.035 C 
ATOM     21  H1  <0> d          -1.012   4.837   3.798  0.00  0.00     0.035 H 
ATOM     22  H2  <0> d          -1.944   5.119   2.308  0.00  0.00     0.035 H 
ATOM     23  H3  <0> d          -2.765   4.526   3.772  0.00  0.00     0.035 H 
ENDBRANCH   1  20
TORSDOF 5
