REMARK  1 active torsions:
REMARK  status: ('A' for Active; 'I' for Inactive)
REMARK    1  A    between atoms: C1_1  and  N1_2 
ROOT
ATOM      1  N1  <0> d          -0.693   3.508   0.028  0.00  0.00    -0.353 N 
ATOM      2  C2  <0> d          -1.129   2.219   0.019  0.00  0.00     0.018 A 
ATOM      3  C3  <0> d          -0.017   1.428   0.010  0.00  0.00     0.153 A 
ATOM      4  N2  <0> d           1.067   2.244   0.004  0.00  0.00    -0.231 NA
ATOM      5  C4  <0> d           0.665   3.483   0.014  0.00  0.00     0.067 A 
ATOM      6  C5  <0> d           0.002  -0.004   0.002  0.00  0.00     0.121 C 
ATOM      7  N3  <0> d           0.018  -1.140  -0.004  0.00  0.00    -0.190 NA
ATOM      8  H4  <0> d          -2.156   1.886   0.021  0.00  0.00     0.116 H 
ATOM      9  H5  <0> d           1.308   4.350   0.013  0.00  0.00     0.143 H 
ENDROOT
BRANCH   1  10
ATOM     10  C1  <0> d          -1.536   4.706   0.042  0.00  0.00    -0.014 C 
ATOM     11  H1  <0> d          -1.754   5.009  -0.982  0.00  0.00     0.057 H 
ATOM     12  H2  <0> d          -2.468   4.489   0.563  0.00  0.00     0.057 H 
ATOM     13  H3  <0> d          -1.012   5.513   0.556  0.00  0.00     0.057 H 
ENDBRANCH   1  10
TORSDOF 1
