REMARK  2 active torsions:
REMARK  status: ('A' for Active; 'I' for Inactive)
REMARK    1  A    between atoms: C2_2  and  N3_9 
REMARK    2  A    between atoms: C4_4  and  N2_7 
ROOT
ATOM      1  C1  <0> d          -0.016   1.314   0.009  0.00  0.00     0.029 A 
ATOM      2  C2  <0> d           1.167   2.042   0.002  0.00  0.00     0.067 A 
ATOM      3  C3  <0> d           2.381   1.361  -0.013  0.00  0.00     0.089 A 
ATOM      4  C4  <0> d           2.356  -0.032  -0.021  0.00  0.00     0.067 A 
ATOM      5  C5  <0> d           1.131  -0.685  -0.012  0.00  0.00     0.029 A 
ATOM      6  N1  <0> d           0.002  -0.004   0.002  0.00  0.00    -0.268 NA
ATOM      7 Cl1  <0> d           3.887   2.224  -0.024  0.00  0.00    -0.079 Cl
ATOM      8  H1  <0> d          -0.962   1.835   0.026  0.00  0.00     0.118 H 
ATOM      9  H2  <0> d           1.102  -1.765  -0.018  0.00  0.00     0.118 H 
ENDROOT
BRANCH   2  10
ATOM     10  N3  <0> d           1.139   3.440   0.009  0.00  0.00    -0.397 N 
ATOM     11  H5  <0> d           0.290   3.908   0.019  0.00  0.00     0.156 HD
ATOM     12  H6  <0> d           1.969   3.941   0.004  0.00  0.00     0.156 HD
ENDBRANCH   2  10
BRANCH   4  13
ATOM     13  N2  <0> d           3.549  -0.762  -0.036  0.00  0.00    -0.397 N 
ATOM     14  H3  <0> d           4.401  -0.298  -0.042  0.00  0.00     0.156 HD
ATOM     15  H4  <0> d           3.523  -1.731  -0.041  0.00  0.00     0.156 HD
ENDBRANCH   4  13
TORSDOF 2
