REMARK  4 active torsions:
REMARK  status: ('A' for Active; 'I' for Inactive)
REMARK    1  A    between atoms: C1_1  and  C2_2 
REMARK    2  A    between atoms: C2_2  and  C3_3 
REMARK    3  A    between atoms: C2_2  and  C4_4 
REMARK    4  A    between atoms: C2_2  and  C5_5 
REMARK       I    between atoms: C5_5  and  N1_7 
ROOT
ATOM      1  C2  <0> d          -0.019   1.526   0.010  0.00  0.00     0.031 C 
ENDROOT
BRANCH   1   2
ATOM      2  C1  <0> d           0.002  -0.004   0.002  0.00  0.00    -0.061 C 
ATOM      3  H1  <0> d          -1.030  -0.385   0.010  0.00  0.00     0.029 H 
ATOM      4  H2  <0> d           0.534  -0.368   0.893  0.00  0.00     0.029 H 
ATOM      5  H3  <0> d           0.517  -0.359  -0.903  0.00  0.00     0.029 H 
ENDBRANCH   1   2
BRANCH   1   6
ATOM      6  C3  <0> d           1.417   2.055  -0.000  0.00  0.00    -0.061 C 
ATOM      7  H4  <0> d           1.402   3.155   0.006  0.00  0.00     0.029 H 
ATOM      8  H5  <0> d           1.932   1.700  -0.905  0.00  0.00     0.029 H 
ATOM      9  H6  <0> d           1.949   1.691   0.891  0.00  0.00     0.029 H 
ENDBRANCH   1   6
BRANCH   1  10
ATOM     10  C4  <0> d          -0.759   2.033  -1.229  0.00  0.00    -0.061 C 
ATOM     11  H7  <0> d          -0.774   3.132  -1.223  0.00  0.00     0.029 H 
ATOM     12  H8  <0> d          -1.791   1.652  -1.221  0.00  0.00     0.029 H 
ATOM     13  H9  <0> d          -0.244   1.678  -2.134  0.00  0.00     0.029 H 
ENDBRANCH   1  10
BRANCH   1  14
ATOM     14  C5  <0> d          -0.724   2.012   1.250  0.00  0.00     0.236 C 
ATOM     15  O1  <0> d          -1.165   1.216   2.046  0.00  0.00    -0.272 OA
ATOM     16  N1  <0> d          -0.863   3.334   1.472  0.00  0.00    -0.285 N 
ATOM     17  C8  <0> d          -0.420   4.343   0.668  0.00  0.00     0.072 A 
ATOM     18  C6  <0> d          -1.484   3.923   2.549  0.00  0.00     0.006 A 
ATOM     19  N2  <0> d          -0.742   5.480   1.218  0.00  0.00    -0.254 NA
ATOM     20  H12 <0> d           0.108   4.221  -0.265  0.00  0.00     0.144 H 
ATOM     21  C7  <0> d          -1.391   5.253   2.372  0.00  0.00     0.019 A 
ATOM     22  H11 <0> d          -1.776   6.008   3.040  0.00  0.00     0.117 H 
ATOM     23  H10 <0> d          -1.954   3.416   3.379  0.00  0.00     0.114 H 
ENDBRANCH   1  14
TORSDOF 4
