REMARK  5 active torsions:
REMARK  status: ('A' for Active; 'I' for Inactive)
REMARK    1  A    between atoms: C1_1  and  C2_2 
REMARK    2  A    between atoms: C2_2  and  C3_3 
REMARK    3  A    between atoms: C4_4  and  N5_11 
REMARK    4  A    between atoms: C5_6  and  N4_10 
REMARK    5  A    between atoms: C6_8  and  N3_9 
ROOT
ATOM      1  C3  <0> d          -0.718   1.572   1.248  0.00  0.00     0.034 A 
ATOM      2  C4  <0> d          -0.371   2.784   1.836  0.00  0.00     0.150 A 
ATOM      3  N1  <0> d          -1.019   3.184   2.928  0.00  0.00    -0.045 NA
ATOM      4  C5  <0> d          -1.976   2.438   3.460  0.00  0.00     0.724 A 
ATOM      5  N2  <0> d          -2.329   1.277   2.930  0.00  0.00    -0.045 NA
ATOM      6  C6  <0> d          -1.728   0.816   1.835  0.00  0.00     0.150 A 
ENDROOT
BRANCH   1   7
ATOM      7  C2  <0> d          -0.013   1.086   0.008  0.00  0.00    -0.037 C 
ATOM      8  H4  <0> d           0.002  -0.004   0.002  0.00  0.00     0.040 H 
ATOM      9  H5  <0> d           1.010   1.463   0.000  0.00  0.00     0.040 H 
BRANCH   7  10
ATOM     10  C1  <0> d          -0.753   1.593  -1.232  0.00  0.00    -0.072 C 
ATOM     11  H1  <0> d          -0.242   1.241  -2.128  0.00  0.00     0.028 H 
ATOM     12  H2  <0> d          -1.775   1.215  -1.224  0.00  0.00     0.028 H 
ATOM     13  H3  <0> d          -0.767   2.683  -1.226  0.00  0.00     0.028 H 
ENDBRANCH   7  10
ENDBRANCH   1   7
BRANCH   6  14
ATOM     14  N3  <0> d          -2.104  -0.401   1.287  0.00  0.00    -0.383 N 
ATOM     15  H6  <0> d          -1.662  -0.731   0.489  0.00  0.00     0.157 HD
ATOM     16  H7  <0> d          -2.809  -0.922   1.702  0.00  0.00     0.157 HD
ENDBRANCH   6  14
BRANCH   2  17
ATOM     17  N5  <0> d           0.634   3.568   1.289  0.00  0.00    -0.383 N 
ATOM     18  H10 <0> d           1.099   3.272   0.491  0.00  0.00     0.157 HD
ATOM     19  H11 <0> d           0.871   4.412   1.705  0.00  0.00     0.157 HD
ENDBRANCH   2  17
BRANCH   4  20
ATOM     20  N4  <0> d          -2.623   2.885   4.598  0.00  0.00    -0.231 N 
ATOM     21  H8  <0> d          -3.326   2.349   4.998  0.00  0.00     0.174 HD
ATOM     22  H9  <0> d          -2.374   3.733   4.997  0.00  0.00     0.174 HD
ENDBRANCH   4  20
TORSDOF 5
