REMARK  1 active torsions:
REMARK  status: ('A' for Active; 'I' for Inactive)
REMARK    1  A    between atoms: C3_4  and  C6_8 
ROOT
ATOM      1  C1  <0> d           1.163   2.039   0.002  0.00  0.00    -0.045 A 
ATOM      2  C2  <0> d          -0.016   1.311   0.009  0.00  0.00     0.005 A 
ATOM      3  N1  <0> d           0.002  -0.004   0.002  0.00  0.00    -0.254 NA
ATOM      4  C3  <0> d           1.141  -0.686  -0.013  0.00  0.00     0.134 A 
ATOM      5  C4  <0> d           2.365  -0.021  -0.021  0.00  0.00    -0.027 A 
ATOM      6  C5  <0> d           2.377   1.367  -0.013  0.00  0.00     0.037 A 
ATOM      7 Cl1  <0> d           3.876   2.243  -0.023  0.00  0.00    -0.084 Cl
ATOM      8  H1  <0> d           1.137   3.119   0.008  0.00  0.00     0.088 H 
ATOM      9  H2  <0> d          -0.963   1.830   0.017  0.00  0.00     0.114 H 
ATOM     10  H3  <0> d           3.291  -0.576  -0.033  0.00  0.00     0.090 H 
ENDROOT
BRANCH   4  11
ATOM     11  C6  <0> d           1.111  -2.166  -0.020  0.00  0.00     0.229 C 
ATOM     12  O1  <0> d           2.150  -2.795  -0.033  0.00  0.00    -0.643 OA
ATOM     13  O2  <0> d          -0.069  -2.816  -0.011  0.00  0.00    -0.643 OA
ENDBRANCH   4  11
TORSDOF 1
