REMARK  2 active torsions:
REMARK  status: ('A' for Active; 'I' for Inactive)
REMARK    1  A    between atoms: C4_4  and  C6_6 
REMARK    2  A    between atoms: C6_6  and  C7_7 
ROOT
ATOM      1  C1  <0> d           1.446  -0.380   0.409  0.00  0.00    -0.059 C 
ATOM      2  C2  <0> d           2.223   0.888  -0.014  0.00  0.00    -0.049 C 
ATOM      3  C3  <0> d           1.193   1.993   0.001  0.00  0.00    -0.100 C 
ATOM      4  C4  <0> d          -0.018   1.507   0.010  0.00  0.00    -0.074 C 
ATOM      5  C5  <0> d           0.002  -0.004   0.002  0.00  0.00    -0.044 C 
ATOM      6  H1  <0> d           1.519  -0.543   1.485  0.00  0.00     0.033 H 
ATOM      7  H2  <0> d           1.792  -1.254  -0.141  0.00  0.00     0.033 H 
ATOM      8  H3  <0> d           3.019   1.101   0.699  0.00  0.00     0.038 H 
ATOM      9  H4  <0> d           2.634   0.764  -1.016  0.00  0.00     0.038 H 
ATOM     10  H5  <0> d           1.428   3.047   0.004  0.00  0.00     0.077 H 
ATOM     11  H6  <0> d          -0.711  -0.398   0.726  0.00  0.00     0.039 H 
ATOM     12  H7  <0> d          -0.221  -0.381  -0.996  0.00  0.00     0.039 H 
ENDROOT
BRANCH   4  13
ATOM     13  C6  <0> d          -1.273   2.342   0.021  0.00  0.00     0.036 C 
ATOM     14  H8  <0> d          -2.039   1.840   0.612  0.00  0.00     0.055 H 
ATOM     15  H9  <0> d          -1.056   3.316   0.460  0.00  0.00     0.055 H 
BRANCH  13  16
ATOM     16  C7  <0> d          -1.766   2.525  -1.391  0.00  0.00     0.176 C 
ATOM     17  O1  <0> d          -1.162   2.028  -2.312  0.00  0.00    -0.648 OA
ATOM     18  O2  <0> d          -2.878   3.240  -1.626  0.00  0.00    -0.648 OA
ENDBRANCH  13  16
ENDBRANCH   4  13
TORSDOF 2
