REMARK  2 active torsions:
REMARK  status: ('A' for Active; 'I' for Inactive)
REMARK    1  A    between atoms: C1_1  and  C2_2 
REMARK    2  A    between atoms: C2_2  and  C7_11 
ROOT
ATOM      1  C2  <0> d           0.002  -0.004   0.002  0.00  0.00     0.065 C 
ATOM      2  C3  <0> d          -1.440  -0.553  -0.007  0.00  0.00    -0.013 C 
ATOM      3  C4  <0> d          -1.491  -1.380  -1.312  0.00  0.00     0.116 C 
ATOM      4  H1  <0> d          -1.970  -2.344  -1.137  0.00  0.00     0.078 H 
ATOM      5  C5  <0> d          -0.028  -1.569  -1.671  0.00  0.00     0.277 C 
ATOM      6  O1  <0> d           0.452  -2.511  -2.254  0.00  0.00    -0.264 OA
ATOM      7  O2  <0> d           0.635  -0.489  -1.216  0.00  0.00    -0.310 OA
ATOM      8  C6  <0> d          -2.192  -0.636  -2.370  0.00  0.00     0.074 C 
ATOM      9  N1  <0> d          -2.733  -0.061  -3.187  0.00  0.00    -0.196 NA
ATOM     10  H5  <0> d          -1.615  -1.190   0.860  0.00  0.00     0.040 H 
ATOM     11  H6  <0> d          -2.162   0.262  -0.040  0.00  0.00     0.040 H 
ENDROOT
BRANCH   1  12
ATOM     12  C1  <0> d          -0.019   1.526   0.010  0.00  0.00    -0.047 C 
ATOM     13  H2  <0> d           1.004   1.903   0.003  0.00  0.00     0.031 H 
ATOM     14  H3  <0> d          -0.546   1.887  -0.873  0.00  0.00     0.031 H 
ATOM     15  H4  <0> d          -0.529   1.877   0.907  0.00  0.00     0.031 H 
ENDBRANCH   1  12
BRANCH   1  16
ATOM     16  C7  <0> d           0.755  -0.525   1.228  0.00  0.00    -0.047 C 
ATOM     17  H7  <0> d           0.250  -0.189   2.134  0.00  0.00     0.031 H 
ATOM     18  H8  <0> d           0.774  -1.615   1.206  0.00  0.00     0.031 H 
ATOM     19  H9  <0> d           1.775  -0.143   1.217  0.00  0.00     0.031 H 
ENDBRANCH   1  16
TORSDOF 2
