REMARK  4 active torsions:
REMARK  status: ('A' for Active; 'I' for Inactive)
REMARK    1  A    between atoms: C1_1  and  N1_2 
REMARK       I    between atoms: N1_2  and  C2_3 
REMARK       I    between atoms: C2_3  and  N2_5 
REMARK    2  A    between atoms: N2_5  and  C3_6 
REMARK    3  A    between atoms: C3_6  and  C4_7 
REMARK    4  A    between atoms: C4_7  and  C5_8 
ROOT
ATOM      1  N1  <0> d          -6.091   1.613   0.040  0.00  0.00    -0.347 N 
ATOM      2  C2  <0> d          -4.915   0.955   0.031  0.00  0.00     0.315 C 
ATOM      3  O1  <0> d          -4.899  -0.260   0.024  0.00  0.00    -0.247 OA
ATOM      4  N2  <0> d          -3.757   1.645   0.029  0.00  0.00    -0.343 N 
ATOM      5  H4  <0> d          -6.106   2.713   0.046  0.00  0.00     0.163 HD
ATOM      6  H5  <0> d          -3.772   2.745   0.035  0.00  0.00     0.164 HD
ENDROOT
BRANCH   4   7
ATOM      7  C3  <0> d          -2.479   0.930   0.019  0.00  0.00     0.006 C 
ATOM      8  H6  <0> d          -2.408   0.293   0.913  0.00  0.00     0.064 H 
ATOM      9  H7  <0> d          -2.416   0.303  -0.883  0.00  0.00     0.064 H 
BRANCH   7  10
ATOM     10  C4  <0> d          -1.329   1.940   0.019  0.00  0.00     0.030 C 
ATOM     11  H8  <0> d          -1.401   2.576  -0.875  0.00  0.00     0.051 H 
ATOM     12  H9  <0> d          -1.392   2.566   0.921  0.00  0.00     0.051 H 
BRANCH  10  13
ATOM     13  C5  <0> d          -0.014   1.204   0.009  0.00  0.00     0.174 C 
ATOM     14  O2  <0> d           0.002  -0.004   0.002  0.00  0.00    -0.648 OA
ATOM     15  O3  <0> d           1.139   1.891   0.001  0.00  0.00    -0.648 OA
ENDBRANCH  10  13
ENDBRANCH   7  10
ENDBRANCH   4   7
BRANCH   1  16
ATOM     16  C1  <0> d          -7.350   0.864   0.042  0.00  0.00    -0.017 C 
ATOM     17  H1  <0> d          -8.196   1.567   0.049  0.00  0.00     0.056 H 
ATOM     18  H2  <0> d          -7.396   0.226   0.937  0.00  0.00     0.056 H 
ATOM     19  H3  <0> d          -7.404   0.235  -0.860  0.00  0.00     0.056 H 
ENDBRANCH   1  16
TORSDOF 4
