REMARK  1 active torsions:
REMARK  status: ('A' for Active; 'I' for Inactive)
REMARK    1  A    between atoms: C5_5  and  O1_7 
ROOT
ATOM      1  C1  <0> d          -0.017   1.378   0.010  0.00  0.00    -0.078 A 
ATOM      2  C2  <0> d           1.168   2.091   0.002  0.00  0.00    -0.055 A 
ATOM      3  C3  <0> d           2.381   1.419  -0.013  0.00  0.00     0.057 A 
ATOM      4  C4  <0> d           2.404   0.027  -0.019  0.00  0.00     0.088 A 
ATOM      5  C5  <0> d           1.211  -0.685  -0.012  0.00  0.00     0.094 A 
ATOM      6  C6  <0> d           0.002  -0.004   0.002  0.00  0.00    -0.049 A 
ATOM      7  N1  <0> d           3.635  -0.652  -0.029  0.00  0.00    -0.384 N 
ATOM      8  C7  <0> d           4.849   0.089  -0.401  0.00  0.00     0.007 C 
ATOM      9  C8  <0> d           4.830   1.438   0.332  0.00  0.00     0.007 C 
ATOM     10  N2  <0> d           3.586   2.137  -0.022  0.00  0.00    -0.386 N 
ATOM     11  H1  <0> d          -0.960   1.903   0.026  0.00  0.00     0.083 H 
ATOM     12  H2  <0> d           1.149   3.171   0.007  0.00  0.00     0.087 H 
ATOM     13  H3  <0> d          -0.927  -0.555   0.007  0.00  0.00     0.087 H 
ATOM     14  H5  <0> d           3.682  -1.593   0.205  0.00  0.00     0.159 HD
ATOM     15  H6  <0> d           5.731  -0.478  -0.104  0.00  0.00     0.066 H 
ATOM     16  H7  <0> d           4.863   0.255  -1.478  0.00  0.00     0.066 H 
ATOM     17  H8  <0> d           4.865   1.272   1.409  0.00  0.00     0.066 H 
ATOM     18  H9  <0> d           5.689   2.035   0.024  0.00  0.00     0.066 H 
ATOM     19  H10 <0> d           3.599   3.078  -0.260  0.00  0.00     0.159 HD
ENDROOT
BRANCH   5  20
ATOM     20  O1  <0> d           1.228  -2.045  -0.020  0.00  0.00    -0.358 OA
ATOM     21  H4  <0> d           1.240  -2.443   0.861  0.00  0.00     0.217 HD
ENDBRANCH   5  20
TORSDOF 1
