REMARK  8 active torsions:
REMARK  status: ('A' for Active; 'I' for Inactive)
REMARK    1  A    between atoms: C1_1  and  C2_2 
REMARK    2  A    between atoms: C2_2  and  C3_3 
REMARK    3  A    between atoms: C2_2  and  C4_4 
REMARK    4  A    between atoms: C4_4  and  C5_5 
REMARK    5  A    between atoms: C5_5  and  C6_7 
REMARK    6  A    between atoms: C5_5  and  O2_10 
REMARK    7  A    between atoms: C6_7  and  O1_8 
REMARK    8  A    between atoms: O1_8  and  C7_9 
ROOT
ATOM      1  C4  <0> d          -1.388  -0.642  -0.033  0.00  0.00    -0.036 C 
ATOM      2  H9  <0> d          -1.361  -1.719   0.132  0.00  0.00     0.037 H 
ATOM      3  H10 <0> d          -1.960  -0.167   0.764  0.00  0.00     0.037 H 
ENDROOT
BRANCH   1   4
ATOM      4  C2  <0> d           0.039  -0.090  -0.035  0.00  0.00    -0.059 C 
ATOM      5  H5  <0> d           0.019   0.968  -0.297  0.00  0.00     0.039 H 
BRANCH   4   6
ATOM      6  C1  <0> d           0.653  -0.259   1.357  0.00  0.00    -0.073 C 
ATOM      7  H2  <0> d           1.697   0.053   1.333  0.00  0.00     0.028 H 
ATOM      8  H3  <0> d           0.106   0.355   2.072  0.00  0.00     0.028 H 
ATOM      9  H4  <0> d           0.593  -1.305   1.655  0.00  0.00     0.028 H 
ENDBRANCH   4   6
BRANCH   4  10
ATOM     10  C3  <0> d           0.880  -0.854  -1.059  0.00  0.00    -0.073 C 
ATOM     11  H6  <0> d           0.900  -1.912  -0.797  0.00  0.00     0.028 H 
ATOM     12  H7  <0> d           0.442  -0.734  -2.050  0.00  0.00     0.028 H 
ATOM     13  H8  <0> d           1.896  -0.461  -1.061  0.00  0.00     0.028 H 
ENDBRANCH   4  10
ENDBRANCH   1   4
BRANCH   1  14
ATOM     14  C5  <0> d          -2.050  -0.348  -1.381  0.00  0.00     0.056 C 
ATOM     15  H1  <0> d          -1.440  -0.763  -2.183  0.00  0.00     0.086 H 
BRANCH  14  16
ATOM     16  C6  <0> d          -3.441  -0.986  -1.415  0.00  0.00     0.043 C 
ATOM     17  H11 <0> d          -3.358  -2.050  -1.194  0.00  0.00     0.078 H 
ATOM     18  H12 <0> d          -4.078  -0.509  -0.671  0.00  0.00     0.078 H 
BRANCH  16  19
ATOM     19  O1  <0> d          -4.012  -0.812  -2.714  0.00  0.00    -0.393 OA
BRANCH  19  20
ATOM     20  C7  <0> d          -5.318  -1.375  -2.854  0.00  0.00     0.004 C 
ATOM     21  H13 <0> d          -5.274  -2.447  -2.663  0.00  0.00     0.066 H 
ATOM     22  H14 <0> d          -5.995  -0.906  -2.139  0.00  0.00     0.066 H 
ATOM     23  H15 <0> d          -5.682  -1.201  -3.866  0.00  0.00     0.066 H 
ENDBRANCH  19  20
ENDBRANCH  16  19
ENDBRANCH  14  16
BRANCH  14  24
ATOM     24  O2  <0> d          -2.170   1.065  -1.555  0.00  0.00    -0.393 OA
ATOM     25  H16 <0> d          -2.701   1.501  -0.875  0.00  0.00     0.210 HD
ENDBRANCH  14  24
ENDBRANCH   1  14
TORSDOF 8
