REMARK  4 active torsions:
REMARK  status: ('A' for Active; 'I' for Inactive)
REMARK    1  A    between atoms: C1_1  and  C2_2 
REMARK    2  A    between atoms: C1_1  and  O2_6 
REMARK    3  A    between atoms: C3_3  and  C4_4 
REMARK    4  A    between atoms: C4_4  and  O1_5 
ROOT
ATOM      1  C2  <0> d          -1.756  -1.501  -0.791  0.00  0.00    -0.082 C 
ATOM      2  C3  <0> d          -1.412  -0.526   0.013  0.00  0.00    -0.082 C 
ATOM      3  H3  <0> d          -1.027  -1.931  -1.462  0.00  0.00     0.079 H 
ATOM      4  H4  <0> d          -2.141  -0.096   0.683  0.00  0.00     0.079 H 
ENDROOT
BRANCH   1   5
ATOM      5  C1  <0> d          -3.170  -2.022  -0.781  0.00  0.00     0.032 C 
ATOM      6  H1  <0> d          -3.198  -2.986  -0.272  0.00  0.00     0.080 H 
ATOM      7  H2  <0> d          -3.814  -1.316  -0.257  0.00  0.00     0.080 H 
BRANCH   5   8
ATOM      8  O2  <0> d          -3.630  -2.180  -2.125  0.00  0.00    -0.397 OA
ATOM      9  H8  <0> d          -4.535  -2.513  -2.194  0.00  0.00     0.209 HD
ENDBRANCH   5   8
ENDBRANCH   1   5
BRANCH   2  10
ATOM     10  C4  <0> d           0.002  -0.004   0.002  0.00  0.00     0.032 C 
ATOM     11  H5  <0> d           0.512  -0.356  -0.895  0.00  0.00     0.080 H 
ATOM     12  H6  <0> d           0.529  -0.365   0.885  0.00  0.00     0.080 H 
BRANCH  10  13
ATOM     13  O1  <0> d          -0.017   1.425   0.010  0.00  0.00    -0.397 OA
ATOM     14  H7  <0> d           0.861   1.830   0.004  0.00  0.00     0.209 HD
ENDBRANCH  10  13
ENDBRANCH   2  10
TORSDOF 4
