REMARK  2 active torsions:
REMARK  status: ('A' for Active; 'I' for Inactive)
REMARK    1  A    between atoms: C1_1  and  N1_2 
REMARK    2  A    between atoms: C3_4  and  C5_7 
ROOT
ATOM      1  N1  <0> d          -0.018   1.461   0.010  0.00  0.00    -0.353 N 
ATOM      2  C2  <0> d          -1.122   2.244   0.019  0.00  0.00     0.015 A 
ATOM      3  C3  <0> d          -0.689   3.538   0.026  0.00  0.00     0.149 A 
ATOM      4  N2  <0> d           0.669   3.515   0.014  0.00  0.00    -0.236 NA
ATOM      5  C4  <0> d           1.069   2.277   0.004  0.00  0.00     0.066 A 
ATOM      6  H4  <0> d          -2.148   1.908   0.022  0.00  0.00     0.115 H 
ATOM      7  H5  <0> d           2.098   1.950  -0.007  0.00  0.00     0.143 H 
ENDROOT
BRANCH   1   8
ATOM      8  C1  <0> d           0.002  -0.004   0.002  0.00  0.00    -0.014 C 
ATOM      9  H1  <0> d           0.016  -0.373   1.028  0.00  0.00     0.057 H 
ATOM     10  H2  <0> d          -0.887  -0.377  -0.506  0.00  0.00     0.057 H 
ATOM     11  H3  <0> d           0.892  -0.352  -0.522  0.00  0.00     0.057 H 
ENDBRANCH   1   8
BRANCH   3  12
ATOM     12  C5  <0> d          -1.539   4.740   0.040  0.00  0.00     0.230 C 
ATOM     13  O1  <0> d          -2.749   4.628   0.050  0.00  0.00    -0.643 OA
ATOM     14  O2  <0> d          -0.975   5.964   0.040  0.00  0.00    -0.643 OA
ENDBRANCH   3  12
TORSDOF 2
