REMARK  5 active torsions:
REMARK  status: ('A' for Active; 'I' for Inactive)
REMARK    1  A    between atoms: C1_1  and  N1_2 
REMARK    2  A    between atoms: C3_4  and  N3_11 
REMARK    3  A    between atoms: C4_5  and  C5_7 
REMARK    4  A    between atoms: C5_7  and  O2_9 
REMARK    5  A    between atoms: O2_9  and  C6_10 
ROOT
ATOM      1  N1  <0> d          -2.718   3.529   0.034  0.00  0.00    -0.282 N 
ATOM      2  C2  <0> d          -3.462   2.392   0.032  0.00  0.00     0.026 A 
ATOM      3  C3  <0> d          -2.594   1.346   0.022  0.00  0.00     0.080 A 
ATOM      4  C4  <0> d          -1.300   1.930   0.019  0.00  0.00     0.179 A 
ATOM      5  N2  <0> d          -1.467   3.240   0.032  0.00  0.00    -0.165 NA
ATOM      6  H4  <0> d          -4.541   2.330   0.036  0.00  0.00     0.117 H 
ENDROOT
BRANCH   4   7
ATOM      7  C5  <0> d          -0.014   1.211   0.009  0.00  0.00     0.315 C 
ATOM      8  O1  <0> d           0.002  -0.004   0.002  0.00  0.00    -0.257 OA
BRANCH   7   9
ATOM      9  O2  <0> d           1.143   1.901   0.001  0.00  0.00    -0.321 OA
BRANCH   9  10
ATOM     10  C6  <0> d           2.372   1.127  -0.015  0.00  0.00     0.013 C 
ATOM     11  H5  <0> d           2.397   0.503  -0.908  0.00  0.00     0.067 H 
ATOM     12  H6  <0> d           3.227   1.802  -0.019  0.00  0.00     0.067 H 
ATOM     13  H7  <0> d           2.414   0.493   0.872  0.00  0.00     0.067 H 
ENDBRANCH   9  10
ENDBRANCH   7   9
ENDBRANCH   4   7
BRANCH   3  14
ATOM     14  N3  <0> d          -2.909  -0.020   0.015  0.00  0.00    -0.396 N 
ATOM     15  H8  <0> d          -2.199  -0.682   0.008  0.00  0.00     0.156 HD
ATOM     16  H9  <0> d          -3.836  -0.304   0.018  0.00  0.00     0.156 HD
ENDBRANCH   3  14
BRANCH   1  17
ATOM     17  C1  <0> d          -3.265   4.888   0.043  0.00  0.00     0.002 C 
ATOM     18  H1  <0> d          -3.396   5.220   1.073  0.00  0.00     0.059 H 
ATOM     19  H2  <0> d          -2.577   5.559  -0.470  0.00  0.00     0.059 H 
ATOM     20  H3  <0> d          -4.228   4.896  -0.466  0.00  0.00     0.059 H 
ENDBRANCH   1  17
TORSDOF 5
