REMARK  4 active torsions:
REMARK  status: ('A' for Active; 'I' for Inactive)
REMARK    1  A    between atoms: N4_5  and  C2_6 
REMARK    2  A    between atoms: C2_6  and  C3_7 
REMARK    3  A    between atoms: C3_7  and  C4_8 
REMARK    4  A    between atoms: C4_8  and  C5_9 
ROOT
ATOM      1  C2  <0> d          -0.013   1.086   0.008  0.00  0.00     0.020 C 
ATOM      2  H2  <0> d           1.019   1.466   0.000  0.00  0.00     0.067 H 
ATOM      3  H3  <0> d           0.002  -0.014   0.002  0.00  0.00     0.067 H 
ENDROOT
BRANCH   1   4
ATOM      4  N4  <0> d          -0.698   1.558   1.213  0.00  0.00    -0.242 N 
ATOM      5  C1  <0> d          -1.158   0.795   2.222  0.00  0.00     0.107 A 
ATOM      6  N1  <0> d          -1.698   1.611   3.095  0.00  0.00    -0.122 NA
ATOM      7  H1  <0> d          -1.093  -0.280   2.300  0.00  0.00     0.149 H 
ATOM      8  N2  <0> d          -1.584   2.812   2.641  0.00  0.00    -0.024 NA
ATOM      9  N3  <0> d          -0.980   2.783   1.504  0.00  0.00    -0.045 NA
ENDBRANCH   1   4
BRANCH   1  10
ATOM     10  C3  <0> d          -0.753   1.593  -1.232  0.00  0.00    -0.039 C 
ATOM     11  H4  <0> d          -1.785   1.212  -1.224  0.00  0.00     0.036 H 
ATOM     12  H5  <0> d          -0.768   2.693  -1.226  0.00  0.00     0.036 H 
BRANCH  10  13
ATOM     13  C4  <0> d          -0.037   1.099  -2.490  0.00  0.00     0.017 C 
ATOM     14  H6  <0> d           0.995   1.480  -2.498  0.00  0.00     0.049 H 
ATOM     15  H7  <0> d          -0.022  -0.001  -2.496  0.00  0.00     0.049 H 
BRANCH  13  16
ATOM     16  C5  <0> d          -0.765   1.598  -3.711  0.00  0.00     0.172 C 
ATOM     17  O1  <0> d          -1.756   2.279  -3.587  0.00  0.00    -0.648 OA
ATOM     18  O2  <0> d          -0.314   1.287  -4.936  0.00  0.00    -0.648 OA
ENDBRANCH  13  16
ENDBRANCH  10  13
ENDBRANCH   1  10
TORSDOF 4
