REMARK  3 active torsions:
REMARK  status: ('A' for Active; 'I' for Inactive)
REMARK    1  A    between atoms: C2_2  and  O4_12 
REMARK    2  A    between atoms: C3_4  and  O3_11 
REMARK    3  A    between atoms: C5_8  and  O2_10 
ROOT
ATOM      1  C1  <0> d          -1.506   3.553   0.116  0.00  0.00     0.007 C 
ATOM      2  C2  <0> d          -0.823   3.123  -1.186  0.00  0.00     0.066 C 
ATOM      3  H1  <0> d           0.186   3.534  -1.223  0.00  0.00     0.087 H 
ATOM      4  C3  <0> d          -0.754   1.593  -1.232  0.00  0.00     0.081 C 
ATOM      5  H2  <0> d          -0.220   1.280  -2.129  0.00  0.00     0.090 H 
ATOM      6  C4  <0> d          -0.013   1.086   0.008  0.00  0.00     0.049 C 
ATOM      7  O1  <0> d          -0.682   1.547   1.183  0.00  0.00    -0.359 OA
ATOM      8  C5  <0> d          -0.736   2.970   1.304  0.00  0.00     0.131 C 
ATOM      9  H3  <0> d           0.277   3.372   1.313  0.00  0.00     0.128 H 
ATOM     10  H4  <0> d          -1.509   4.641   0.183  0.00  0.00     0.044 H 
ATOM     11  H5  <0> d          -2.531   3.183   0.129  0.00  0.00     0.044 H 
ATOM     12  H6  <0> d           0.002  -0.004   0.002  0.00  0.00     0.078 H 
ATOM     13  H7  <0> d           1.010   1.463   0.000  0.00  0.00     0.078 H 
ENDROOT
BRANCH   2  14
ATOM     14  O4  <0> d          -1.576   3.601  -2.301  0.00  0.00    -0.393 OA
ATOM     15  H10 <0> d          -1.661   4.564  -2.335  0.00  0.00     0.210 HD
ENDBRANCH   2  14
BRANCH   4  16
ATOM     16  O3  <0> d          -2.078   1.056  -1.250  0.00  0.00    -0.391 OA
ATOM     17  H9  <0> d          -2.110   0.090  -1.275  0.00  0.00     0.210 HD
ENDBRANCH   4  16
BRANCH   8  18
ATOM     18  O2  <0> d          -1.399   3.320   2.520  0.00  0.00    -0.371 OA
ATOM     19  H8  <0> d          -0.965   2.983   3.316  0.00  0.00     0.212 HD
ENDBRANCH   8  18
TORSDOF 3
