REMARK  5 active torsions:
REMARK  status: ('A' for Active; 'I' for Inactive)
REMARK    1  A    between atoms: C1_1  and  C2_2 
REMARK    2  A    between atoms: C2_2  and  C3_3 
REMARK    3  A    between atoms: C2_2  and  C4_4 
REMARK    4  A    between atoms: C5_6  and  C6_9 
REMARK    5  A    between atoms: C6_9  and  O2_10 
ROOT
ATOM      1  C4  <0> d          -0.749   3.086   1.275  0.00  0.00     0.176 A 
ATOM      2  N1  <0> d          -1.813   3.853   1.289  0.00  0.00    -0.206 NA
ATOM      3  C5  <0> d          -1.350   5.115   1.292  0.00  0.00     0.179 A 
ATOM      4  N2  <0> d          -0.052   5.053   1.279  0.00  0.00    -0.109 NA
ATOM      5  O1  <0> d           0.313   3.897   1.275  0.00  0.00    -0.196 OA
ENDROOT
BRANCH   1   6
ATOM      6  C2  <0> d          -0.729   1.579   1.267  0.00  0.00     0.005 C 
ATOM      7  H4  <0> d          -1.751   1.202   1.275  0.00  0.00     0.051 H 
BRANCH   6   8
ATOM      8  C1  <0> d          -0.013   1.086   0.008  0.00  0.00    -0.066 C 
ATOM      9  H1  <0> d           0.002  -0.004   0.002  0.00  0.00     0.028 H 
ATOM     10  H2  <0> d           1.010   1.463   0.000  0.00  0.00     0.028 H 
ATOM     11  H3  <0> d          -0.540   1.447  -0.875  0.00  0.00     0.028 H 
ENDBRANCH   6   8
BRANCH   6  12
ATOM     12  C3  <0> d           0.011   1.072   2.506  0.00  0.00    -0.066 C 
ATOM     13  H5  <0> d           1.034   1.450   2.499  0.00  0.00     0.028 H 
ATOM     14  H6  <0> d          -0.499   1.424   3.403  0.00  0.00     0.028 H 
ATOM     15  H7  <0> d           0.026  -0.018   2.500  0.00  0.00     0.028 H 
ENDBRANCH   6  12
ENDBRANCH   1   6
BRANCH   3  16
ATOM     16  C6  <0> d          -2.183   6.371   1.307  0.00  0.00     0.075 C 
ATOM     17  H8  <0> d          -1.647   7.168   0.792  0.00  0.00     0.086 H 
ATOM     18  H9  <0> d          -3.130   6.185   0.801  0.00  0.00     0.086 H 
BRANCH  16  19
ATOM     19  O2  <0> d          -2.433   6.761   2.659  0.00  0.00    -0.393 OA
ATOM     20  H10 <0> d          -2.965   7.563   2.745  0.00  0.00     0.209 HD
ENDBRANCH  16  19
ENDBRANCH   3  16
TORSDOF 5
