REMARK  2 active torsions:
REMARK  status: ('A' for Active; 'I' for Inactive)
REMARK    1  A    between atoms: C1_1  and  C2_2 
REMARK    2  A    between atoms: C3_3  and  C5_8 
ROOT
ATOM      1  C2  <0> d           0.623   3.170   0.012  0.00  0.00     0.040 A 
ATOM      2  C3  <0> d          -0.722   3.114   0.024  0.00  0.00     0.163 A 
ATOM      3  N1  <0> d          -1.083   1.822   0.017  0.00  0.00    -0.237 NA
ATOM      4  C4  <0> d          -0.013   1.076   0.008  0.00  0.00     0.065 A 
ATOM      5  N2  <0> d           1.074   1.878   0.002  0.00  0.00    -0.353 N 
ATOM      6  H1  <0> d           2.029   1.582  -0.008  0.00  0.00     0.166 HD
ATOM      7  H5  <0> d           0.002  -0.004   0.002  0.00  0.00     0.143 H 
ENDROOT
BRANCH   1   8
ATOM      8  C1  <0> d           1.470   4.417   0.011  0.00  0.00    -0.035 C 
ATOM      9  H2  <0> d           1.665   4.723  -1.016  0.00  0.00     0.035 H 
ATOM     10  H3  <0> d           0.943   5.215   0.534  0.00  0.00     0.035 H 
ATOM     11  H4  <0> d           2.415   4.215   0.516  0.00  0.00     0.035 H 
ENDBRANCH   1   8
BRANCH   2  12
ATOM     12  C5  <0> d          -1.658   4.295   0.038  0.00  0.00     0.436 C 
ATOM     13  F1  <0> d          -1.960   4.666  -1.277  0.00  0.00    -0.165 F 
ATOM     14  F2  <0> d          -2.837   3.948   0.707  0.00  0.00    -0.165 F 
ATOM     15  F3  <0> d          -1.046   5.367   0.697  0.00  0.00    -0.165 F 
ENDBRANCH   2  12
TORSDOF 2
