REMARK  1 active torsions:
REMARK  status: ('A' for Active; 'I' for Inactive)
REMARK    1  A    between atoms: C1_1  and  N1_2 
ROOT
ATOM      1  N1  <0> d           0.002  -0.004   0.002  0.00  0.00    -0.288 N 
ATOM      2  C2  <0> d          -1.049  -0.848   0.002  0.00  0.00     0.255 A 
ATOM      3  O1  <0> d          -2.202  -0.443   0.009  0.00  0.00    -0.267 OA
ATOM      4  C3  <0> d          -0.749  -2.199  -0.007  0.00  0.00     0.012 A 
ATOM      5  C4  <0> d           0.574  -2.511  -0.014  0.00  0.00     0.096 A 
ATOM      6  S1  <0> d           1.334  -1.016  -0.017  0.00  0.00     0.003 SA
ATOM      7 Cl1  <0> d           1.305  -4.085  -0.025  0.00  0.00    -0.075 Cl
ATOM      8  H4  <0> d          -1.517  -2.958  -0.007  0.00  0.00     0.095 H 
ENDROOT
BRANCH   1   9
ATOM      9  C1  <0> d          -0.018   1.461   0.010  0.00  0.00    -0.005 C 
ATOM     10  H1  <0> d           1.005   1.838   0.002  0.00  0.00     0.058 H 
ATOM     11  H2  <0> d          -0.545   1.822  -0.873  0.00  0.00     0.058 H 
ATOM     12  H3  <0> d          -0.528   1.812   0.907  0.00  0.00     0.058 H 
ENDBRANCH   1   9
TORSDOF 1
