REMARK  2 active torsions:
REMARK  status: ('A' for Active; 'I' for Inactive)
REMARK    1  A    between atoms: C1_1  and  C2_2 
REMARK    2  A    between atoms: C5_8  and  C6_10 
ROOT
ATOM      1  C2  <0> d          -0.811   1.623  -1.203  0.00  0.00    -0.020 C 
ATOM      2  H1  <0> d          -0.827   0.894  -2.013  0.00  0.00     0.044 H 
ATOM      3  C3  <0> d          -0.013   1.086   0.008  0.00  0.00     0.015 C 
ATOM      4  C4  <0> d          -0.771   1.598   1.213  0.00  0.00     0.218 C 
ATOM      5  O1  <0> d          -0.333   1.640   2.343  0.00  0.00    -0.274 OA
ATOM      6  N1  <0> d          -2.003   2.000   0.844  0.00  0.00    -0.346 N 
ATOM      7  C5  <0> d          -2.219   1.807  -0.595  0.00  0.00     0.100 C 
ATOM      8  H2  <0> d          -2.704   2.683  -1.025  0.00  0.00     0.090 H 
ATOM      9  H6  <0> d           0.002  -0.004   0.002  0.00  0.00     0.047 H 
ATOM     10  H7  <0> d           1.003   1.480   0.000  0.00  0.00     0.047 H 
ATOM     11  H8  <0> d          -2.662   2.370   1.451  0.00  0.00     0.163 HD
ENDROOT
BRANCH   1  12
ATOM     12  C1  <0> d          -0.243   2.960  -1.683  0.00  0.00    -0.070 C 
ATOM     13  H3  <0> d           0.789   2.822  -2.005  0.00  0.00     0.028 H 
ATOM     14  H4  <0> d          -0.838   3.328  -2.519  0.00  0.00     0.028 H 
ATOM     15  H5  <0> d          -0.276   3.683  -0.868  0.00  0.00     0.028 H 
ENDBRANCH   1  12
BRANCH   7  16
ATOM     16  C6  <0> d          -3.055   0.576  -0.836  0.00  0.00     0.197 C 
ATOM     17  O2  <0> d          -3.198  -0.239   0.044  0.00  0.00    -0.646 OA
ATOM     18  O3  <0> d          -3.642   0.386  -2.028  0.00  0.00    -0.646 OA
ENDBRANCH   7  16
TORSDOF 2
