REMARK  7 active torsions:
REMARK  status: ('A' for Active; 'I' for Inactive)
REMARK    1  A    between atoms: C1_1  and  C2_2 
REMARK    2  A    between atoms: C2_2  and  O1_3 
REMARK    3  A    between atoms: O1_3  and  C3_4 
REMARK    4  A    between atoms: C3_4  and  N1_5 
REMARK       I    between atoms: N1_5  and  C4_6 
REMARK    5  A    between atoms: C4_6  and  C5_8 
REMARK    6  A    between atoms: C5_8  and  C6_9 
REMARK    7  A    between atoms: C5_8  and  C7_10 
ROOT
ATOM      1  N1  <0> d          -0.011   0.966   0.007  0.00  0.00    -0.340 N 
ATOM      2  C4  <0> d           1.147   1.655  -0.000  0.00  0.00     0.222 C 
ATOM      3  O2  <0> d           1.130   2.868   0.007  0.00  0.00    -0.273 OA
ATOM      4  H8  <0> d           0.002  -0.004   0.002  0.00  0.00     0.164 HD
ENDROOT
BRANCH   1   5
ATOM      5  C3  <0> d          -1.290   1.681   0.017  0.00  0.00     0.079 C 
ATOM      6  H6  <0> d          -2.015   1.121   0.607  0.00  0.00     0.107 H 
ATOM      7  H7  <0> d          -1.150   2.669   0.456  0.00  0.00     0.107 H 
BRANCH   5   8
ATOM      8  O1  <0> d          -1.769   1.818  -1.322  0.00  0.00    -0.372 OA
BRANCH   8   9
ATOM      9  C2  <0> d          -2.406   0.646  -1.834  0.00  0.00     0.018 C 
ATOM     10  H4  <0> d          -1.698  -0.183  -1.829  0.00  0.00     0.073 H 
ATOM     11  H5  <0> d          -3.263   0.396  -1.210  0.00  0.00     0.073 H 
BRANCH   9  12
ATOM     12  C1  <0> d          -2.877   0.906  -3.267  0.00  0.00    -0.056 C 
ATOM     13  H1  <0> d          -3.584   1.736  -3.272  0.00  0.00     0.030 H 
ATOM     14  H2  <0> d          -2.019   1.157  -3.891  0.00  0.00     0.030 H 
ATOM     15  H3  <0> d          -3.362   0.012  -3.658  0.00  0.00     0.030 H 
ENDBRANCH   9  12
ENDBRANCH   8   9
ENDBRANCH   5   8
ENDBRANCH   1   5
BRANCH   2  16
ATOM     16  C5  <0> d           2.462   0.920  -0.017  0.00  0.00     0.017 C 
ATOM     17  H9  <0> d           2.520   0.299  -0.910  0.00  0.00     0.053 H 
BRANCH  16  18
ATOM     18  C6  <0> d           3.611   1.930  -0.022  0.00  0.00    -0.065 C 
ATOM     19  H10 <0> d           3.554   2.551   0.872  0.00  0.00     0.028 H 
ATOM     20  H11 <0> d           4.562   1.398  -0.034  0.00  0.00     0.028 H 
ATOM     21  H12 <0> d           3.537   2.560  -0.908  0.00  0.00     0.028 H 
ENDBRANCH  16  18
BRANCH  16  22
ATOM     22  C7  <0> d           2.567   0.035   1.227  0.00  0.00    -0.065 C 
ATOM     23  H13 <0> d           2.509   0.656   2.121  0.00  0.00     0.028 H 
ATOM     24  H14 <0> d           1.748  -0.685   1.231  0.00  0.00     0.028 H 
ATOM     25  H15 <0> d           3.518  -0.497   1.215  0.00  0.00     0.028 H 
ENDBRANCH  16  22
ENDBRANCH   2  16
TORSDOF 7
