REMARK  1 active torsions:
REMARK  status: ('A' for Active; 'I' for Inactive)
REMARK    1  A    between atoms: C1_1  and  C3_7 
ROOT
ATOM      1  C1  <0> d          -0.722   1.881   1.250  0.00  0.00     0.279 A 
ATOM      2  N1  <0> d          -1.231   1.125   2.165  0.00  0.00    -0.114 NA
ATOM      3  N2  <0> d          -1.793   1.955   3.146  0.00  0.00    -0.081 NA
ATOM      4  C2  <0> d          -1.580   3.227   2.747  0.00  0.00     0.411 A 
ATOM      5  O1  <0> d          -1.923   4.235   3.336  0.00  0.00    -0.234 OA
ATOM      6  O2  <0> d          -0.916   3.173   1.581  0.00  0.00    -0.233 OA
ENDROOT
BRANCH   1   7
ATOM      7  C3  <0> d          -0.017   1.395   0.010  0.00  0.00     0.460 C 
ATOM      8  F1  <0> d           0.002  -0.004   0.002  0.00  0.00    -0.163 F 
ATOM      9  F2  <0> d           1.296   1.879  -0.000  0.00  0.00    -0.163 F 
ATOM     10  F3  <0> d          -0.694   1.858  -1.124  0.00  0.00    -0.163 F 
ENDBRANCH   1   7
TORSDOF 1
