REMARK  1 active torsions:
REMARK  status: ('A' for Active; 'I' for Inactive)
REMARK    1  A    between atoms: C1_1  and  C2_2 
ROOT
ATOM      1  C2  <0> d           1.158   2.088   0.002  0.00  0.00    -0.014 A 
ATOM      2  C3  <0> d          -0.017   1.399   0.010  0.00  0.00    -0.072 A 
ATOM      3  C4  <0> d           0.002  -0.004   0.002  0.00  0.00    -0.065 A 
ATOM      4  C5  <0> d           1.179  -0.668  -0.012  0.00  0.00     0.006 A 
ATOM      5  N1  <0> d           2.357   0.011  -0.020  0.00  0.00    -0.225 N 
ATOM      6  C6  <0> d           2.372   1.377  -0.013  0.00  0.00     0.157 A 
ATOM      7  N2  <0> d           3.643   1.761  -0.024  0.00  0.00    -0.220 NA
ATOM      8  C7  <0> d           4.431   0.695  -0.037  0.00  0.00     0.108 A 
ATOM      9  N3  <0> d           3.699  -0.394  -0.035  0.00  0.00    -0.160 NA
ATOM     10  H4  <0> d          -0.958   1.929   0.017  0.00  0.00     0.084 H 
ATOM     11  H5  <0> d          -0.927  -0.555   0.008  0.00  0.00     0.085 H 
ATOM     12  H6  <0> d           1.185  -1.748  -0.018  0.00  0.00     0.114 H 
ATOM     13  H7  <0> d           5.510   0.719  -0.048  0.00  0.00     0.149 H 
ENDROOT
BRANCH   1  14
ATOM     14  C1  <0> d           1.157   3.595   0.010  0.00  0.00    -0.048 C 
ATOM     15  H1  <0> d           1.166   3.953   1.039  0.00  0.00     0.033 H 
ATOM     16  H2  <0> d           2.042   3.961  -0.510  0.00  0.00     0.033 H 
ATOM     17  H3  <0> d           0.262   3.960  -0.494  0.00  0.00     0.033 H 
ENDBRANCH   1  14
TORSDOF 1
