REMARK  3 active torsions:
REMARK  status: ('A' for Active; 'I' for Inactive)
REMARK    1  A    between atoms: C1_1  and  C2_2 
REMARK    2  A    between atoms: C2_2  and  C3_3 
REMARK    3  A    between atoms: C2_2  and  C4_4 
ROOT
ATOM      1  C4  <0> d          -1.412  -0.526   0.013  0.00  0.00     0.109 A 
ATOM      2  N1  <0> d          -1.665  -1.753  -0.483  0.00  0.00    -0.311 N 
ATOM      3  H1  <0> d          -0.941  -2.290  -0.842  0.00  0.00     0.170 HD
ATOM      4  C5  <0> d          -2.926  -2.233  -0.480  0.00  0.00     0.247 A 
ATOM      5  O1  <0> d          -3.172  -3.342  -0.925  0.00  0.00    -0.268 OA
ATOM      6  C6  <0> d          -3.955  -1.426   0.049  0.00  0.00    -0.000 A 
ATOM      7  C7  <0> d          -3.632  -0.195   0.534  0.00  0.00     0.009 A 
ATOM      8  N2  <0> d          -2.364   0.220   0.507  0.00  0.00    -0.247 NA
ATOM      9  H9  <0> d          -4.976  -1.776   0.068  0.00  0.00     0.094 H 
ATOM     10  H10 <0> d          -4.401   0.443   0.945  0.00  0.00     0.115 H 
ENDROOT
BRANCH   1  11
ATOM     11  C2  <0> d           0.002  -0.004   0.002  0.00  0.00    -0.003 C 
ATOM     12  H5  <0> d           0.512  -0.356  -0.895  0.00  0.00     0.050 H 
BRANCH  11  13
ATOM     13  C1  <0> d          -0.019   1.526   0.010  0.00  0.00    -0.067 C 
ATOM     14  H2  <0> d           1.004   1.903   0.003  0.00  0.00     0.028 H 
ATOM     15  H3  <0> d          -0.546   1.887  -0.873  0.00  0.00     0.028 H 
ATOM     16  H4  <0> d          -0.529   1.877   0.907  0.00  0.00     0.028 H 
ENDBRANCH  11  13
BRANCH  11  17
ATOM     17  C3  <0> d           0.742  -0.511   1.242  0.00  0.00    -0.067 C 
ATOM     18  H6  <0> d           0.232  -0.159   2.138  0.00  0.00     0.028 H 
ATOM     19  H7  <0> d           0.757  -1.601   1.236  0.00  0.00     0.028 H 
ATOM     20  H8  <0> d           1.765  -0.134   1.234  0.00  0.00     0.028 H 
ENDBRANCH  11  17
ENDBRANCH   1  11
TORSDOF 3
