REMARK  1 active torsions:
REMARK  status: ('A' for Active; 'I' for Inactive)
REMARK    1  A    between atoms: C1_1  and  C2_2 
ROOT
ATOM      1  C2  <0> d          -3.020   3.959   0.051  0.00  0.00    -0.057 A 
ATOM      2  C3  <0> d          -1.676   4.254   0.040  0.00  0.00    -0.049 A 
ATOM      3  C4  <0> d          -0.739   3.224   0.026  0.00  0.00     0.065 A 
ATOM      4  C5  <0> d          -1.174   1.886   0.017  0.00  0.00     0.050 A 
ATOM      5  C6  <0> d          -0.013   1.076   0.008  0.00  0.00     0.037 A 
ATOM      6  N1  <0> d           1.034   1.849   0.002  0.00  0.00    -0.186 NA
ATOM      7  N2  <0> d           0.632   3.190   0.013  0.00  0.00    -0.278 N 
ATOM      8  H1  <0> d           1.239   3.985   0.011  0.00  0.00     0.189 HD
ATOM      9  C7  <0> d          -2.548   1.605   0.034  0.00  0.00     0.131 A 
ATOM     10  C8  <0> d          -3.455   2.640   0.047  0.00  0.00    -0.039 A 
ATOM     11  F1  <0> d          -2.979   0.325   0.031  0.00  0.00    -0.205 F 
ATOM     12  H5  <0> d          -1.348   5.283   0.041  0.00  0.00     0.087 H 
ATOM     13  H6  <0> d           0.002  -0.004   0.002  0.00  0.00     0.118 H 
ATOM     14  H7  <0> d          -4.513   2.425   0.056  0.00  0.00     0.089 H 
ENDROOT
BRANCH   1  15
ATOM     15  C1  <0> d          -4.029   5.078   0.066  0.00  0.00    -0.051 C 
ATOM     16  H2  <0> d          -4.282   5.353  -0.958  0.00  0.00     0.033 H 
ATOM     17  H3  <0> d          -4.928   4.749   0.586  0.00  0.00     0.033 H 
ATOM     18  H4  <0> d          -3.607   5.942   0.580  0.00  0.00     0.033 H 
ENDBRANCH   1  15
TORSDOF 1
