REMARK  2 active torsions:
REMARK  status: ('A' for Active; 'I' for Inactive)
REMARK    1  A    between atoms: C1_1  and  N1_2 
REMARK    2  A    between atoms: C5_6  and  C6_7 
ROOT
ATOM      1  N1  <0> d           0.087  -0.006  -0.005  0.00  0.00    -0.360 N 
ATOM      2  C2  <0> d          -0.034  -0.796  -1.109  0.00  0.00    -0.020 A 
ATOM      3  C3  <0> d          -0.084  -2.086  -0.710  0.00  0.00    -0.066 A 
ATOM      4  C4  <0> d           0.009  -2.102   0.692  0.00  0.00    -0.055 A 
ATOM      5  C5  <0> d           0.121  -0.809   1.106  0.00  0.00     0.045 A 
ATOM      6  H4  <0> d          -0.083  -0.450  -2.131  0.00  0.00     0.111 H 
ATOM      7  H5  <0> d          -0.180  -2.949  -1.352  0.00  0.00     0.085 H 
ATOM      8  H6  <0> d          -0.000  -2.978   1.323  0.00  0.00     0.087 H 
ENDROOT
BRANCH   5   9
ATOM      9  C6  <0> d           0.250  -0.352   2.506  0.00  0.00     0.008 A 
ATOM     10  C10 <0> d          -0.149  -1.173   3.561  0.00  0.00     0.014 A 
ATOM     11  N2  <0> d          -0.028  -0.769   4.808  0.00  0.00    -0.272 NA
ATOM     12  H10 <0> d          -0.557  -2.152   3.352  0.00  0.00     0.116 H 
ATOM     13  C9  <0> d           0.459   0.419   5.111  0.00  0.00     0.002 A 
ATOM     14  C8  <0> d           0.872   1.295   4.123  0.00  0.00    -0.065 A 
ATOM     15  H9  <0> d           0.536   0.713   6.147  0.00  0.00     0.114 H 
ATOM     16  C7  <0> d           0.771   0.915   2.796  0.00  0.00    -0.068 A 
ATOM     17  H8  <0> d           1.269   2.264   4.384  0.00  0.00     0.085 H 
ATOM     18  H7  <0> d           1.086   1.579   2.005  0.00  0.00     0.085 H 
ENDBRANCH   5   9
BRANCH   1  19
ATOM     19  C1  <0> d           0.174   1.456  -0.006  0.00  0.00    -0.014 C 
ATOM     20  H1  <0> d           1.222   1.758   0.022  0.00  0.00     0.057 H 
ATOM     21  H2  <0> d          -0.292   1.847  -0.910  0.00  0.00     0.057 H 
ATOM     22  H3  <0> d          -0.341   1.852   0.869  0.00  0.00     0.057 H 
ENDBRANCH   1  19
TORSDOF 2
