REMARK  2 active torsions:
REMARK  status: ('A' for Active; 'I' for Inactive)
REMARK    1  A    between atoms: C1_1  and  C2_2 
REMARK    2  A    between atoms: C3_3  and  N2_9 
ROOT
ATOM      1  C2  <0> d           1.112   3.193   0.009  0.00  0.00     0.058 A 
ATOM      2  C3  <0> d           1.174   1.806   0.001  0.00  0.00     0.050 A 
ATOM      3  C4  <0> d          -0.013   1.076   0.008  0.00  0.00    -0.053 A 
ATOM      4  C5  <0> d          -1.212   1.769   0.017  0.00  0.00    -0.042 A 
ATOM      5  C6  <0> d          -1.192   3.153   0.030  0.00  0.00     0.126 A 
ATOM      6  N1  <0> d          -0.050   3.814   0.023  0.00  0.00    -0.239 NA
ATOM      7 Cl1  <0> d          -2.690   4.030   0.050  0.00  0.00    -0.062 Cl
ATOM      8  H4  <0> d           0.002  -0.004   0.002  0.00  0.00     0.087 H 
ATOM      9  H5  <0> d          -2.151   1.236   0.018  0.00  0.00     0.088 H 
ENDROOT
BRANCH   1  10
ATOM     10  C1  <0> d           2.387   3.996   0.001  0.00  0.00    -0.033 C 
ATOM     11  H1  <0> d           2.685   4.195  -1.028  0.00  0.00     0.035 H 
ATOM     12  H2  <0> d           2.225   4.940   0.522  0.00  0.00     0.035 H 
ATOM     13  H3  <0> d           3.174   3.434   0.505  0.00  0.00     0.035 H 
ENDBRANCH   1  10
BRANCH   2  14
ATOM     14  N2  <0> d           2.409   1.151  -0.014  0.00  0.00    -0.397 N 
ATOM     15  H6  <0> d           2.444   0.181  -0.020  0.00  0.00     0.156 HD
ATOM     16  H7  <0> d           3.231   1.666  -0.019  0.00  0.00     0.156 HD
ENDBRANCH   2  14
TORSDOF 2
