REMARK  1 active torsions:
REMARK  status: ('A' for Active; 'I' for Inactive)
REMARK    1  A    between atoms: C3_7  and  O1_8 
ROOT
ATOM      1  C1  <0> d          -0.016   1.349   0.009  0.00  0.00    -0.014 A 
ATOM      2  C2  <0> d           0.002  -0.004   0.002  0.00  0.00    -0.000 A 
ATOM      3  N1  <0> d           1.292  -0.400  -0.012  0.00  0.00    -0.287 N 
ATOM      4  H1  <0> d           1.607  -1.317  -0.020  0.00  0.00     0.188 HD
ATOM      5  N2  <0> d           2.097   0.747  -0.014  0.00  0.00    -0.150 NA
ATOM      6  C3  <0> d           1.313   1.797  -0.001  0.00  0.00     0.182 A 
ATOM      7  H3  <0> d          -0.898   1.972   0.017  0.00  0.00     0.092 H 
ATOM      8  H4  <0> d          -0.862  -0.652   0.007  0.00  0.00     0.114 H 
ENDROOT
BRANCH   6   9
ATOM      9  O1  <0> d           1.717   3.096   0.002  0.00  0.00    -0.344 OA
ATOM     10  H2  <0> d           1.843   3.467   0.886  0.00  0.00     0.219 HD
ENDBRANCH   6   9
TORSDOF 1
