REMARK  2 active torsions:
REMARK  status: ('A' for Active; 'I' for Inactive)
REMARK    1  A    between atoms: C1_1  and  C2_2 
REMARK    2  A    between atoms: N1_7  and  C5_8 
ROOT
ATOM      1  C2  <0> d          -0.839   2.893   1.449  0.00  0.00     0.017 A 
ATOM      2  C3  <0> d          -1.475   3.283   2.557  0.00  0.00    -0.018 A 
ATOM      3  S1  <0> d          -1.884   1.718   3.312  0.00  0.00    -0.039 SA
ATOM      4  C4  <0> d          -1.195   0.675   2.110  0.00  0.00     0.290 A 
ATOM      5  O1  <0> d          -1.165  -0.542   2.080  0.00  0.00    -0.260 OA
ATOM      6  N1  <0> d          -0.698   1.558   1.213  0.00  0.00    -0.317 N 
ATOM      7  H4  <0> d          -1.683   4.283   2.907  0.00  0.00     0.098 H 
ENDROOT
BRANCH   1   8
ATOM      8  C1  <0> d          -0.295   3.907   0.476  0.00  0.00    -0.037 C 
ATOM      9  H1  <0> d          -1.058   4.147  -0.264  0.00  0.00     0.035 H 
ATOM     10  H2  <0> d          -0.014   4.813   1.015  0.00  0.00     0.035 H 
ATOM     11  H3  <0> d           0.582   3.497  -0.025  0.00  0.00     0.035 H 
ENDBRANCH   1   8
BRANCH   6  12
ATOM     12  C5  <0> d          -0.013   1.086   0.008  0.00  0.00    -0.011 C 
ATOM     13  H5  <0> d           0.002  -0.004   0.002  0.00  0.00     0.057 H 
ATOM     14  H6  <0> d           1.010   1.463   0.000  0.00  0.00     0.057 H 
ATOM     15  H7  <0> d          -0.540   1.447  -0.875  0.00  0.00     0.057 H 
ENDBRANCH   6  12
TORSDOF 2
