REMARK  1 active torsions:
REMARK  status: ('A' for Active; 'I' for Inactive)
REMARK    1  A    between atoms: C1_1  and  C2_2 
ROOT
ATOM      1  C2  <0> d           2.088   4.247   0.004  0.00  0.00     0.065 A 
ATOM      2  C3  <0> d           1.094   3.179   0.008  0.00  0.00     0.037 A 
ATOM      3  C4  <0> d           1.162   1.781   0.001  0.00  0.00    -0.066 A 
ATOM      4  C5  <0> d          -0.013   1.076   0.008  0.00  0.00    -0.065 A 
ATOM      5  C6  <0> d          -1.222   1.757   0.017  0.00  0.00     0.004 A 
ATOM      6  N1  <0> d          -1.272   3.071   0.030  0.00  0.00    -0.241 NA
ATOM      7  C7  <0> d          -0.167   3.807   0.023  0.00  0.00     0.155 A 
ATOM      8  N2  <0> d           0.069   5.155   0.028  0.00  0.00    -0.260 N 
ATOM      9  H1  <0> d          -0.635   5.866   0.038  0.00  0.00     0.191 HD
ATOM     10  N3  <0> d           1.448   5.381   0.016  0.00  0.00    -0.177 NA
ATOM     11  H5  <0> d           2.115   1.272  -0.011  0.00  0.00     0.085 H 
ATOM     12  H6  <0> d           0.002  -0.004   0.002  0.00  0.00     0.085 H 
ATOM     13  H7  <0> d          -2.144   1.194   0.019  0.00  0.00     0.114 H 
ENDROOT
BRANCH   1  14
ATOM     14  C1  <0> d           3.584   4.069  -0.011  0.00  0.00    -0.033 C 
ATOM     15  H2  <0> d           3.935   4.032  -1.042  0.00  0.00     0.035 H 
ATOM     16  H3  <0> d           4.055   4.907   0.503  0.00  0.00     0.035 H 
ATOM     17  H4  <0> d           3.845   3.140   0.495  0.00  0.00     0.035 H 
ENDBRANCH   1  14
TORSDOF 1
