REMARK  6 active torsions:
REMARK  status: ('A' for Active; 'I' for Inactive)
REMARK    1  A    between atoms: C1_1  and  C2_2 
REMARK    2  A    between atoms: C2_2  and  C3_4 
REMARK    3  A    between atoms: C2_2  and  C5_8 
REMARK    4  A    between atoms: C3_4  and  C4_5 
REMARK    5  A    between atoms: C5_8  and  C6_9 
REMARK    6  A    between atoms: C5_8  and  C7_10 
ROOT
ATOM      1  C2  <0> d           0.002  -0.004   0.002  0.00  0.00    -0.046 C 
ATOM      2  H1  <0> d          -1.020  -0.381   0.010  0.00  0.00     0.040 H 
ENDROOT
BRANCH   1   3
ATOM      3  C1  <0> d          -0.019   1.526   0.010  0.00  0.00    -0.072 C 
ATOM      4  H2  <0> d           1.004   1.903   0.003  0.00  0.00     0.028 H 
ATOM      5  H3  <0> d          -0.546   1.887  -0.873  0.00  0.00     0.028 H 
ATOM      6  H4  <0> d          -0.529   1.877   0.907  0.00  0.00     0.028 H 
ENDBRANCH   1   3
BRANCH   1   7
ATOM      7  C3  <0> d           0.742  -0.511   1.242  0.00  0.00     0.019 C 
ATOM      8  H5  <0> d           0.835  -1.596   1.191  0.00  0.00     0.049 H 
ATOM      9  H6  <0> d           1.735  -0.063   1.280  0.00  0.00     0.049 H 
BRANCH   7  10
ATOM     10  C4  <0> d          -0.030  -0.130   2.478  0.00  0.00     0.172 C 
ATOM     11  O1  <0> d          -1.075   0.490   2.378  0.00  0.00    -0.648 OA
ATOM     12  O2  <0> d           0.391  -0.441   3.580  0.00  0.00    -0.648 OA
ENDBRANCH   7  10
ENDBRANCH   1   7
BRANCH   1  13
ATOM     13  C5  <0> d           0.718  -0.497  -1.257  0.00  0.00    -0.058 C 
ATOM     14  H7  <0> d           1.741  -0.120  -1.264  0.00  0.00     0.039 H 
BRANCH  13  15
ATOM     15  C6  <0> d           0.739  -2.027  -1.265  0.00  0.00    -0.073 C 
ATOM     16  H8  <0> d           1.249  -2.379  -2.162  0.00  0.00     0.028 H 
ATOM     17  H9  <0> d           1.266  -2.388  -0.382  0.00  0.00     0.028 H 
ATOM     18  H10 <0> d          -0.284  -2.405  -1.258  0.00  0.00     0.028 H 
ENDBRANCH  13  15
BRANCH  13  19
ATOM     19  C7  <0> d          -0.022   0.009  -2.496  0.00  0.00    -0.073 C 
ATOM     20  H11 <0> d          -0.037   1.099  -2.490  0.00  0.00     0.028 H 
ATOM     21  H12 <0> d           0.488  -0.342  -3.393  0.00  0.00     0.028 H 
ATOM     22  H13 <0> d          -1.044  -0.368  -2.489  0.00  0.00     0.028 H 
ENDBRANCH  13  19
ENDBRANCH   1  13
TORSDOF 6
