REMARK  3 active torsions:
REMARK  status: ('A' for Active; 'I' for Inactive)
REMARK    1  A    between atoms: C1_1  and  C2_2 
REMARK    2  A    between atoms: C2_2  and  C3_3 
REMARK    3  A    between atoms: C3_3  and  C4_4 
ROOT
ATOM      1  C4  <0> d          -1.413  -2.041   0.005  0.00  0.00    -0.058 A 
ATOM      2  C5  <0> d          -1.409  -2.725  -1.197  0.00  0.00    -0.074 A 
ATOM      3  C6  <0> d          -1.390  -4.106  -1.206  0.00  0.00    -0.045 A 
ATOM      4  C7  <0> d          -1.375  -4.806  -0.011  0.00  0.00     0.116 A 
ATOM      5  C8  <0> d          -1.378  -4.119   1.192  0.00  0.00    -0.045 A 
ATOM      6  C9  <0> d          -1.392  -2.737   1.198  0.00  0.00    -0.074 A 
ATOM      7  F1  <0> d          -1.356  -6.157  -0.018  0.00  0.00    -0.206 F 
ATOM      8  H8  <0> d          -1.422  -2.179  -2.129  0.00  0.00     0.084 H 
ATOM      9  H9  <0> d          -1.387  -4.641  -2.144  0.00  0.00     0.088 H 
ATOM     10  H10 <0> d          -1.366  -4.664   2.125  0.00  0.00     0.088 H 
ATOM     11  H11 <0> d          -1.391  -2.202   2.136  0.00  0.00     0.084 H 
ENDROOT
BRANCH   1  12
ATOM     12  C3  <0> d          -1.433  -0.534   0.013  0.00  0.00    -0.041 C 
ATOM     13  H6  <0> d          -1.944  -0.182   0.910  0.00  0.00     0.040 H 
ATOM     14  H7  <0> d          -1.960  -0.173  -0.870  0.00  0.00     0.040 H 
BRANCH  12  15
ATOM     15  C2  <0> d           0.002  -0.004   0.002  0.00  0.00    -0.065 C 
ATOM     16  H4  <0> d           0.512  -0.356  -0.895  0.00  0.00     0.032 H 
ATOM     17  H5  <0> d           0.529  -0.365   0.885  0.00  0.00     0.032 H 
BRANCH  15  18
ATOM     18  C1  <0> d          -0.019   1.526   0.010  0.00  0.00    -0.076 C 
ATOM     19  H1  <0> d           1.004   1.903   0.003  0.00  0.00     0.027 H 
ATOM     20  H2  <0> d          -0.546   1.887  -0.873  0.00  0.00     0.027 H 
ATOM     21  H3  <0> d          -0.529   1.877   0.907  0.00  0.00     0.027 H 
ENDBRANCH  15  18
ENDBRANCH  12  15
ENDBRANCH   1  12
TORSDOF 3
