REMARK  1 active torsions:
REMARK  status: ('A' for Active; 'I' for Inactive)
REMARK    1  A    between atoms: C1_1  and  C2_2 
ROOT
ATOM      1  C2  <0> d           0.002  -0.004   0.002  0.00  0.00    -0.056 C 
ATOM      2  H1  <0> d          -1.020  -0.381   0.010  0.00  0.00     0.039 H 
ATOM      3  C3  <0> d           0.718  -0.497  -1.257  0.00  0.00    -0.062 C 
ATOM      4  C4  <0> d           0.739  -2.027  -1.265  0.00  0.00    -0.064 C 
ATOM      5  C5  <0> d           1.479  -2.534  -0.026  0.00  0.00    -0.050 C 
ATOM      6  C6  <0> d           0.763  -2.041   1.233  0.00  0.00     0.030 C 
ATOM      7  H2  <0> d          -0.260  -2.418   1.241  0.00  0.00     0.062 H 
ATOM      8  C7  <0> d           0.742  -0.511   1.242  0.00  0.00    -0.047 C 
ATOM      9  C8  <0> d           1.475  -2.528   2.426  0.00  0.00     0.064 C 
ATOM     10  N1  <0> d           2.024  -2.905   3.346  0.00  0.00    -0.197 NA
ATOM     11  H6  <0> d           0.191  -0.136  -2.140  0.00  0.00     0.033 H 
ATOM     12  H7  <0> d           1.741  -0.120  -1.264  0.00  0.00     0.033 H 
ATOM     13  H8  <0> d          -0.284  -2.405  -1.258  0.00  0.00     0.033 H 
ATOM     14  H9  <0> d           1.249  -2.379  -2.162  0.00  0.00     0.033 H 
ATOM     15  H10 <0> d           1.494  -3.624  -0.032  0.00  0.00     0.035 H 
ATOM     16  H11 <0> d           2.502  -2.157  -0.033  0.00  0.00     0.035 H 
ATOM     17  H12 <0> d           1.765  -0.134   1.234  0.00  0.00     0.035 H 
ATOM     18  H13 <0> d           0.232  -0.159   2.138  0.00  0.00     0.035 H 
ENDROOT
BRANCH   1  19
ATOM     19  C1  <0> d          -0.019   1.526   0.010  0.00  0.00    -0.073 C 
ATOM     20  H3  <0> d           1.004   1.903   0.003  0.00  0.00     0.028 H 
ATOM     21  H4  <0> d          -0.546   1.887  -0.873  0.00  0.00     0.028 H 
ATOM     22  H5  <0> d          -0.529   1.877   0.907  0.00  0.00     0.028 H 
ENDBRANCH   1  19
TORSDOF 1
