REMARK  4 active torsions:
REMARK  status: ('A' for Active; 'I' for Inactive)
REMARK    1  A    between atoms: C1_1  and  C2_2 
REMARK    2  A    between atoms: C4_4  and  O2_10 
REMARK    3  A    between atoms: C6_6  and  O1_8 
REMARK    4  A    between atoms: O1_8  and  C8_9 
ROOT
ATOM      1  C2  <0> d           0.002  -0.004   0.002  0.00  0.00    -0.057 A 
ATOM      2  C3  <0> d          -0.006  -0.688  -1.199  0.00  0.00    -0.045 A 
ATOM      3  C4  <0> d           0.019  -2.075  -1.210  0.00  0.00     0.068 A 
ATOM      4  C5  <0> d           0.040  -2.776  -0.013  0.00  0.00    -0.019 A 
ATOM      5  C6  <0> d           0.042  -2.088   1.190  0.00  0.00     0.071 A 
ATOM      6  C7  <0> d           0.023  -0.700   1.195  0.00  0.00    -0.045 A 
ATOM      7  H4  <0> d          -0.027  -0.141  -2.131  0.00  0.00     0.088 H 
ATOM      8  H5  <0> d           0.055  -3.855  -0.019  0.00  0.00     0.092 H 
ATOM      9  H6  <0> d           0.025  -0.164   2.133  0.00  0.00     0.088 H 
ENDROOT
BRANCH   5  10
ATOM     10  O1  <0> d           0.063  -2.772   2.364  0.00  0.00    -0.356 OA
BRANCH  10  11
ATOM     11  C8  <0> d           0.081  -4.199   2.284  0.00  0.00     0.010 C 
ATOM     12  H7  <0> d           0.097  -4.619   3.289  0.00  0.00     0.066 H 
ATOM     13  H8  <0> d          -0.809  -4.544   1.759  0.00  0.00     0.066 H 
ATOM     14  H9  <0> d           0.970  -4.520   1.742  0.00  0.00     0.066 H 
ENDBRANCH  10  11
ENDBRANCH   5  10
BRANCH   3  15
ATOM     15  O2  <0> d           0.016  -2.746  -2.391  0.00  0.00    -0.361 OA
ATOM     16  H10 <0> d          -0.868  -2.952  -2.724  0.00  0.00     0.217 HD
ENDBRANCH   3  15
BRANCH   1  17
ATOM     17  C1  <0> d          -0.018   1.503   0.010  0.00  0.00    -0.051 C 
ATOM     18  H1  <0> d           1.004   1.880   0.003  0.00  0.00     0.033 H 
ATOM     19  H2  <0> d          -0.545   1.864  -0.873  0.00  0.00     0.033 H 
ATOM     20  H3  <0> d          -0.529   1.854   0.907  0.00  0.00     0.033 H 
ENDBRANCH   1  17
TORSDOF 4
