REMARK  7 active torsions:
REMARK  status: ('A' for Active; 'I' for Inactive)
REMARK    1  A    between atoms: C2_2  and  C3_3 
REMARK    2  A    between atoms: C3_3  and  O1_4 
REMARK    3  A    between atoms: O1_4  and  C4_5 
REMARK    4  A    between atoms: C4_5  and  C5_6 
REMARK    5  A    between atoms: C5_6  and  C6_8 
REMARK    6  A    between atoms: C5_6  and  O3_10 
REMARK    7  A    between atoms: C6_8  and  O2_9 
ROOT
ATOM      1  C4  <0> d          -0.064   0.971   2.503  0.00  0.00     0.045 C 
ATOM      2  H7  <0> d          -0.047  -0.115   2.410  0.00  0.00     0.078 H 
ATOM      3  H8  <0> d           0.957   1.344   2.587  0.00  0.00     0.078 H 
ENDROOT
BRANCH   1   4
ATOM      4  O1  <0> d          -0.802   1.338   3.670  0.00  0.00    -0.385 OA
BRANCH   4   5
ATOM      5  C3  <0> d          -0.262   0.819   4.887  0.00  0.00     0.034 C 
ATOM      6  H5  <0> d          -0.250  -0.271   4.843  0.00  0.00     0.080 H 
ATOM      7  H6  <0> d           0.754   1.188   5.021  0.00  0.00     0.080 H 
BRANCH   5   8
ATOM      8  C2  <0> d          -1.116   1.265   6.046  0.00  0.00    -0.090 C 
ATOM      9  C1  <0> d          -1.457   0.408   6.977  0.00  0.00    -0.123 C 
ATOM     10  H2  <0> d          -1.127  -0.618   6.913  0.00  0.00     0.066 H 
ATOM     11  H3  <0> d          -2.068   0.728   7.807  0.00  0.00     0.066 H 
ATOM     12  H4  <0> d          -1.446   2.291   6.110  0.00  0.00     0.078 H 
ENDBRANCH   5   8
ENDBRANCH   4   5
ENDBRANCH   1   4
BRANCH   1  13
ATOM     13  C5  <0> d          -0.729   1.579   1.267  0.00  0.00     0.076 C 
ATOM     14  H1  <0> d          -1.776   1.277   1.232  0.00  0.00     0.089 H 
BRANCH  13  15
ATOM     15  C6  <0> d          -0.013   1.086   0.008  0.00  0.00     0.042 C 
ATOM     16  H9  <0> d           0.002  -0.004   0.002  0.00  0.00     0.078 H 
ATOM     17  H10 <0> d           1.010   1.463   0.000  0.00  0.00     0.078 H 
BRANCH  15  18
ATOM     18  O2  <0> d          -0.704   1.559  -1.150  0.00  0.00    -0.398 OA
ATOM     19  H11 <0> d          -0.304   1.284  -1.986  0.00  0.00     0.209 HD
ENDBRANCH  15  18
ENDBRANCH  13  15
BRANCH  13  20
ATOM     20  O3  <0> d          -0.647   3.004   1.334  0.00  0.00    -0.391 OA
ATOM     21  H12 <0> d           0.258   3.345   1.368  0.00  0.00     0.210 HD
ENDBRANCH  13  20
ENDBRANCH   1  13
TORSDOF 7
