REMARK  4 active torsions:
REMARK  status: ('A' for Active; 'I' for Inactive)
REMARK    1  A    between atoms: C1_1  and  C2_2 
REMARK    2  A    between atoms: C2_2  and  C3_4 
REMARK    3  A    between atoms: C3_4  and  O1_5 
REMARK    4  A    between atoms: O1_5  and  C4_6 
ROOT
ATOM      1  C2  <0> d           0.002  -0.004   0.002  0.00  0.00     0.047 C 
ATOM      2  H1  <0> d           0.529  -0.365   0.885  0.00  0.00     0.065 H 
ATOM      3  C5  <0> d           0.691  -0.479  -1.209  0.00  0.00     0.065 C 
ATOM      4  N1  <0> d           1.223  -0.845  -2.144  0.00  0.00    -0.197 NA
ENDROOT
BRANCH   1   5
ATOM      5  C1  <0> d          -0.019   1.526   0.010  0.00  0.00    -0.059 C 
ATOM      6  H2  <0> d           1.004   1.903   0.003  0.00  0.00     0.029 H 
ATOM      7  H3  <0> d          -0.546   1.887  -0.873  0.00  0.00     0.029 H 
ATOM      8  H4  <0> d          -0.529   1.877   0.907  0.00  0.00     0.029 H 
ENDBRANCH   1   5
BRANCH   1   9
ATOM      9  C3  <0> d          -1.433  -0.534   0.013  0.00  0.00     0.034 C 
ATOM     10  H5  <0> d          -1.986  -0.102  -0.821  0.00  0.00     0.076 H 
ATOM     11  H6  <0> d          -1.421  -1.619  -0.083  0.00  0.00     0.076 H 
BRANCH   9  12
ATOM     12  O1  <0> d          -2.066  -0.171   1.242  0.00  0.00    -0.395 OA
BRANCH  12  13
ATOM     13  C4  <0> d          -3.417  -0.620   1.355  0.00  0.00     0.004 C 
ATOM     14  H7  <0> d          -3.826  -0.305   2.315  0.00  0.00     0.066 H 
ATOM     15  H8  <0> d          -4.012  -0.190   0.548  0.00  0.00     0.066 H 
ATOM     16  H9  <0> d          -3.446  -1.707   1.287  0.00  0.00     0.066 H 
ENDBRANCH  12  13
ENDBRANCH   9  12
ENDBRANCH   1   9
TORSDOF 4
