REMARK  2 active torsions:
REMARK  status: ('A' for Active; 'I' for Inactive)
REMARK    1  A    between atoms: C4_5  and  C6_8 
REMARK    2  A    between atoms: C6_8  and  O2_9 
ROOT
ATOM      1  C1  <0> d          -0.732   1.581   1.266  0.00  0.00    -0.061 C 
ATOM      2  C2  <0> d          -0.013   1.086   0.008  0.00  0.00    -0.045 C 
ATOM      3  C3  <0> d          -0.756   1.594  -1.230  0.00  0.00     0.020 C 
ATOM      4  O1  <0> d          -2.111   1.144  -1.189  0.00  0.00    -0.384 OA
ATOM      5  C4  <0> d          -2.849   1.615  -0.059  0.00  0.00     0.058 C 
ATOM      6  H1  <0> d          -2.855   2.705  -0.058  0.00  0.00     0.086 H 
ATOM      7  C5  <0> d          -2.190   1.107   1.226  0.00  0.00    -0.039 C 
ATOM      8  H2  <0> d          -0.240   1.177   2.151  0.00  0.00     0.033 H 
ATOM      9  H3  <0> d          -0.704   2.670   1.298  0.00  0.00     0.033 H 
ATOM     10  H4  <0> d           0.002  -0.004   0.002  0.00  0.00     0.036 H 
ATOM     11  H5  <0> d           1.010   1.464   0.000  0.00  0.00     0.036 H 
ATOM     12  H6  <0> d          -0.735   2.684  -1.245  0.00  0.00     0.074 H 
ATOM     13  H7  <0> d          -0.272   1.210  -2.128  0.00  0.00     0.074 H 
ATOM     14  H8  <0> d          -2.725   1.502   2.090  0.00  0.00     0.036 H 
ATOM     15  H9  <0> d          -2.220   0.018   1.245  0.00  0.00     0.036 H 
ENDROOT
BRANCH   5  16
ATOM     16  C6  <0> d          -4.286   1.095  -0.135  0.00  0.00     0.041 C 
ATOM     17  H10 <0> d          -4.275   0.009  -0.225  0.00  0.00     0.077 H 
ATOM     18  H11 <0> d          -4.823   1.380   0.769  0.00  0.00     0.077 H 
BRANCH  16  19
ATOM     19  O2  <0> d          -4.937   1.661  -1.274  0.00  0.00    -0.398 OA
ATOM     20  H12 <0> d          -5.854   1.376  -1.386  0.00  0.00     0.209 HD
ENDBRANCH  16  19
ENDBRANCH   5  16
TORSDOF 2
