REMARK  0 active torsions:
REMARK  status: ('A' for Active; 'I' for Inactive)
ROOT
ATOM      1  C1  <0> d          -0.019   1.527   0.010  0.00  0.00    -0.061 C 
ATOM      2  C2  <0> d           1.409   2.075  -0.000  0.00  0.00    -0.050 C 
ATOM      3  C3  <0> d           2.141   1.635   1.275  0.00  0.00    -0.002 C 
ATOM      4  N1  <0> d           1.989   0.173   1.391  0.00  0.00    -0.340 N 
ATOM      5  C4  <0> d           0.683  -0.496   1.282  0.00  0.00     0.072 C 
ATOM      6  H1  <0> d           0.073  -0.268   2.156  0.00  0.00     0.085 H 
ATOM      7  C5  <0> d           0.002  -0.004   0.002  0.00  0.00    -0.039 C 
ATOM      8  C6  <0> d           0.944  -1.980   1.209  0.00  0.00     0.158 C 
ATOM      9  O1  <0> d           0.143  -2.861   1.009  0.00  0.00    -0.295 OA
ATOM     10  C7  <0> d           2.434  -2.120   1.443  0.00  0.00     0.066 C 
ATOM     11  C8  <0> d           2.968  -0.717   1.588  0.00  0.00     0.227 C 
ATOM     12  O2  <0> d           4.119  -0.436   1.846  0.00  0.00    -0.273 OA
ATOM     13  H2  <0> d          -0.533   1.877   0.906  0.00  0.00     0.033 H 
ATOM     14  H3  <0> d          -0.550   1.886  -0.871  0.00  0.00     0.033 H 
ATOM     15  H4  <0> d           1.938   1.692  -0.873  0.00  0.00     0.035 H 
ATOM     16  H5  <0> d           1.379   3.164  -0.044  0.00  0.00     0.035 H 
ATOM     17  H6  <0> d           3.198   1.892   1.202  0.00  0.00     0.064 H 
ATOM     18  H7  <0> d           1.699   2.123   2.143  0.00  0.00     0.064 H 
ATOM     19  H8  <0> d          -1.019  -0.383  -0.037  0.00  0.00     0.036 H 
ATOM     20  H9  <0> d           0.558  -0.357  -0.867  0.00  0.00     0.036 H 
ATOM     21  H10 <0> d           2.620  -2.688   2.355  0.00  0.00     0.058 H 
ATOM     22  H11 <0> d           2.903  -2.613   0.592  0.00  0.00     0.058 H 
ENDROOT
TORSDOF 0
