REMARK  2 active torsions:
REMARK  status: ('A' for Active; 'I' for Inactive)
REMARK    1  A    between atoms: C1_1  and  C2_2 
REMARK    2  A    between atoms: C5_5  and  O1_9 
ROOT
ATOM      1  C2  <0> d           1.176   1.782   0.000  0.00  0.00    -0.023 A 
ATOM      2  C3  <0> d          -0.013   1.076   0.008  0.00  0.00    -0.072 A 
ATOM      3  C4  <0> d          -1.219   1.749   0.017  0.00  0.00    -0.050 A 
ATOM      4  C5  <0> d          -1.238   3.137   0.029  0.00  0.00     0.068 A 
ATOM      5  C6  <0> d          -0.046   3.845   0.021  0.00  0.00    -0.013 A 
ATOM      6  C7  <0> d           1.160   3.167   0.007  0.00  0.00     0.124 A 
ATOM      7  F1  <0> d           2.322   3.856  -0.001  0.00  0.00    -0.205 F 
ATOM      8  H4  <0> d           0.002  -0.004   0.002  0.00  0.00     0.084 H 
ATOM      9  H5  <0> d          -2.146   1.196   0.019  0.00  0.00     0.087 H 
ATOM     10  H6  <0> d          -0.059   4.925   0.026  0.00  0.00     0.092 H 
ENDROOT
BRANCH   1  11
ATOM     11  C1  <0> d           2.490   1.045  -0.016  0.00  0.00    -0.048 C 
ATOM     12  H1  <0> d           2.797   0.872  -1.047  0.00  0.00     0.033 H 
ATOM     13  H2  <0> d           3.247   1.641   0.494  0.00  0.00     0.033 H 
ATOM     14  H3  <0> d           2.376   0.088   0.494  0.00  0.00     0.033 H 
ENDBRANCH   1  11
BRANCH   4  15
ATOM     15  O1  <0> d          -2.424   3.800   0.043  0.00  0.00    -0.361 OA
ATOM     16  H7  <0> d          -2.775   3.996  -0.837  0.00  0.00     0.217 HD
ENDBRANCH   4  15
TORSDOF 2
