REMARK  2 active torsions:
REMARK  status: ('A' for Active; 'I' for Inactive)
REMARK    1  A    between atoms: C1_1  and  C2_2 
REMARK    2  A    between atoms: C2_2  and  C6_8 
ROOT
ATOM      1  C2  <0> d           2.164   1.325  -1.193  0.00  0.00     0.058 C 
ATOM      2  C3  <0> d           1.425   1.944  -0.001  0.00  0.00    -0.017 C 
ATOM      3  C4  <0> d          -0.017   1.427   0.010  0.00  0.00     0.025 C 
ATOM      4  O1  <0> d           0.002  -0.004   0.002  0.00  0.00    -0.367 OA
ATOM      5  C5  <0> d           0.693  -0.565  -1.117  0.00  0.00     0.104 C 
ATOM      6  O2  <0> d           2.045  -0.099  -1.124  0.00  0.00    -0.357 OA
ATOM      7  H4  <0> d           1.423   3.030  -0.097  0.00  0.00     0.040 H 
ATOM      8  H5  <0> d           1.923   1.658   0.926  0.00  0.00     0.040 H 
ATOM      9  H6  <0> d          -0.542   1.789  -0.874  0.00  0.00     0.074 H 
ATOM     10  H7  <0> d          -0.525   1.780   0.908  0.00  0.00     0.074 H 
ATOM     11  H8  <0> d           0.684  -1.652  -1.042  0.00  0.00     0.117 H 
ATOM     12  H9  <0> d           0.199  -0.260  -2.039  0.00  0.00     0.117 H 
ENDROOT
BRANCH   1  13
ATOM     13  C1  <0> d           3.642   1.718  -1.140  0.00  0.00    -0.048 C 
ATOM     14  H1  <0> d           4.168   1.270  -1.983  0.00  0.00     0.031 H 
ATOM     15  H2  <0> d           3.731   2.804  -1.192  0.00  0.00     0.031 H 
ATOM     16  H3  <0> d           4.079   1.362  -0.207  0.00  0.00     0.031 H 
ENDBRANCH   1  13
BRANCH   1  17
ATOM     17  C6  <0> d           1.546   1.828  -2.499  0.00  0.00    -0.048 C 
ATOM     18  H10 <0> d           0.493   1.551  -2.533  0.00  0.00     0.031 H 
ATOM     19  H11 <0> d           1.638   2.913  -2.550  0.00  0.00     0.031 H 
ATOM     20  H12 <0> d           2.068   1.380  -3.344  0.00  0.00     0.031 H 
ENDBRANCH   1  17
TORSDOF 2
