REMARK  1 active torsions:
REMARK  status: ('A' for Active; 'I' for Inactive)
REMARK    1  A    between atoms: C5_6  and  O1_10 
ROOT
ATOM      1  C1  <0> d           1.745   0.995   2.247  0.00  0.00    -0.065 C 
ATOM      2  C2  <0> d           2.374   1.367   0.932  0.00  0.00    -0.064 C 
ATOM      3  C3  <0> d           1.397   2.109   0.000  0.00  0.00    -0.048 C 
ATOM      4  C4  <0> d          -0.018   1.500   0.010  0.00  0.00     0.055 C 
ATOM      5  H1  <0> d          -0.550   1.819   0.919  0.00  0.00     0.066 H 
ATOM      6  C5  <0> d           0.002  -0.004   0.002  0.00  0.00     0.051 C 
ATOM      7  H2  <0> d           0.893  -0.378  -0.524  0.00  0.00     0.085 H 
ATOM      8  C6  <0> d          -0.083  -0.503   1.459  0.00  0.00    -0.040 C 
ATOM      9  C7  <0> d           1.201  -0.444   2.142  0.00  0.00    -0.063 C 
ATOM     10  C8  <0> d          -0.749   1.973  -1.177  0.00  0.00     0.066 C 
ATOM     11  N1  <0> d          -1.313   2.338  -2.093  0.00  0.00    -0.197 NA
ATOM     12  H3  <0> d           0.918   1.684   2.475  0.00  0.00     0.033 H 
ATOM     13  H4  <0> d           2.495   1.046   3.050  0.00  0.00     0.033 H 
ATOM     14  H5  <0> d           3.237   2.024   1.111  0.00  0.00     0.033 H 
ATOM     15  H6  <0> d           2.708   0.455   0.415  0.00  0.00     0.033 H 
ATOM     16  H7  <0> d           1.313   3.159   0.318  0.00  0.00     0.035 H 
ATOM     17  H8  <0> d           1.773   2.068  -1.033  0.00  0.00     0.035 H 
ATOM     18  H9  <0> d          -0.795   0.121   2.019  0.00  0.00     0.036 H 
ATOM     19  H10 <0> d          -0.426  -1.548   1.469  0.00  0.00     0.036 H 
ATOM     20  H11 <0> d           1.913  -1.065   1.579  0.00  0.00     0.033 H 
ATOM     21  H12 <0> d           1.068  -0.861   3.151  0.00  0.00     0.033 H 
ENDROOT
BRANCH   6  22
ATOM     22  O1  <0> d          -1.116  -0.495  -0.740  0.00  0.00    -0.394 OA
ATOM     23  H13 <0> d          -1.267  -1.579  -0.855  0.00  0.00     0.210 HD
ENDBRANCH   6  22
TORSDOF 1
