REMARK  1 active torsions:
REMARK  status: ('A' for Active; 'I' for Inactive)
REMARK    1  A    between atoms: C1_1  and  C2_2 
ROOT
ATOM      1  C2  <0> d          -0.751   3.545   0.037  0.00  0.00    -0.051 C 
ATOM      2  H1  <0> d          -0.726   3.952  -0.975  0.00  0.00     0.040 H 
ATOM      3  C3  <0> d           0.682   3.444   0.619  0.00  0.00    -0.056 C 
ATOM      4  C4  <0> d           1.196   2.120   0.002  0.00  0.00    -0.009 C 
ATOM      5  C5  <0> d          -0.014   1.203   0.009  0.00  0.00     0.127 C 
ATOM      6  O1  <0> d           0.002  -0.004   0.002  0.00  0.00    -0.298 OA
ATOM      7  C6  <0> d          -1.246   2.084   0.018  0.00  0.00    -0.007 C 
ATOM      8  H5  <0> d           0.655   3.381   1.706  0.00  0.00     0.034 H 
ATOM      9  H6  <0> d           1.295   4.286   0.296  0.00  0.00     0.034 H 
ATOM     10  H7  <0> d           1.948   1.764   0.557  0.00  0.00     0.044 H 
ATOM     11  H8  <0> d           1.545   2.283  -1.018  0.00  0.00     0.044 H 
ATOM     12  H9  <0> d          -1.804   1.931  -0.797  0.00  0.00     0.044 H 
ATOM     13  H10 <0> d          -1.841   1.883   0.910  0.00  0.00     0.044 H 
ENDROOT
BRANCH   1  14
ATOM     14  C1  <0> d          -1.638   4.406   0.938  0.00  0.00    -0.072 C 
ATOM     15  H2  <0> d          -1.216   5.408   1.014  0.00  0.00     0.028 H 
ATOM     16  H3  <0> d          -2.640   4.465   0.513  0.00  0.00     0.028 H 
ATOM     17  H4  <0> d          -1.691   3.958   1.931  0.00  0.00     0.028 H 
ENDBRANCH   1  14
TORSDOF 1
