REMARK  4 active torsions:
REMARK  status: ('A' for Active; 'I' for Inactive)
REMARK    1  A    between atoms: C1_1  and  C2_2 
REMARK    2  A    between atoms: C2_2  and  C3_3 
REMARK    3  A    between atoms: C7_7  and  C8_9 
REMARK    4  A    between atoms: C8_9  and  C9_10 
ROOT
ATOM      1  C3  <0> d          -1.214   1.759   0.017  0.00  0.00     0.034 A 
ATOM      2  C4  <0> d          -0.013   1.076   0.008  0.00  0.00    -0.059 A 
ATOM      3  C5  <0> d           1.173   1.794   0.001  0.00  0.00    -0.079 A 
ATOM      4  C6  <0> d           1.106   3.179   0.009  0.00  0.00    -0.059 A 
ATOM      5  C7  <0> d          -0.132   3.793   0.024  0.00  0.00     0.034 A 
ATOM      6  N1  <0> d          -1.240   3.078   0.031  0.00  0.00    -0.258 NA
ATOM      7  H6  <0> d           0.002  -0.004   0.002  0.00  0.00     0.086 H 
ATOM      8  H7  <0> d           2.127   1.287  -0.012  0.00  0.00     0.083 H 
ATOM      9  H8  <0> d           2.010   3.770   0.003  0.00  0.00     0.086 H 
ENDROOT
BRANCH   1  10
ATOM     10  C2  <0> d          -2.509   0.989   0.019  0.00  0.00    -0.028 C 
ATOM     11  H4  <0> d          -3.048   1.182  -0.909  0.00  0.00     0.041 H 
ATOM     12  H5  <0> d          -2.297  -0.077   0.102  0.00  0.00     0.041 H 
BRANCH  10  13
ATOM     13  C1  <0> d          -3.365   1.433   1.207  0.00  0.00    -0.071 C 
ATOM     14  H1  <0> d          -3.576   2.499   1.125  0.00  0.00     0.028 H 
ATOM     15  H2  <0> d          -4.301   0.876   1.209  0.00  0.00     0.028 H 
ATOM     16  H3  <0> d          -2.826   1.240   2.135  0.00  0.00     0.028 H 
ENDBRANCH  10  13
ENDBRANCH   1  10
BRANCH   5  17
ATOM     17  C8  <0> d          -0.217   5.298   0.033  0.00  0.00    -0.028 C 
ATOM     18  H9  <0> d          -0.662   5.631   0.970  0.00  0.00     0.041 H 
ATOM     19  H10 <0> d           0.784   5.719  -0.064  0.00  0.00     0.041 H 
BRANCH  17  20
ATOM     20  C9  <0> d          -1.083   5.766  -1.138  0.00  0.00    -0.071 C 
ATOM     21  H11 <0> d          -0.638   5.433  -2.076  0.00  0.00     0.028 H 
ATOM     22  H12 <0> d          -2.083   5.346  -1.041  0.00  0.00     0.028 H 
ATOM     23  H13 <0> d          -1.144   6.855  -1.132  0.00  0.00     0.028 H 
ENDBRANCH  17  20
ENDBRANCH   5  17
TORSDOF 4
