REMARK  4 active torsions:
REMARK  status: ('A' for Active; 'I' for Inactive)
REMARK    1  A    between atoms: C1_1  and  C2_2 
REMARK    2  A    between atoms: C2_2  and  C3_3 
REMARK    3  A    between atoms: C2_2  and  C4_4 
REMARK    4  A    between atoms: C2_2  and  N1_5 
ROOT
ATOM      1  C2  <0> d          -0.729   1.579   1.267  0.00  0.00     0.026 C 
ENDROOT
BRANCH   1   2
ATOM      2  C1  <0> d          -0.013   1.086   0.008  0.00  0.00    -0.053 C 
ATOM      3  H1  <0> d           0.002  -0.004   0.002  0.00  0.00     0.030 H 
ATOM      4  H2  <0> d           1.010   1.463   0.000  0.00  0.00     0.030 H 
ATOM      5  H3  <0> d          -0.540   1.447  -0.875  0.00  0.00     0.030 H 
ENDBRANCH   1   2
BRANCH   1   6
ATOM      6  C3  <0> d           0.011   1.072   2.506  0.00  0.00    -0.053 C 
ATOM      7  H4  <0> d           1.034   1.450   2.499  0.00  0.00     0.030 H 
ATOM      8  H5  <0> d          -0.499   1.424   3.403  0.00  0.00     0.030 H 
ATOM      9  H6  <0> d           0.026  -0.018   2.500  0.00  0.00     0.030 H 
ENDBRANCH   1   6
BRANCH   1  10
ATOM     10  C4  <0> d          -0.750   3.109   1.275  0.00  0.00    -0.053 C 
ATOM     11  H7  <0> d          -1.277   3.470   0.392  0.00  0.00     0.030 H 
ATOM     12  H8  <0> d          -1.260   3.461   2.172  0.00  0.00     0.030 H 
ATOM     13  H9  <0> d           0.273   3.486   1.268  0.00  0.00     0.030 H 
ENDBRANCH   1  10
BRANCH   1  14
ATOM     14  N1  <0> d          -2.103   1.072   1.277  0.00  0.00    -0.324 N 
ATOM     15  C7  <0> d          -2.651   0.296   0.333  0.00  0.00     0.319 A 
ATOM     16  N2  <0> d          -3.927  -0.034   0.575  0.00  0.00    -0.341 N 
ATOM     17  O1  <0> d          -2.046  -0.075  -0.654  0.00  0.00    -0.247 OA
ATOM     18  C6  <0> d          -4.352   0.575   1.844  0.00  0.00     0.012 A 
ATOM     19  H14 <0> d          -4.482  -0.587   0.003  0.00  0.00     0.164 HD
ATOM     20  C5  <0> d          -3.098   1.329   2.329  0.00  0.00     0.015 A 
ATOM     21  H12 <0> d          -5.178   1.266   1.679  0.00  0.00     0.066 H 
ATOM     22  H13 <0> d          -4.633  -0.195   2.562  0.00  0.00     0.066 H 
ATOM     23  H10 <0> d          -2.756   0.931   3.285  0.00  0.00     0.067 H 
ATOM     24  H11 <0> d          -3.304   2.397   2.409  0.00  0.00     0.067 H 
ENDBRANCH   1  14
TORSDOF 4
