REMARK  3 active torsions:
REMARK  status: ('A' for Active; 'I' for Inactive)
REMARK    1  A    between atoms: C1_1  and  C2_2 
REMARK    2  A    between atoms: C3_4  and  O2_8 
REMARK    3  A    between atoms: C4_5  and  O1_7 
ROOT
ATOM      1  C2  <0> d           1.696   2.033  -0.003  0.00  0.00     0.076 A 
ATOM      2  N1  <0> d           2.158   0.803  -0.014  0.00  0.00    -0.220 NA
ATOM      3  C3  <0> d           1.347  -0.237  -0.012  0.00  0.00     0.204 A 
ATOM      4  C4  <0> d           0.002  -0.004   0.002  0.00  0.00     0.162 A 
ATOM      5  S1  <0> d          -0.022   1.783   0.012  0.00  0.00    -0.046 SA
ENDROOT
BRANCH   1   6
ATOM      6  C1  <0> d           2.463   3.330  -0.004  0.00  0.00    -0.029 C 
ATOM      7  H1  <0> d           2.657   3.637   1.024  0.00  0.00     0.036 H 
ATOM      8  H2  <0> d           3.409   3.193  -0.527  0.00  0.00     0.036 H 
ATOM      9  H3  <0> d           1.876   4.098  -0.508  0.00  0.00     0.036 H 
ENDBRANCH   1   6
BRANCH   4  10
ATOM     10  O1  <0> d          -1.033  -0.887   0.007  0.00  0.00    -0.351 OA
ATOM     11  H4  <0> d          -1.905  -0.471   0.018  0.00  0.00     0.218 HD
ENDBRANCH   4  10
BRANCH   3  12
ATOM     12  O2  <0> d           1.838  -1.508  -0.023  0.00  0.00    -0.342 OA
ATOM     13  H5  <0> d           1.971  -1.871  -0.910  0.00  0.00     0.219 HD
ENDBRANCH   3  12
TORSDOF 3
