REMARK  8 active torsions:
REMARK  status: ('A' for Active; 'I' for Inactive)
REMARK    1  A    between atoms: C1_1  and  C2_2 
REMARK    2  A    between atoms: C2_2  and  O1_3 
REMARK    3  A    between atoms: O1_3  and  C3_4 
REMARK    4  A    between atoms: C3_4  and  C4_6 
REMARK    5  A    between atoms: C4_6  and  O3_7 
REMARK    6  A    between atoms: O3_7  and  C5_8 
REMARK    7  A    between atoms: C5_8  and  C6_9 
REMARK    8  A    between atoms: C5_8  and  C7_10 
ROOT
ATOM      1  C4  <0> d          -1.329   1.940   0.019  0.00  0.00     0.100 C 
ATOM      2  H6  <0> d          -1.392   2.566   0.921  0.00  0.00     0.089 H 
ATOM      3  H7  <0> d          -1.401   2.576  -0.875  0.00  0.00     0.089 H 
ENDROOT
BRANCH   1   4
ATOM      4  C3  <0> d          -0.014   1.204   0.009  0.00  0.00     0.282 C 
ATOM      5  O2  <0> d           0.002  -0.004   0.002  0.00  0.00    -0.263 OA
BRANCH   4   6
ATOM      6  O1  <0> d           1.139   1.891   0.001  0.00  0.00    -0.320 OA
BRANCH   6   7
ATOM      7  C2  <0> d           2.367   1.117  -0.015  0.00  0.00     0.026 C 
ATOM      8  H4  <0> d           2.392   0.487  -0.916  0.00  0.00     0.074 H 
ATOM      9  H5  <0> d           2.409   0.478   0.880  0.00  0.00     0.074 H 
BRANCH   7  10
ATOM     10  C1  <0> d           3.568   2.065  -0.021  0.00  0.00    -0.056 C 
ATOM     11  H1  <0> d           4.498   1.479  -0.033  0.00  0.00     0.030 H 
ATOM     12  H2  <0> d           3.542   2.695   0.881  0.00  0.00     0.030 H 
ATOM     13  H3  <0> d           3.525   2.704  -0.915  0.00  0.00     0.030 H 
ENDBRANCH   7  10
ENDBRANCH   6   7
ENDBRANCH   4   6
ENDBRANCH   1   4
BRANCH   1  14
ATOM     14  O3  <0> d          -2.403   0.997   0.019  0.00  0.00    -0.377 OA
BRANCH  14  15
ATOM     15  C5  <0> d          -3.701   1.593   0.028  0.00  0.00     0.032 C 
ATOM     16  H8  <0> d          -3.593   2.554  -0.496  0.00  0.00     0.082 H 
BRANCH  15  17
ATOM     17  C6  <0> d          -4.690   0.675  -0.693  0.00  0.00    -0.052 C 
ATOM     18  H9  <0> d          -5.689   1.135  -0.686  0.00  0.00     0.030 H 
ATOM     19  H10 <0> d          -4.729  -0.297  -0.180  0.00  0.00     0.030 H 
ATOM     20  H11 <0> d          -4.362   0.528  -1.733  0.00  0.00     0.030 H 
ENDBRANCH  15  17
BRANCH  15  21
ATOM     21  C7  <0> d          -4.158   1.799   1.474  0.00  0.00    -0.052 C 
ATOM     22  H12 <0> d          -5.157   2.258   1.481  0.00  0.00     0.030 H 
ATOM     23  H13 <0> d          -3.447   2.459   1.993  0.00  0.00     0.030 H 
ATOM     24  H14 <0> d          -4.197   0.827   1.988  0.00  0.00     0.030 H 
ENDBRANCH  15  21
ENDBRANCH  14  15
ENDBRANCH   1  14
TORSDOF 8
