REMARK  1 active torsions:
REMARK  status: ('A' for Active; 'I' for Inactive)
REMARK    1  A    between atoms: C2_2  and  C3_3 
ROOT
ATOM      1  C3  <0> d          -0.018   1.468   0.010  0.00  0.00     0.050 A 
ATOM      2  C4  <0> d           1.063   2.299   0.004  0.00  0.00     0.029 A 
ATOM      3  N1  <0> d           0.612   3.558   0.015  0.00  0.00    -0.254 NA
ATOM      4  C5  <0> d          -0.694   3.556   0.027  0.00  0.00     0.064 A 
ATOM      5  N2  <0> d          -1.133   2.278   0.019  0.00  0.00    -0.350 N 
ATOM      6  H1  <0> d          -2.138   1.831   0.018  0.00  0.00     0.166 HD
ATOM      7  H5  <0> d           2.099   1.995  -0.007  0.00  0.00     0.118 H 
ATOM      8  H6  <0> d          -1.323   4.434   0.037  0.00  0.00     0.143 H 
ENDROOT
BRANCH   1   9
ATOM      9  C2  <0> d           0.002  -0.004   0.002  0.00  0.00    -0.065 C 
ATOM     10  C1  <0> d          -1.140  -0.684   0.009  0.00  0.00    -0.119 C 
ATOM     11  H2  <0> d          -1.125  -1.784   0.003  0.00  0.00     0.066 H 
ATOM     12  H3  <0> d          -2.100  -0.147   0.021  0.00  0.00     0.066 H 
ATOM     13  H4  <0> d           0.962  -0.541  -0.010  0.00  0.00     0.085 H 
ENDBRANCH   1   9
TORSDOF 1
