REMARK  4 active torsions:
REMARK  status: ('A' for Active; 'I' for Inactive)
REMARK    1  A    between atoms: C1_1  and  C2_2 
REMARK    2  A    between atoms: C2_2  and  N1_3 
REMARK    3  A    between atoms: C4_5  and  C7_9 
REMARK    4  A    between atoms: C6_7  and  N2_8 
ROOT
ATOM      1  N1  <0> d           0.002  -0.004   0.002  0.00  0.00    -0.344 N 
ATOM      2  C3  <0> d           1.306  -0.424  -0.013  0.00  0.00    -0.013 A 
ATOM      3  C4  <0> d           2.101   0.663  -0.014  0.00  0.00    -0.043 A 
ATOM      4  C5  <0> d           1.266   1.800  -0.000  0.00  0.00    -0.034 A 
ATOM      5  C6  <0> d          -0.016   1.361   0.009  0.00  0.00     0.101 A 
ATOM      6  H6  <0> d           1.640  -1.452  -0.022  0.00  0.00     0.112 H 
ATOM      7  H7  <0> d           1.589   2.830   0.002  0.00  0.00     0.090 H 
ENDROOT
BRANCH   1   8
ATOM      8  C2  <0> d          -1.176  -0.875   0.009  0.00  0.00    -0.003 C 
ATOM      9  H4  <0> d          -0.911  -1.842   0.435  0.00  0.00     0.064 H 
ATOM     10  H5  <0> d          -1.963  -0.417   0.609  0.00  0.00     0.064 H 
BRANCH   8  11
ATOM     11  C1  <0> d          -1.675  -1.069  -1.424  0.00  0.00    -0.061 C 
ATOM     12  H1  <0> d          -0.889  -1.527  -2.024  0.00  0.00     0.029 H 
ATOM     13  H2  <0> d          -2.552  -1.717  -1.419  0.00  0.00     0.029 H 
ATOM     14  H3  <0> d          -1.941  -0.102  -1.851  0.00  0.00     0.029 H 
ENDBRANCH   8  11
ENDBRANCH   1   8
BRANCH   5  15
ATOM     15  N2  <0> d          -1.157   2.164   0.019  0.00  0.00    -0.385 N 
ATOM     16  H8  <0> d          -2.037   1.757   0.022  0.00  0.00     0.157 HD
ATOM     17  H9  <0> d          -1.069   3.130   0.024  0.00  0.00     0.157 HD
ENDBRANCH   5  15
BRANCH   3  18
ATOM     18  C7  <0> d           3.608   0.666  -0.029  0.00  0.00    -0.050 C 
ATOM     19  H10 <0> d           3.962   0.672  -1.060  0.00  0.00     0.033 H 
ATOM     20  H11 <0> d           3.975   1.553   0.486  0.00  0.00     0.033 H 
ATOM     21  H12 <0> d           3.978  -0.227   0.476  0.00  0.00     0.033 H 
ENDBRANCH   3  18
TORSDOF 4
