REMARK  2 active torsions:
REMARK  status: ('A' for Active; 'I' for Inactive)
REMARK    1  A    between atoms: C1_1  and  C2_2 
REMARK    2  A    between atoms: C5_5  and  N3_11 
ROOT
ATOM      1  C2  <0> d          -2.210   4.524   0.046  0.00  0.00     0.073 A 
ATOM      2  C3  <0> d          -1.185   3.478   0.031  0.00  0.00     0.048 A 
ATOM      3  C4  <0> d          -1.223   2.081   0.019  0.00  0.00    -0.040 A 
ATOM      4  C5  <0> d          -0.017   1.395   0.010  0.00  0.00     0.044 A 
ATOM      5  C6  <0> d           1.175   2.116   0.002  0.00  0.00     0.030 A 
ATOM      6  N1  <0> d           1.181   3.432   0.009  0.00  0.00    -0.232 NA
ATOM      7  C7  <0> d           0.058   4.135   0.023  0.00  0.00     0.206 A 
ATOM      8  O1  <0> d          -0.199   5.460   0.032  0.00  0.00    -0.192 OA
ATOM      9  N2  <0> d          -1.597   5.667   0.047  0.00  0.00    -0.130 NA
ATOM     10  H4  <0> d          -2.164   1.551   0.021  0.00  0.00     0.088 H 
ATOM     11  H5  <0> d           2.114   1.583  -0.009  0.00  0.00     0.118 H 
ENDROOT
BRANCH   1  12
ATOM     12  C1  <0> d          -3.702   4.310   0.059  0.00  0.00    -0.033 C 
ATOM     13  H1  <0> d          -4.071   4.264  -0.966  0.00  0.00     0.035 H 
ATOM     14  H2  <0> d          -3.931   3.375   0.570  0.00  0.00     0.035 H 
ATOM     15  H3  <0> d          -4.183   5.137   0.581  0.00  0.00     0.035 H 
ENDBRANCH   1  12
BRANCH   4  16
ATOM     16  N3  <0> d           0.002  -0.004   0.002  0.00  0.00    -0.398 N 
ATOM     17  H6  <0> d           0.849  -0.478  -0.009  0.00  0.00     0.156 HD
ATOM     18  H7  <0> d          -0.831  -0.500   0.007  0.00  0.00     0.156 HD
ENDBRANCH   4  16
TORSDOF 2
