REMARK  1 active torsions:
REMARK  status: ('A' for Active; 'I' for Inactive)
REMARK    1  A    between atoms: C5_6  and  N3_11 
ROOT
ATOM      1  C1  <0> d           1.745   5.677  -0.421  0.00  0.00    -0.056 C 
ATOM      2  C2  <0> d           0.273   5.551   0.028  0.00  0.00    -0.033 C 
ATOM      3  C3  <0> d          -0.013   4.066   0.023  0.00  0.00     0.036 A 
ATOM      4  C4  <0> d           1.154   3.361   0.009  0.00  0.00     0.065 A 
ATOM      5  N1  <0> d           1.122   2.027   0.002  0.00  0.00    -0.069 NA
ATOM      6  C5  <0> d          -0.017   1.365   0.009  0.00  0.00     0.701 A 
ATOM      7  N2  <0> d          -1.210   2.017   0.019  0.00  0.00    -0.154 N 
ATOM      8  H1  <0> d          -2.150   1.444   0.017  0.00  0.00     0.187 HD
ATOM      9  C6  <0> d          -1.234   3.366   0.030  0.00  0.00     0.268 A 
ATOM     10  O1  <0> d          -2.295   3.969   0.043  0.00  0.00    -0.267 OA
ATOM     11  C7  <0> d           2.331   4.313   0.003  0.00  0.00    -0.023 C 
ATOM     12  H2  <0> d           2.285   6.484   0.096  0.00  0.00     0.034 H 
ATOM     13  H3  <0> d           1.854   5.800  -1.509  0.00  0.00     0.034 H 
ATOM     14  H4  <0> d           0.158   5.983   1.033  0.00  0.00     0.040 H 
ATOM     15  H5  <0> d          -0.373   6.091  -0.680  0.00  0.00     0.040 H 
ATOM     16  H8  <0> d           3.099   4.003  -0.720  0.00  0.00     0.042 H 
ATOM     17  H9  <0> d           2.784   4.403   1.002  0.00  0.00     0.042 H 
ENDROOT
BRANCH   6  18
ATOM     18  N3  <0> d           0.002  -0.004   0.002  0.00  0.00    -0.233 N 
ATOM     19  H6  <0> d          -0.943  -0.567   0.008  0.00  0.00     0.174 HD
ATOM     20  H7  <0> d           0.962  -0.541  -0.010  0.00  0.00     0.174 HD
ENDBRANCH   6  18
TORSDOF 1
