REMARK  2 active torsions:
REMARK  status: ('A' for Active; 'I' for Inactive)
REMARK    1  A    between atoms: C1_1  and  C2_2 
REMARK    2  A    between atoms: C3_4  and  N3_7 
ROOT
ATOM      1  C2  <0> d           0.002  -0.004   0.002  0.00  0.00     0.186 A 
ATOM      2  N1  <0> d          -1.045  -0.780   0.003  0.00  0.00    -0.039 NA
ATOM      3  C3  <0> d          -0.663  -2.068  -0.007  0.00  0.00     0.745 A 
ATOM      4  N2  <0> d           0.645  -2.118  -0.013  0.00  0.00     0.070 NA
ATOM      5  O1  <0> d           1.099  -0.772  -0.013  0.00  0.00    -0.183 OA
ENDROOT
BRANCH   1   6
ATOM      6  C1  <0> d          -0.018   1.503   0.010  0.00  0.00    -0.012 C 
ATOM      7  H1  <0> d           1.004   1.880   0.003  0.00  0.00     0.038 H 
ATOM      8  H2  <0> d          -0.545   1.864  -0.873  0.00  0.00     0.038 H 
ATOM      9  H3  <0> d          -0.529   1.854   0.907  0.00  0.00     0.038 H 
ENDBRANCH   1   6
BRANCH   3  10
ATOM     10  N3  <0> d          -1.514  -3.165  -0.008  0.00  0.00    -0.229 N 
ATOM     11  H4  <0> d          -2.475  -3.033  -0.003  0.00  0.00     0.174 HD
ATOM     12  H5  <0> d          -1.148  -4.063  -0.015  0.00  0.00     0.174 HD
ENDBRANCH   3  10
TORSDOF 2
