REMARK  7 active torsions:
REMARK  status: ('A' for Active; 'I' for Inactive)
REMARK    1  A    between atoms: C1_1  and  C2_2 
REMARK    2  A    between atoms: C2_2  and  C3_3 
REMARK    3  A    between atoms: C3_3  and  O3_9 
REMARK    4  A    between atoms: C4_4  and  C5_5 
REMARK    5  A    between atoms: C5_5  and  O2_7 
REMARK    6  A    between atoms: O2_7  and  C6_8 
REMARK    7  A    between atoms: O3_9  and  C7_10 
ROOT
ATOM      1  C3  <0> d           1.165  -2.611  -2.211  0.00  0.00     0.051 C 
ATOM      2  C4  <0> d           0.762  -2.021  -1.071  0.00  0.00     0.018 C 
ATOM      3  H6  <0> d           0.408  -2.623  -0.247  0.00  0.00     0.096 H 
ENDROOT
BRANCH   1   4
ATOM      4  C2  <0> d           1.007  -4.099  -2.386  0.00  0.00    -0.024 C 
ATOM      5  H4  <0> d           1.846  -4.488  -2.963  0.00  0.00     0.042 H 
ATOM      6  H5  <0> d           0.984  -4.580  -1.408  0.00  0.00     0.042 H 
BRANCH   4   7
ATOM      7  C1  <0> d          -0.300  -4.389  -3.128  0.00  0.00    -0.071 C 
ATOM      8  H1  <0> d          -0.277  -3.908  -4.106  0.00  0.00     0.028 H 
ATOM      9  H2  <0> d          -0.414  -5.465  -3.255  0.00  0.00     0.028 H 
ATOM     10  H3  <0> d          -1.139  -3.999  -2.551  0.00  0.00     0.028 H 
ENDBRANCH   4   7
ENDBRANCH   1   4
BRANCH   1  11
ATOM     11  O3  <0> d           1.711  -1.870  -3.196  0.00  0.00    -0.360 OA
BRANCH  11  12
ATOM     12  C7  <0> d           3.107  -2.116  -3.509  0.00  0.00     0.010 C 
ATOM     13  H10 <0> d           3.397  -1.517  -4.372  0.00  0.00     0.066 H 
ATOM     14  H11 <0> d           3.725  -1.842  -2.654  0.00  0.00     0.066 H 
ATOM     15  H12 <0> d           3.248  -3.173  -3.736  0.00  0.00     0.066 H 
ENDBRANCH  11  12
ENDBRANCH   1  11
BRANCH   2  16
ATOM     16  C5  <0> d           0.802  -0.611  -0.951  0.00  0.00     0.284 C 
ATOM     17  O1  <0> d           1.290   0.062  -1.840  0.00  0.00    -0.260 OA
BRANCH  16  18
ATOM     18  O2  <0> d           0.300  -0.013   0.150  0.00  0.00    -0.323 OA
BRANCH  18  19
ATOM     19  C6  <0> d           0.374   1.413   0.204  0.00  0.00     0.013 C 
ATOM     20  H7  <0> d           1.417   1.725   0.151  0.00  0.00     0.067 H 
ATOM     21  H8  <0> d          -0.175   1.837  -0.636  0.00  0.00     0.067 H 
ATOM     22  H9  <0> d          -0.063   1.764   1.139  0.00  0.00     0.067 H 
ENDBRANCH  18  19
ENDBRANCH  16  18
ENDBRANCH   2  16
TORSDOF 7
