REMARK  1 active torsions:
REMARK  status: ('A' for Active; 'I' for Inactive)
REMARK    1  A    between atoms: C5_5  and  O1_7 
ROOT
ATOM      1  C1  <0> d           0.439   4.248   0.021  0.00  0.00    -0.079 A 
ATOM      2  C2  <0> d           1.507   3.378   0.006  0.00  0.00    -0.069 A 
ATOM      3  C3  <0> d           1.288   1.992   0.001  0.00  0.00     0.019 A 
ATOM      4  C4  <0> d          -0.018   1.506   0.010  0.00  0.00    -0.011 A 
ATOM      5  C5  <0> d          -1.085   2.392   0.030  0.00  0.00     0.072 A 
ATOM      6  C6  <0> d          -0.855   3.761   0.031  0.00  0.00    -0.050 A 
ATOM      7  C7  <0> d           0.002  -0.004   0.002  0.00  0.00    -0.031 A 
ATOM      8  C8  <0> d           1.481  -0.415  -0.014  0.00  0.00    -0.001 A 
ATOM      9  C9  <0> d           2.255   0.881  -0.015  0.00  0.00     0.160 A 
ATOM     10  O2  <0> d           3.463   0.989  -0.025  0.00  0.00    -0.292 OA
ATOM     11  H1  <0> d           0.613   5.314   0.025  0.00  0.00     0.083 H 
ATOM     12  H2  <0> d           2.516   3.764  -0.001  0.00  0.00     0.085 H 
ATOM     13  H3  <0> d          -1.689   4.447   0.043  0.00  0.00     0.087 H 
ATOM     14  H5  <0> d          -0.484  -0.390   0.898  0.00  0.00     0.040 H 
ATOM     15  H6  <0> d          -0.501  -0.380  -0.889  0.00  0.00     0.040 H 
ATOM     16  H7  <0> d           1.682  -0.969   0.793  0.00  0.00     0.045 H 
ATOM     17  H8  <0> d           1.703  -0.990  -0.913  0.00  0.00     0.045 H 
ENDROOT
BRANCH   5  18
ATOM     18  O1  <0> d          -2.359   1.919   0.046  0.00  0.00    -0.360 OA
ATOM     19  H4  <0> d          -2.715   1.777   0.934  0.00  0.00     0.217 HD
ENDBRANCH   5  18
TORSDOF 1
