REMARK  4 active torsions:
REMARK  status: ('A' for Active; 'I' for Inactive)
REMARK    1  A    between atoms: C1_1  and  C2_2 
REMARK    2  A    between atoms: C4_4  and  C5_8 
REMARK       I    between atoms: C5_8  and  N3_10 
REMARK    3  A    between atoms: N3_10  and  C6_11 
REMARK    4  A    between atoms: N3_10  and  C7_12 
ROOT
ATOM      1  C2  <0> d           2.007  -0.388  -0.024  0.00  0.00     0.053 A 
ATOM      2  C3  <0> d           1.479  -1.058  -1.129  0.00  0.00    -0.025 A 
ATOM      3  C4  <0> d           1.158  -2.324  -0.671  0.00  0.00     0.119 A 
ATOM      4  N1  <0> d           1.500  -2.350   0.651  0.00  0.00    -0.273 N 
ATOM      5  H1  <0> d           1.391  -3.111   1.242  0.00  0.00     0.189 HD
ATOM      6  N2  <0> d           1.993  -1.214   0.991  0.00  0.00    -0.179 NA
ATOM      7  H5  <0> d           1.348  -0.671  -2.129  0.00  0.00     0.090 H 
ENDROOT
BRANCH   3   8
ATOM      8  C5  <0> d           0.565  -3.422  -1.451  0.00  0.00     0.271 C 
ATOM      9  O1  <0> d           0.439  -3.312  -2.656  0.00  0.00    -0.266 OA
ATOM     10  N3  <0> d           0.163  -4.549  -0.831  0.00  0.00    -0.355 N 
BRANCH  10  11
ATOM     11  C6  <0> d          -0.283  -5.700  -1.620  0.00  0.00    -0.016 C 
ATOM     12  H6  <0> d           0.570  -6.343  -1.840  0.00  0.00     0.056 H 
ATOM     13  H7  <0> d          -1.025  -6.263  -1.054  0.00  0.00     0.056 H 
ATOM     14  H8  <0> d          -0.725  -5.351  -2.554  0.00  0.00     0.056 H 
ENDBRANCH  10  11
BRANCH  10  15
ATOM     15  C7  <0> d           0.172  -4.623   0.632  0.00  0.00    -0.016 C 
ATOM     16  H9  <0> d          -0.017  -3.634   1.047  0.00  0.00     0.056 H 
ATOM     17  H10 <0> d          -0.604  -5.312   0.966  0.00  0.00     0.056 H 
ATOM     18  H11 <0> d           1.145  -4.980   0.972  0.00  0.00     0.056 H 
ENDBRANCH  10  15
ENDBRANCH   3   8
BRANCH   1  19
ATOM     19  C1  <0> d           2.510   1.033  -0.005  0.00  0.00    -0.034 C 
ATOM     20  H2  <0> d           3.571   1.046  -0.255  0.00  0.00     0.035 H 
ATOM     21  H3  <0> d           1.957   1.624  -0.735  0.00  0.00     0.035 H 
ATOM     22  H4  <0> d           2.365   1.456   0.989  0.00  0.00     0.035 H 
ENDBRANCH   1  19
TORSDOF 4
