REMARK  1 active torsions:
REMARK  status: ('A' for Active; 'I' for Inactive)
REMARK    1  A    between atoms: C8_9  and  O1_11 
ROOT
ATOM      1  C1  <0> d          -0.017   1.388   0.010  0.00  0.00    -0.079 A 
ATOM      2  C2  <0> d           1.139   2.108   0.003  0.00  0.00    -0.071 A 
ATOM      3  C3  <0> d           2.373   1.440  -0.013  0.00  0.00    -0.006 A 
ATOM      4  C4  <0> d           3.596   2.132  -0.020  0.00  0.00     0.013 A 
ATOM      5  N1  <0> d           4.725   1.464  -0.034  0.00  0.00    -0.272 NA
ATOM      6  C5  <0> d           4.775   0.139  -0.042  0.00  0.00     0.003 A 
ATOM      7  C6  <0> d           3.646  -0.623  -0.036  0.00  0.00    -0.053 A 
ATOM      8  C7  <0> d           2.397   0.021  -0.021  0.00  0.00     0.010 A 
ATOM      9  C8  <0> d           1.184  -0.692  -0.014  0.00  0.00     0.076 A 
ATOM     10  C9  <0> d           0.002  -0.004   0.002  0.00  0.00    -0.050 A 
ATOM     11  H1  <0> d          -0.965   1.905   0.026  0.00  0.00     0.083 H 
ATOM     12  H2  <0> d           1.107   3.188   0.008  0.00  0.00     0.084 H 
ATOM     13  H3  <0> d           3.606   3.212  -0.015  0.00  0.00     0.116 H 
ATOM     14  H4  <0> d           5.738  -0.350  -0.054  0.00  0.00     0.114 H 
ATOM     15  H5  <0> d           3.709  -1.702  -0.043  0.00  0.00     0.087 H 
ATOM     16  H6  <0> d          -0.930  -0.549   0.008  0.00  0.00     0.087 H 
ENDROOT
BRANCH   9  17
ATOM     17  O1  <0> d           1.188  -2.050  -0.022  0.00  0.00    -0.360 OA
ATOM     18  H7  <0> d           1.197  -2.448   0.859  0.00  0.00     0.217 HD
ENDBRANCH   9  17
TORSDOF 1
