REMARK  3 active torsions:
REMARK  status: ('A' for Active; 'I' for Inactive)
REMARK    1  A    between atoms: C1_1  and  N1_2 
REMARK    2  A    between atoms: N1_2  and  C2_3 
REMARK       I    between atoms: N1_2  and  C3_4 
REMARK    3  A    between atoms: C3_4  and  C4_6 
ROOT
ATOM      1  N1  <0> d          -3.677   3.240  -0.049  0.00  0.00    -0.357 N 
ATOM      2  C3  <0> d          -2.538   3.897  -0.344  0.00  0.00     0.253 C 
ATOM      3  O1  <0> d          -2.500   5.110  -0.270  0.00  0.00    -0.267 OA
ENDROOT
BRANCH   2   4
ATOM      4  C4  <0> d          -1.333   3.143  -0.758  0.00  0.00     0.034 A 
ATOM      5  C8  <0> d          -0.051   3.659  -0.542  0.00  0.00    -0.051 A 
ATOM      6  C7  <0> d           1.045   2.922  -0.945  0.00  0.00     0.003 A 
ATOM      7  H10 <0> d           0.079   4.621  -0.068  0.00  0.00     0.087 H 
ATOM      8  N2  <0> d           0.895   1.748  -1.525  0.00  0.00    -0.273 NA
ATOM      9  H9  <0> d           2.039   3.313  -0.783  0.00  0.00     0.114 H 
ATOM     10  C6  <0> d          -0.294   1.224  -1.747  0.00  0.00     0.003 A 
ATOM     11  C5  <0> d          -1.444   1.896  -1.381  0.00  0.00    -0.051 A 
ATOM     12  H8  <0> d          -0.370   0.259  -2.225  0.00  0.00     0.114 H 
ATOM     13  H7  <0> d          -2.416   1.463  -1.570  0.00  0.00     0.087 H 
ENDBRANCH   2   4
BRANCH   1  14
ATOM     14  C1  <0> d          -4.892   3.990   0.278  0.00  0.00    -0.016 C 
ATOM     15  H1  <0> d          -5.456   4.184  -0.634  0.00  0.00     0.056 H 
ATOM     16  H2  <0> d          -5.504   3.406   0.966  0.00  0.00     0.056 H 
ATOM     17  H3  <0> d          -4.620   4.936   0.746  0.00  0.00     0.056 H 
ENDBRANCH   1  14
BRANCH   1  18
ATOM     18  C2  <0> d          -3.699   1.775  -0.056  0.00  0.00    -0.016 C 
ATOM     19  H4  <0> d          -2.691   1.395   0.111  0.00  0.00     0.056 H 
ATOM     20  H5  <0> d          -4.358   1.418   0.736  0.00  0.00     0.056 H 
ATOM     21  H6  <0> d          -4.065   1.422  -1.020  0.00  0.00     0.056 H 
ENDBRANCH   1  18
TORSDOF 3
