REMARK  1 active torsions:
REMARK  status: ('A' for Active; 'I' for Inactive)
REMARK    1  A    between atoms: C1_1  and  C2_2 
ROOT
ATOM      1  C2  <0> d           0.002  -0.004   0.002  0.00  0.00     0.123 A 
ATOM      2  N1  <0> d          -1.193  -0.678   0.004  0.00  0.00    -0.308 N 
ATOM      3  H1  <0> d          -2.026  -0.182   0.011  0.00  0.00     0.170 HD
ATOM      4  C3  <0> d          -1.217  -2.030  -0.003  0.00  0.00     0.275 A 
ATOM      5  O1  <0> d          -2.273  -2.636  -0.002  0.00  0.00    -0.266 OA
ATOM      6  C4  <0> d           0.060  -2.744  -0.013  0.00  0.00     0.126 A 
ATOM      7  C5  <0> d           0.405  -4.077  -0.022  0.00  0.00    -0.048 A 
ATOM      8  C6  <0> d           1.801  -4.134  -0.029  0.00  0.00    -0.064 A 
ATOM      9  C7  <0> d           2.270  -2.859  -0.025  0.00  0.00     0.005 A 
ATOM     10  N2  <0> d           1.228  -2.006  -0.015  0.00  0.00    -0.238 N 
ATOM     11  N3  <0> d           1.143  -0.608  -0.012  0.00  0.00    -0.154 NA
ATOM     12  H5  <0> d          -0.273  -4.918  -0.023  0.00  0.00     0.087 H 
ATOM     13  H6  <0> d           2.401  -5.032  -0.037  0.00  0.00     0.085 H 
ATOM     14  H7  <0> d           3.312  -2.575  -0.028  0.00  0.00     0.114 H 
ENDROOT
BRANCH   1  15
ATOM     15  C1  <0> d          -0.018   1.503   0.010  0.00  0.00    -0.019 C 
ATOM     16  H2  <0> d           1.004   1.880   0.003  0.00  0.00     0.037 H 
ATOM     17  H3  <0> d          -0.545   1.864  -0.873  0.00  0.00     0.037 H 
ATOM     18  H4  <0> d          -0.529   1.854   0.907  0.00  0.00     0.037 H 
ENDBRANCH   1  15
TORSDOF 1
