REMARK  4 active torsions:
REMARK  status: ('A' for Active; 'I' for Inactive)
REMARK    1  A    between atoms: C1_1  and  C2_2 
REMARK    2  A    between atoms: C2_2  and  C3_4 
REMARK    3  A    between atoms: C6_9  and  C7_10 
REMARK    4  A    between atoms: C7_10  and  O2_11 
ROOT
ATOM      1  C3  <0> d          -0.657   3.234   0.026  0.00  0.00     0.034 A 
ATOM      2  C4  <0> d           0.724   3.176   0.012  0.00  0.00    -0.009 A 
ATOM      3  N1  <0> d           1.089   1.882   0.002  0.00  0.00    -0.374 N 
ATOM      4  H1  <0> d           2.006   1.566  -0.009  0.00  0.00     0.164 HD
ATOM      5  C5  <0> d          -0.013   1.076   0.008  0.00  0.00    -0.014 A 
ATOM      6  C6  <0> d          -1.118   1.839   0.017  0.00  0.00    -0.004 A 
ATOM      7  H5  <0> d           1.394   4.024   0.010  0.00  0.00     0.112 H 
ATOM      8  H6  <0> d           0.002  -0.004   0.002  0.00  0.00     0.112 H 
ENDROOT
BRANCH   1   9
ATOM      9  C2  <0> d          -1.490   4.439   0.041  0.00  0.00     0.157 C 
ATOM     10  O1  <0> d          -2.699   4.340   0.052  0.00  0.00    -0.293 OA
BRANCH   9  11
ATOM     11  C1  <0> d          -0.845   5.801   0.042  0.00  0.00    -0.017 C 
ATOM     12  H2  <0> d           0.150   5.699   0.031  0.00  0.00     0.038 H 
ATOM     13  H3  <0> d          -1.162   6.354  -0.842  0.00  0.00     0.038 H 
ATOM     14  H4  <0> d          -1.145   6.344   0.938  0.00  0.00     0.038 H 
ENDBRANCH   9  11
ENDBRANCH   1   9
BRANCH   6  15
ATOM     15  C7  <0> d          -2.547   1.360   0.019  0.00  0.00     0.043 C 
ATOM     16  H7  <0> d          -3.051   1.727   0.913  0.00  0.00     0.081 H 
ATOM     17  H8  <0> d          -3.058   1.737  -0.867  0.00  0.00     0.081 H 
BRANCH  15  18
ATOM     18  O2  <0> d          -2.570  -0.068   0.011  0.00  0.00    -0.396 OA
ATOM     19  H9  <0> d          -3.460  -0.447   0.013  0.00  0.00     0.209 HD
ENDBRANCH  15  18
ENDBRANCH   6  15
TORSDOF 4
