REMARK  6 active torsions:
REMARK  status: ('A' for Active; 'I' for Inactive)
REMARK    1  A    between atoms: C1_1  and  O1_2 
REMARK    2  A    between atoms: O1_2  and  C2_3 
REMARK    3  A    between atoms: C2_3  and  C3_5 
REMARK    4  A    between atoms: C5_8  and  C6_10 
REMARK    5  A    between atoms: C6_10  and  O4_12 
REMARK    6  A    between atoms: O4_12  and  C7_13 
ROOT
ATOM      1  C3  <0> d          -0.205  -3.200  -2.459  0.00  0.00     0.043 A 
ATOM      2  H1  <0> d          -0.416  -4.219  -2.134  0.00  0.00     0.056 H 
ATOM      3  C4  <0> d           0.216  -2.190  -1.390  0.00  0.00    -0.040 A 
ATOM      4  C5  <0> d           1.247  -2.723  -2.388  0.00  0.00     0.043 A 
ATOM      5  H2  <0> d           1.991  -3.428  -2.016  0.00  0.00     0.056 H 
ATOM      6  H6  <0> d          -0.117  -1.160  -1.512  0.00  0.00     0.035 H 
ATOM      7  H7  <0> d           0.282  -2.545  -0.361  0.00  0.00     0.035 H 
ENDROOT
BRANCH   1   8
ATOM      8  C2  <0> d          -1.049  -2.694  -3.601  0.00  0.00     0.263 C 
ATOM      9  O2  <0> d          -1.766  -1.735  -3.443  0.00  0.00    -0.265 OA
BRANCH   8  10
ATOM     10  O1  <0> d          -1.003  -3.309  -4.793  0.00  0.00    -0.326 OA
BRANCH  10  11
ATOM     11  C1  <0> d          -1.829  -2.776  -5.830  0.00  0.00     0.013 C 
ATOM     12  H3  <0> d          -2.873  -2.816  -5.520  0.00  0.00     0.067 H 
ATOM     13  H4  <0> d          -1.547  -1.741  -6.023  0.00  0.00     0.067 H 
ATOM     14  H5  <0> d          -1.697  -3.364  -6.738  0.00  0.00     0.067 H 
ENDBRANCH  10  11
ENDBRANCH   8  10
ENDBRANCH   1   8
BRANCH   4  15
ATOM     15  C6  <0> d           1.724  -1.783  -3.465  0.00  0.00     0.263 C 
ATOM     16  O3  <0> d           1.717  -0.591  -3.272  0.00  0.00    -0.265 OA
BRANCH  15  17
ATOM     17  O4  <0> d           2.156  -2.271  -4.638  0.00  0.00    -0.326 OA
BRANCH  17  18
ATOM     18  C7  <0> d           2.594  -1.322  -5.614  0.00  0.00     0.013 C 
ATOM     19  H8  <0> d           1.772  -0.650  -5.861  0.00  0.00     0.067 H 
ATOM     20  H9  <0> d           3.427  -0.746  -5.211  0.00  0.00     0.067 H 
ATOM     21  H10 <0> d           2.917  -1.848  -6.513  0.00  0.00     0.067 H 
ENDBRANCH  17  18
ENDBRANCH  15  17
ENDBRANCH   4  15
TORSDOF 6
