REMARK  4 active torsions:
REMARK  status: ('A' for Active; 'I' for Inactive)
REMARK    1  A    between atoms: C1_1  and  C2_2 
REMARK    2  A    between atoms: C2_2  and  C3_3 
REMARK    3  A    between atoms: C3_3  and  C4_4 
REMARK    4  A    between atoms: C7_7  and  C10_10 
ROOT
ATOM      1  C10 <0> d          -1.355  -6.241  -0.018  0.00  0.00    -0.078 C 
ATOM      2  C11 <0> d          -1.339  -7.415  -0.025  0.00  0.00    -0.149 C 
ATOM      3  H12 <0> d          -1.325  -8.465  -0.031  0.00  0.00     0.166 H 
ENDROOT
BRANCH   1   4
ATOM      4  C7  <0> d          -1.374  -4.809  -0.011  0.00  0.00     0.017 A 
ATOM      5  C6  <0> d          -1.390  -4.102  -1.214  0.00  0.00    -0.064 A 
ATOM      6  C5  <0> d          -1.409  -2.723  -1.199  0.00  0.00    -0.075 A 
ATOM      7  H9  <0> d          -1.388  -4.633  -2.154  0.00  0.00     0.085 H 
ATOM      8  C4  <0> d          -1.413  -2.041   0.005  0.00  0.00    -0.058 A 
ATOM      9  H8  <0> d          -1.422  -2.174  -2.129  0.00  0.00     0.084 H 
ATOM     10  C9  <0> d          -1.392  -2.736   1.201  0.00  0.00    -0.075 A 
ATOM     11  C8  <0> d          -1.378  -4.115   1.200  0.00  0.00    -0.064 A 
ATOM     12  H11 <0> d          -1.391  -2.197   2.137  0.00  0.00     0.084 H 
ATOM     13  H10 <0> d          -1.366  -4.657   2.134  0.00  0.00     0.085 H 
BRANCH   8  14
ATOM     14  C3  <0> d          -1.433  -0.534   0.013  0.00  0.00    -0.041 C 
ATOM     15  H6  <0> d          -1.944  -0.182   0.910  0.00  0.00     0.040 H 
ATOM     16  H7  <0> d          -1.960  -0.173  -0.870  0.00  0.00     0.040 H 
BRANCH  14  17
ATOM     17  C2  <0> d           0.002  -0.004   0.002  0.00  0.00    -0.065 C 
ATOM     18  H4  <0> d           0.512  -0.356  -0.895  0.00  0.00     0.032 H 
ATOM     19  H5  <0> d           0.529  -0.365   0.885  0.00  0.00     0.032 H 
BRANCH  17  20
ATOM     20  C1  <0> d          -0.019   1.526   0.010  0.00  0.00    -0.076 C 
ATOM     21  H1  <0> d           1.004   1.903   0.003  0.00  0.00     0.027 H 
ATOM     22  H2  <0> d          -0.546   1.887  -0.873  0.00  0.00     0.027 H 
ATOM     23  H3  <0> d          -0.529   1.877   0.907  0.00  0.00     0.027 H 
ENDBRANCH  17  20
ENDBRANCH  14  17
ENDBRANCH   8  14
ENDBRANCH   1   4
TORSDOF 4
