REMARK  1 active torsions:
REMARK  status: ('A' for Active; 'I' for Inactive)
REMARK    1  A    between atoms: C1_1  and  C2_2 
ROOT
ATOM      1  C2  <0> d           0.002  -0.004   0.002  0.00  0.00    -0.061 A 
ATOM      2  C3  <0> d           0.006  -0.686  -1.207  0.00  0.00    -0.075 A 
ATOM      3  C4  <0> d           0.024  -2.063  -1.238  0.00  0.00    -0.056 A 
ATOM      4  C5  <0> d           0.040  -2.780  -0.045  0.00  0.00     0.046 A 
ATOM      5  C6  <0> d           0.037  -2.083   1.176  0.00  0.00     0.041 A 
ATOM      6  C7  <0> d           0.023  -0.688   1.185  0.00  0.00    -0.061 A 
ATOM      7  C8  <0> d           0.054  -2.860   2.428  0.00  0.00     0.185 A 
ATOM      8  C9  <0> d           0.072  -4.271   2.327  0.00  0.00    -0.019 A 
ATOM      9  C10 <0> d           0.074  -4.863   1.115  0.00  0.00    -0.019 A 
ATOM     10  N1  <0> d           0.058  -4.156  -0.041  0.00  0.00    -0.365 N 
ATOM     11  O1  <0> d           0.052  -2.306   3.514  0.00  0.00    -0.287 OA
ATOM     12  H4  <0> d          -0.007  -0.131  -2.134  0.00  0.00     0.084 H 
ATOM     13  H5  <0> d           0.026  -2.584  -2.184  0.00  0.00     0.087 H 
ATOM     14  H6  <0> d           0.024  -0.152   2.123  0.00  0.00     0.085 H 
ATOM     15  H7  <0> d           0.085  -4.876   3.222  0.00  0.00     0.091 H 
ATOM     16  H8  <0> d           0.089  -5.942   1.064  0.00  0.00     0.111 H 
ATOM     17  H9  <0> d           0.061  -4.632  -0.886  0.00  0.00     0.165 HD
ENDROOT
BRANCH   1  18
ATOM     18  C1  <0> d          -0.018   1.503   0.010  0.00  0.00    -0.051 C 
ATOM     19  H1  <0> d           1.004   1.880   0.003  0.00  0.00     0.033 H 
ATOM     20  H2  <0> d          -0.545   1.864  -0.873  0.00  0.00     0.033 H 
ATOM     21  H3  <0> d          -0.529   1.854   0.907  0.00  0.00     0.033 H 
ENDBRANCH   1  18
TORSDOF 1
