REMARK  4 active torsions:
REMARK  status: ('A' for Active; 'I' for Inactive)
REMARK    1  A    between atoms: C1_1  and  C2_2 
REMARK    2  A    between atoms: C2_2  and  C3_3 
REMARK    3  A    between atoms: C3_3  and  C4_5 
REMARK    4  A    between atoms: C3_3  and  O1_9 
ROOT
ATOM      1  C3  <0> d          -0.013   1.086   0.008  0.00  0.00     0.129 C 
ATOM      2  H1  <0> d           0.002  -0.004   0.002  0.00  0.00     0.096 H 
ENDROOT
BRANCH   1   3
ATOM      3  C2  <0> d           1.423   1.615  -0.003  0.00  0.00    -0.036 C 
ATOM      4  H5  <0> d           1.905   1.339  -0.940  0.00  0.00     0.036 H 
ATOM      5  H6  <0> d           1.410   2.701   0.093  0.00  0.00     0.036 H 
BRANCH   3   6
ATOM      6  C1  <0> d           2.199   1.009   1.168  0.00  0.00    -0.074 C 
ATOM      7  H2  <0> d           3.221   1.387   1.160  0.00  0.00     0.027 H 
ATOM      8  H3  <0> d           1.716   1.286   2.106  0.00  0.00     0.027 H 
ATOM      9  H4  <0> d           2.211  -0.076   1.073  0.00  0.00     0.027 H 
ENDBRANCH   3   6
ENDBRANCH   1   3
BRANCH   1  10
ATOM     10  C4  <0> d          -0.753   1.593  -1.232  0.00  0.00     0.413 C 
ATOM     11  F1  <0> d          -0.098   1.141  -2.382  0.00  0.00    -0.168 F 
ATOM     12  F2  <0> d          -2.065   1.108  -1.222  0.00  0.00    -0.168 F 
ATOM     13  F3  <0> d          -0.772   2.991  -1.224  0.00  0.00    -0.168 F 
ENDBRANCH   1  10
BRANCH   1  14
ATOM     14  O1  <0> d          -0.682   1.547   1.184  0.00  0.00    -0.387 OA
ATOM     15  H7  <0> d          -0.732   2.510   1.256  0.00  0.00     0.210 HD
ENDBRANCH   1  14
TORSDOF 4
