REMARK  0 active torsions:
REMARK  status: ('A' for Active; 'I' for Inactive)
ROOT
ATOM      1  C1  <0> d           2.659   2.203  -0.011  0.00  0.00    -0.061 A 
ATOM      2  C2  <0> d           3.870   1.553  -0.026  0.00  0.00    -0.036 A 
ATOM      3  C3  <0> d           3.923   0.153  -0.034  0.00  0.00     0.017 A 
ATOM      4  C4  <0> d           2.725  -0.577  -0.027  0.00  0.00    -0.061 A 
ATOM      5  C5  <0> d           1.513   0.072  -0.012  0.00  0.00    -0.036 A 
ATOM      6  C6  <0> d           1.464   1.474  -0.004  0.00  0.00     0.017 A 
ATOM      7  C7  <0> d          -0.018   1.507   0.010  0.00  0.00     0.164 A 
ATOM      8  O1  <0> d          -0.872   2.367   0.019  0.00  0.00    -0.292 OA
ATOM      9  C8  <0> d           0.002  -0.004   0.002  0.00  0.00     0.020 A 
ATOM     10  C9  <0> d           5.404   0.092  -0.048  0.00  0.00     0.164 A 
ATOM     11  O2  <0> d           6.250  -0.775  -0.060  0.00  0.00    -0.292 OA
ATOM     12  C10 <0> d           5.378   1.600  -0.040  0.00  0.00     0.020 A 
ATOM     13  H1  <0> d           2.630   3.283  -0.005  0.00  0.00     0.085 H 
ATOM     14  H2  <0> d           2.756  -1.657  -0.033  0.00  0.00     0.085 H 
ATOM     15  H3  <0> d          -0.298  -0.533   0.796  0.00  0.00     0.052 H 
ATOM     16  H4  <0> d          -0.420  -0.439  -0.904  0.00  0.00     0.052 H 
ATOM     17  H5  <0> d           5.688   2.120  -0.835  0.00  0.00     0.052 H 
ATOM     18  H6  <0> d           5.803   2.032   0.866  0.00  0.00     0.052 H 
ENDROOT
TORSDOF 0
