REMARK  2 active torsions:
REMARK  status: ('A' for Active; 'I' for Inactive)
REMARK    1  A    between atoms: C1_1  and  O1_2 
REMARK    2  A    between atoms: O1_2  and  C2_3 
ROOT
ATOM      1  C2  <0> d          -1.295  -0.603   0.011  0.00  0.00     0.151 C 
ATOM      2  H1  <0> d          -1.886  -0.232  -0.827  0.00  0.00     0.136 H 
ATOM      3  C3  <0> d          -1.175  -2.109  -0.060  0.00  0.00    -0.050 C 
ATOM      4  C4  <0> d          -2.014  -2.632   0.806  0.00  0.00    -0.043 C 
ATOM      5  C5  <0> d          -2.734  -1.507   1.502  0.00  0.00     0.186 C 
ATOM      6  O2  <0> d          -1.965  -0.320   1.256  0.00  0.00    -0.318 OA
ATOM      7  C6  <0> d          -2.818  -1.779   3.014  0.00  0.00    -0.007 C 
ATOM      8  C7  <0> d          -4.228  -1.228   3.366  0.00  0.00    -0.040 C 
ATOM      9  C8  <0> d          -5.007  -1.558   2.068  0.00  0.00     0.024 C 
ATOM     10  O3  <0> d          -4.063  -1.361   1.002  0.00  0.00    -0.351 OA
ATOM     11  H5  <0> d          -0.514  -2.660  -0.712  0.00  0.00     0.084 H 
ATOM     12  H6  <0> d          -2.160  -3.687   0.987  0.00  0.00     0.085 H 
ATOM     13  H7  <0> d          -2.756  -2.847   3.222  0.00  0.00     0.041 H 
ATOM     14  H8  <0> d          -2.042  -1.233   3.551  0.00  0.00     0.041 H 
ATOM     15  H9  <0> d          -4.652  -1.751   4.223  0.00  0.00     0.036 H 
ATOM     16  H10 <0> d          -4.197  -0.152   3.542  0.00  0.00     0.036 H 
ATOM     17  H11 <0> d          -5.348  -2.594   2.085  0.00  0.00     0.074 H 
ATOM     18  H12 <0> d          -5.855  -0.883   1.953  0.00  0.00     0.074 H 
ENDROOT
BRANCH   1  19
ATOM     19  O1  <0> d           0.002  -0.004   0.002  0.00  0.00    -0.363 OA
BRANCH  19  20
ATOM     20  C1  <0> d          -0.017   1.425   0.010  0.00  0.00     0.007 C 
ATOM     21  H2  <0> d           1.005   1.802   0.002  0.00  0.00     0.066 H 
ATOM     22  H3  <0> d          -0.544   1.786  -0.873  0.00  0.00     0.066 H 
ATOM     23  H4  <0> d          -0.527   1.776   0.907  0.00  0.00     0.066 H 
ENDBRANCH  19  20
ENDBRANCH   1  19
TORSDOF 2
