REMARK  2 active torsions:
REMARK  status: ('A' for Active; 'I' for Inactive)
REMARK    1  A    between atoms: C1_1  and  C2_2 
REMARK    2  A    between atoms: C3_3  and  C4_4 
ROOT
ATOM      1  C4  <0> d           1.501   5.352   0.015  0.00  0.00     0.128 A 
ATOM      2  N1  <0> d           2.136   4.137   0.003  0.00  0.00    -0.339 N 
ATOM      3  H1  <0> d           3.124   3.984  -0.007  0.00  0.00     0.167 HD
ATOM      4  C5  <0> d           1.155   3.164   0.008  0.00  0.00     0.062 A 
ATOM      5  C6  <0> d           1.175   1.777   0.000  0.00  0.00    -0.055 A 
ATOM      6  C7  <0> d          -0.013   1.076   0.008  0.00  0.00    -0.081 A 
ATOM      7  C8  <0> d          -1.227   1.748   0.017  0.00  0.00    -0.081 A 
ATOM      8  C9  <0> d          -1.267   3.114   0.030  0.00  0.00    -0.053 A 
ATOM      9  C10 <0> d          -0.075   3.846   0.022  0.00  0.00     0.085 A 
ATOM     10  N2  <0> d           0.202   5.172   0.027  0.00  0.00    -0.229 NA
ATOM     11  H7  <0> d           2.117   1.248  -0.011  0.00  0.00     0.087 H 
ATOM     12  H8  <0> d           0.002  -0.004   0.002  0.00  0.00     0.083 H 
ATOM     13  H9  <0> d          -2.149   1.186   0.019  0.00  0.00     0.083 H 
ATOM     14  H10 <0> d          -2.217   3.627   0.042  0.00  0.00     0.087 H 
ENDROOT
BRANCH   1  15
ATOM     15  C3  <0> d           2.176   6.660   0.015  0.00  0.00    -0.043 C 
ATOM     16  C2  <0> d           1.458   7.778   0.028  0.00  0.00    -0.103 C 
ATOM     17  H5  <0> d           0.379   7.727   0.038  0.00  0.00     0.076 H 
ATOM     18  H6  <0> d           3.255   6.711   0.005  0.00  0.00     0.088 H 
BRANCH  16  19
ATOM     19  C1  <0> d           2.149   9.117   0.027  0.00  0.00    -0.060 C 
ATOM     20  H2  <0> d           2.763   9.209  -0.868  0.00  0.00     0.032 H 
ATOM     21  H3  <0> d           1.402   9.912   0.038  0.00  0.00     0.032 H 
ATOM     22  H4  <0> d           2.781   9.201   0.912  0.00  0.00     0.032 H 
ENDBRANCH  16  19
ENDBRANCH   1  15
TORSDOF 2
