REMARK  2 active torsions:
REMARK  status: ('A' for Active; 'I' for Inactive)
REMARK    1  A    between atoms: C1_1  and  C2_2 
REMARK    2  A    between atoms: C4_4  and  C5_7 
ROOT
ATOM      1  C2  <0> d           1.042   1.924   0.002  0.00  0.00     0.077 A 
ATOM      2  C3  <0> d          -0.013   1.076   0.008  0.00  0.00    -0.016 A 
ATOM      3  C4  <0> d          -1.145   1.937   0.017  0.00  0.00     0.163 A 
ATOM      4  N1  <0> d          -0.672   3.159   0.025  0.00  0.00    -0.121 NA
ATOM      5  O1  <0> d           0.537   3.165   0.014  0.00  0.00    -0.217 OA
ATOM      6  H4  <0> d           0.002  -0.004   0.002  0.00  0.00     0.091 H 
ENDROOT
BRANCH   1   7
ATOM      7  C1  <0> d           2.500   1.546  -0.014  0.00  0.00    -0.029 C 
ATOM      8  H1  <0> d           2.842   1.461  -1.046  0.00  0.00     0.036 H 
ATOM      9  H2  <0> d           3.080   2.314   0.499  0.00  0.00     0.036 H 
ATOM     10  H3  <0> d           2.634   0.591   0.493  0.00  0.00     0.036 H 
ENDBRANCH   1   7
BRANCH   3  11
ATOM     11  C5  <0> d          -2.571   1.534   0.021  0.00  0.00     0.231 C 
ATOM     12  O2  <0> d          -2.869   0.357   0.015  0.00  0.00    -0.643 OA
ATOM     13  O3  <0> d          -3.537   2.473   0.029  0.00  0.00    -0.643 OA
ENDBRANCH   3  11
TORSDOF 2
