REMARK  5 active torsions:
REMARK  status: ('A' for Active; 'I' for Inactive)
REMARK    1  A    between atoms: C1_1  and  C2_2 
REMARK    2  A    between atoms: C2_2  and  C3_3 
REMARK    3  A    between atoms: C3_3  and  C4_5 
REMARK    4  A    between atoms: C3_3  and  C5_7 
REMARK    5  A    between atoms: C4_5  and  O1_6 
ROOT
ATOM      1  C3  <0> d          -0.733   1.617   1.282  0.00  0.00    -0.009 C 
ATOM      2  H1  <0> d          -1.754   1.251   1.390  0.00  0.00     0.050 H 
ENDROOT
BRANCH   1   3
ATOM      3  C2  <0> d          -0.136   1.085  -0.023  0.00  0.00    -0.059 C 
ATOM      4  H5  <0> d           0.914   1.371  -0.085  0.00  0.00     0.033 H 
ATOM      5  H6  <0> d          -0.678   1.506  -0.869  0.00  0.00     0.033 H 
BRANCH   3   6
ATOM      6  C1  <0> d          -0.251  -0.441  -0.051  0.00  0.00    -0.076 C 
ATOM      7  H2  <0> d           0.091  -0.813  -1.017  0.00  0.00     0.027 H 
ATOM      8  H3  <0> d           0.364  -0.866   0.742  0.00  0.00     0.027 H 
ATOM      9  H4  <0> d          -1.291  -0.729   0.102  0.00  0.00     0.027 H 
ENDBRANCH   3   6
ENDBRANCH   1   3
BRANCH   1  10
ATOM     10  C4  <0> d          -0.741   3.147   1.252  0.00  0.00     0.024 C 
ATOM     11  H7  <0> d          -1.083   3.527   2.214  0.00  0.00     0.075 H 
ATOM     12  H8  <0> d           0.267   3.512   1.055  0.00  0.00     0.075 H 
BRANCH  10  13
ATOM     13  O1  <0> d          -1.621   3.599   0.221  0.00  0.00    -0.400 OA
ATOM     14  H9  <0> d          -1.675   4.561   0.144  0.00  0.00     0.209 HD
ENDBRANCH  10  13
ENDBRANCH   1  10
BRANCH   1  15
ATOM     15  C5  <0> d           0.097   1.141   2.446  0.00  0.00    -0.052 A 
ATOM     16  C10 <0> d          -0.478   0.363   3.432  0.00  0.00    -0.076 A 
ATOM     17  C9  <0> d           0.284  -0.074   4.500  0.00  0.00    -0.082 A 
ATOM     18  H14 <0> d          -1.522   0.096   3.369  0.00  0.00     0.084 H 
ATOM     19  C8  <0> d           1.621   0.268   4.581  0.00  0.00    -0.083 A 
ATOM     20  H13 <0> d          -0.166  -0.681   5.271  0.00  0.00     0.083 H 
ATOM     21  C7  <0> d           2.196   1.046   3.594  0.00  0.00    -0.082 A 
ATOM     22  H12 <0> d           2.216  -0.072   5.415  0.00  0.00     0.083 H 
ATOM     23  C6  <0> d           1.435   1.479   2.524  0.00  0.00    -0.076 A 
ATOM     24  H11 <0> d           3.240   1.313   3.657  0.00  0.00     0.083 H 
ATOM     25  H10 <0> d           1.886   2.084   1.750  0.00  0.00     0.084 H 
ENDBRANCH   1  15
TORSDOF 5
