REMARK  0 active torsions:
REMARK  status: ('A' for Active; 'I' for Inactive)
ROOT
ATOM      1  C1  <0> d          -0.017   1.399   0.010  0.00  0.00    -0.065 A 
ATOM      2  C2  <0> d           0.002  -0.004   0.002  0.00  0.00    -0.041 A 
ATOM      3  C3  <0> d          -1.181  -0.688   0.010  0.00  0.00     0.174 A 
ATOM      4  C4  <0> d          -2.393   0.033   0.026  0.00  0.00     0.281 A 
ATOM      5  N1  <0> d          -2.375   1.380   0.033  0.00  0.00    -0.331 N 
ATOM      6  C5  <0> d          -1.197   2.059   0.030  0.00  0.00    -0.020 A 
ATOM      7  O1  <0> d          -3.458  -0.563   0.033  0.00  0.00    -0.265 OA
ATOM      8  O2  <0> d          -1.189  -2.048   0.002  0.00  0.00    -0.186 OA
ATOM      9  H1  <0> d           0.911   1.951   0.004  0.00  0.00     0.085 H 
ATOM     10  H2  <0> d           0.941  -0.537  -0.011  0.00  0.00     0.088 H 
ATOM     11  H3  <0> d          -1.204   3.139   0.036  0.00  0.00     0.111 H 
ATOM     12  H4  <0> d          -3.211   1.871   0.044  0.00  0.00     0.168 HD
ENDROOT
TORSDOF 0
