REMARK  3 active torsions:
REMARK  status: ('A' for Active; 'I' for Inactive)
REMARK    1  A    between atoms: C1_1  and  C2_2 
REMARK    2  A    between atoms: C2_2  and  C5_6 
REMARK    3  A    between atoms: C3_3  and  C4_4 
ROOT
ATOM      1  C2  <0> d          -1.318   3.388   0.127  0.00  0.00    -0.081 C 
ATOM      2  C3  <0> d          -1.319   2.095  -0.190  0.00  0.00    -0.008 C 
ATOM      3  H4  <0> d          -2.221   1.512  -0.078  0.00  0.00     0.094 H 
ENDROOT
BRANCH   1   4
ATOM      4  C1  <0> d          -0.026   4.163   0.126  0.00  0.00    -0.055 C 
ATOM      5  H1  <0> d           0.189   4.508  -0.886  0.00  0.00     0.033 H 
ATOM      6  H2  <0> d          -0.117   5.021   0.791  0.00  0.00     0.033 H 
ATOM      7  H3  <0> d           0.784   3.520   0.470  0.00  0.00     0.033 H 
ENDBRANCH   1   4
BRANCH   1   8
ATOM      8  C5  <0> d          -2.610   4.076   0.488  0.00  0.00    -0.055 C 
ATOM      9  H5  <0> d          -3.430   3.360   0.434  0.00  0.00     0.033 H 
ATOM     10  H6  <0> d          -2.539   4.472   1.501  0.00  0.00     0.033 H 
ATOM     11  H7  <0> d          -2.793   4.892  -0.210  0.00  0.00     0.033 H 
ENDBRANCH   1   8
BRANCH   2  12
ATOM     12  C4  <0> d          -0.093   1.461  -0.693  0.00  0.00     0.198 C 
ATOM     13  O1  <0> d           0.891   2.137  -0.923  0.00  0.00    -0.644 OA
ATOM     14  O2  <0> d          -0.060   0.130  -0.905  0.00  0.00    -0.644 OA
ENDBRANCH   2  12
TORSDOF 3
