REMARK  1 active torsions:
REMARK  status: ('A' for Active; 'I' for Inactive)
REMARK    1  A    between atoms: C1_1  and  N1_2 
REMARK       I    between atoms: N1_2  and  C2_3 
REMARK       I    between atoms: C2_3  and  N2_5 
ROOT
ATOM      1  N1  <0> d          -1.150  -0.694   0.111  0.00  0.00    -0.347 N 
ATOM      2  C2  <0> d           0.002  -0.004   0.002  0.00  0.00     0.317 C 
ATOM      3  O1  <0> d           1.058  -0.597  -0.104  0.00  0.00    -0.247 OA
ATOM      4  N2  <0> d          -0.016   1.343   0.011  0.00  0.00    -0.334 N 
ATOM      5  C3  <0> d          -1.290   2.075   0.021  0.00  0.00    -0.001 C 
ATOM      6  C4  <0> d          -1.279   3.060   1.200  0.00  0.00    -0.050 C 
ATOM      7  C5  <0> d          -0.042   3.955   1.098  0.00  0.00    -0.062 C 
ATOM      8  C6  <0> d           1.221   3.093   1.178  0.00  0.00    -0.050 C 
ATOM      9  C7  <0> d           1.238   2.109   0.004  0.00  0.00    -0.001 C 
ATOM     10  H4  <0> d          -1.998  -0.224   0.122  0.00  0.00     0.163 HD
ATOM     11  H5  <0> d          -1.405   2.622  -0.914  0.00  0.00     0.064 H 
ATOM     12  H6  <0> d          -2.115   1.371   0.139  0.00  0.00     0.064 H 
ATOM     13  H7  <0> d          -1.251   2.506   2.139  0.00  0.00     0.035 H 
ATOM     14  H8  <0> d          -2.177   3.676   1.168  0.00  0.00     0.035 H 
ATOM     15  H9  <0> d          -0.044   4.673   1.918  0.00  0.00     0.033 H 
ATOM     16  H10 <0> d          -0.058   4.489   0.148  0.00  0.00     0.033 H 
ATOM     17  H11 <0> d           1.225   2.540   2.117  0.00  0.00     0.035 H 
ATOM     18  H12 <0> d           2.102   3.734   1.128  0.00  0.00     0.035 H 
ATOM     19  H13 <0> d           2.082   1.428   0.110  0.00  0.00     0.064 H 
ATOM     20  H14 <0> d           1.326   2.657  -0.934  0.00  0.00     0.064 H 
ENDROOT
BRANCH   1  21
ATOM     21  C1  <0> d          -1.122  -2.155   0.213  0.00  0.00    -0.017 C 
ATOM     22  H1  <0> d          -0.648  -2.573  -0.675  0.00  0.00     0.056 H 
ATOM     23  H2  <0> d          -0.556  -2.447   1.098  0.00  0.00     0.056 H 
ATOM     24  H3  <0> d          -2.141  -2.534   0.293  0.00  0.00     0.056 H 
ENDBRANCH   1  21
TORSDOF 1
