REMARK  0 active torsions:
REMARK  status: ('A' for Active; 'I' for Inactive)
ROOT
ATOM      1  C1  <0> d           1.423   1.951  -0.001  0.00  0.00     0.010 C 
ATOM      2  C2  <0> d          -0.017   1.425   0.010  0.00  0.00     0.026 C 
ATOM      3  O1  <0> d           0.002  -0.004   0.002  0.00  0.00    -0.390 OA
ATOM      4  C3  <0> d           0.572  -0.595   1.171  0.00  0.00     0.026 C 
ATOM      5  C4  <0> d           2.059  -0.227   1.251  0.00  0.00     0.010 C 
ATOM      6  C5  <0> d           2.179   1.278   1.127  0.00  0.00     0.131 C 
ATOM      7  O2  <0> d           2.851   1.918   1.899  0.00  0.00    -0.298 OA
ATOM      8  H1  <0> d           1.430   3.040   0.151  0.00  0.00     0.047 H 
ATOM      9  H2  <0> d           1.907   1.712  -0.960  0.00  0.00     0.047 H 
ATOM     10  H3  <0> d          -0.531   1.781   0.915  0.00  0.00     0.074 H 
ATOM     11  H4  <0> d          -0.548   1.791  -0.881  0.00  0.00     0.074 H 
ATOM     12  H5  <0> d           0.051  -0.219   2.064  0.00  0.00     0.074 H 
ATOM     13  H6  <0> d           0.466  -1.689   1.118  0.00  0.00     0.074 H 
ATOM     14  H7  <0> d           2.468  -0.562   2.216  0.00  0.00     0.047 H 
ATOM     15  H8  <0> d           2.603  -0.720   0.432  0.00  0.00     0.047 H 
ENDROOT
TORSDOF 0
