REMARK  0 active torsions:
REMARK  status: ('A' for Active; 'I' for Inactive)
ROOT
ATOM      1  C1  <0> d          -0.017   1.388   0.010  0.00  0.00    -0.047 A 
ATOM      2  C2  <0> d           1.163   2.098   0.002  0.00  0.00    -0.063 A 
ATOM      3  C3  <0> d           2.381   1.418  -0.013  0.00  0.00     0.061 A 
ATOM      4  C4  <0> d           2.401   0.012  -0.021  0.00  0.00     0.066 A 
ATOM      5  C5  <0> d           1.207  -0.690  -0.014  0.00  0.00    -0.020 A 
ATOM      6  C6  <0> d           0.002  -0.004   0.002  0.00  0.00     0.109 A 
ATOM      7  O1  <0> d          -1.167  -0.694   0.009  0.00  0.00    -0.192 OA
ATOM      8  N1  <0> d           3.730  -0.383  -0.036  0.00  0.00    -0.297 N 
ATOM      9  H1  <0> d           4.042  -1.302  -0.044  0.00  0.00     0.187 HD
ATOM     10  N2  <0> d           4.551   0.749  -0.037  0.00  0.00    -0.265 N 
ATOM     11  H2  <0> d           5.521   0.738  -0.047  0.00  0.00     0.190 HD
ATOM     12  C7  <0> d           3.785   1.858  -0.024  0.00  0.00     0.272 A 
ATOM     13  O2  <0> d           4.180   3.008  -0.022  0.00  0.00    -0.266 OA
ATOM     14  H3  <0> d          -0.961   1.913   0.026  0.00  0.00     0.087 H 
ATOM     15  H4  <0> d           1.145   3.178   0.008  0.00  0.00     0.085 H 
ATOM     16  H5  <0> d           1.215  -1.770  -0.019  0.00  0.00     0.091 H 
ENDROOT
TORSDOF 0
