REMARK  5 active torsions:
REMARK  status: ('A' for Active; 'I' for Inactive)
REMARK    1  A    between atoms: C1_1  and  C2_2 
REMARK    2  A    between atoms: C2_2  and  C3_4 
REMARK    3  A    between atoms: C2_2  and  O2_8 
REMARK    4  A    between atoms: C3_4  and  C4_6 
REMARK    5  A    between atoms: C3_4  and  O1_7 
ROOT
ATOM      1  C2  <0> d           2.064   1.114   1.238  0.00  0.00     0.056 C 
ATOM      2  H1  <0> d           3.018   1.639   1.277  0.00  0.00     0.086 H 
ENDROOT
BRANCH   1   3
ATOM      3  C1  <0> d           1.251   1.437   2.493  0.00  0.00    -0.050 C 
ATOM      4  H3  <0> d           0.297   0.912   2.454  0.00  0.00     0.031 H 
ATOM      5  H4  <0> d           1.805   1.118   3.376  0.00  0.00     0.031 H 
ATOM      6  H5  <0> d           1.073   2.511   2.544  0.00  0.00     0.031 H 
ENDBRANCH   1   3
BRANCH   1   7
ATOM      7  C3  <0> d           1.286   1.562  -0.002  0.00  0.00     0.056 C 
ATOM      8  H2  <0> d           1.186   2.647   0.005  0.00  0.00     0.086 H 
BRANCH   7   9
ATOM      9  C4  <0> d           2.040   1.127  -1.261  0.00  0.00    -0.050 C 
ATOM     10  H6  <0> d           1.486   1.446  -2.144  0.00  0.00     0.031 H 
ATOM     11  H7  <0> d           3.029   1.584  -1.268  0.00  0.00     0.031 H 
ATOM     12  H8  <0> d           2.140   0.042  -1.268  0.00  0.00     0.031 H 
ENDBRANCH   7   9
BRANCH   7  13
ATOM     13  O1  <0> d          -0.011   0.963   0.007  0.00  0.00    -0.393 OA
ATOM     14  H9  <0> d           0.002  -0.004   0.002  0.00  0.00     0.210 HD
ENDBRANCH   7  13
ENDBRANCH   1   7
BRANCH   1  15
ATOM     15  O2  <0> d           2.297  -0.294   1.171  0.00  0.00    -0.393 OA
ATOM     16  H10 <0> d           1.490  -0.825   1.133  0.00  0.00     0.210 HD
ENDBRANCH   1  15
TORSDOF 5
