REMARK  2 active torsions:
REMARK  status: ('A' for Active; 'I' for Inactive)
REMARK    1  A    between atoms: C1_1  and  C2_2 
REMARK    2  A    between atoms: C7_7  and  O1_12 
ROOT
ATOM      1  C2  <0> d          -2.325   1.414   0.032  0.00  0.00     0.031 A 
ATOM      2  C3  <0> d          -2.377   0.022   0.025  0.00  0.00    -0.059 A 
ATOM      3  C4  <0> d          -1.220  -0.703   0.010  0.00  0.00    -0.069 A 
ATOM      4  C5  <0> d           0.002  -0.004   0.002  0.00  0.00    -0.005 A 
ATOM      5  C6  <0> d           1.231  -0.682  -0.013  0.00  0.00    -0.039 A 
ATOM      6  C7  <0> d           2.395   0.032  -0.020  0.00  0.00     0.066 A 
ATOM      7  C8  <0> d           2.376   1.431  -0.013  0.00  0.00    -0.049 A 
ATOM      8  C9  <0> d           1.202   2.115   0.002  0.00  0.00    -0.052 A 
ATOM      9  C10 <0> d          -0.017   1.413   0.010  0.00  0.00     0.067 A 
ATOM     10  N1  <0> d          -1.186   2.062   0.030  0.00  0.00    -0.253 NA
ATOM     11  H4  <0> d          -3.332  -0.484   0.031  0.00  0.00     0.086 H 
ATOM     12  H5  <0> d          -1.242  -1.783   0.005  0.00  0.00     0.085 H 
ATOM     13  H6  <0> d           1.256  -1.762  -0.019  0.00  0.00     0.089 H 
ATOM     14  H7  <0> d           3.309   1.975  -0.019  0.00  0.00     0.087 H 
ATOM     15  H8  <0> d           1.204   3.195   0.007  0.00  0.00     0.087 H 
ENDROOT
BRANCH   1  16
ATOM     16  C1  <0> d          -3.613   2.196   0.049  0.00  0.00    -0.035 C 
ATOM     17  H1  <0> d          -3.914   2.379   1.081  0.00  0.00     0.035 H 
ATOM     18  H2  <0> d          -3.467   3.148  -0.461  0.00  0.00     0.035 H 
ATOM     19  H3  <0> d          -4.391   1.626  -0.460  0.00  0.00     0.035 H 
ENDBRANCH   1  16
BRANCH   6  20
ATOM     20  O1  <0> d           3.586  -0.623  -0.034  0.00  0.00    -0.361 OA
ATOM     21  H9  <0> d           3.922  -0.808  -0.922  0.00  0.00     0.217 HD
ENDBRANCH   6  20
TORSDOF 2
