REMARK  5 active torsions:
REMARK  status: ('A' for Active; 'I' for Inactive)
REMARK    1  A    between atoms: C2_2  and  C3_3 
REMARK    2  A    between atoms: C3_3  and  C4_4 
REMARK    3  A    between atoms: C4_4  and  C5_5 
REMARK    4  A    between atoms: C5_5  and  C6_6 
REMARK    5  A    between atoms: C6_6  and  C7_7 
ROOT
ATOM      1  C7  <0> d          -0.018   1.468   0.010  0.00  0.00     0.015 C 
ATOM      2  C8  <0> d           0.002  -0.004   0.002  0.00  0.00     0.059 C 
ATOM      3  N1  <0> d           0.018  -1.140  -0.004  0.00  0.00    -0.197 NA
ATOM      4  H12 <0> d          -0.550   1.832  -0.881  0.00  0.00     0.054 H 
ATOM      5  H13 <0> d           1.014   1.849   0.002  0.00  0.00     0.054 H 
ENDROOT
BRANCH   1   6
ATOM      6  C6  <0> d          -0.734   1.961   1.269  0.00  0.00    -0.054 C 
ATOM      7  H10 <0> d          -0.202   1.597   2.160  0.00  0.00     0.034 H 
ATOM      8  H11 <0> d          -1.766   1.580   1.277  0.00  0.00     0.034 H 
BRANCH   6   9
ATOM      9  C5  <0> d          -0.755   3.491   1.277  0.00  0.00    -0.064 C 
ATOM     10  H8  <0> d          -1.287   3.855   0.386  0.00  0.00     0.033 H 
ATOM     11  H9  <0> d           0.277   3.872   1.269  0.00  0.00     0.033 H 
BRANCH   9  12
ATOM     12  C4  <0> d          -1.471   3.984   2.536  0.00  0.00    -0.062 C 
ATOM     13  H6  <0> d          -0.939   3.620   3.427  0.00  0.00     0.033 H 
ATOM     14  H7  <0> d          -2.503   3.604   2.544  0.00  0.00     0.033 H 
BRANCH  12  15
ATOM     15  C3  <0> d          -1.492   5.514   2.545  0.00  0.00    -0.051 C 
ATOM     16  H4  <0> d          -2.024   5.879   1.653  0.00  0.00     0.038 H 
ATOM     17  H5  <0> d          -0.460   5.895   2.537  0.00  0.00     0.038 H 
BRANCH  15  18
ATOM     18  C2  <0> d          -2.197   6.000   3.784  0.00  0.00    -0.112 C 
ATOM     19  C1  <0> d          -1.596   6.836   4.595  0.00  0.00    -0.125 C 
ATOM     20  H1  <0> d          -2.111   7.191   5.500  0.00  0.00     0.066 H 
ATOM     21  H2  <0> d          -0.577   7.183   4.370  0.00  0.00     0.066 H 
ATOM     22  H3  <0> d          -3.216   5.653   4.009  0.00  0.00     0.075 H 
ENDBRANCH  15  18
ENDBRANCH  12  15
ENDBRANCH   9  12
ENDBRANCH   6   9
ENDBRANCH   1   6
TORSDOF 5
