REMARK  2 active torsions:
REMARK  status: ('A' for Active; 'I' for Inactive)
REMARK    1  A    between atoms: C1_1  and  C2_2 
REMARK    2  A    between atoms: C4_5  and  N4_10 
ROOT
ATOM      1  C2  <0> d          -0.017   1.382   0.010  0.00  0.00     0.050 A 
ATOM      2  C3  <0> d           0.002  -0.004   0.002  0.00  0.00     0.028 A 
ATOM      3  N1  <0> d           1.151  -0.656  -0.013  0.00  0.00    -0.239 NA
ATOM      4  C4  <0> d           2.296   0.016  -0.020  0.00  0.00     0.161 A 
ATOM      5  C5  <0> d           2.277   1.421  -0.012  0.00  0.00     0.182 A 
ATOM      6  N2  <0> d           1.112   2.064   0.003  0.00  0.00    -0.238 NA
ATOM      7  C6  <0> d           3.505   2.158  -0.020  0.00  0.00     0.123 C 
ATOM      8  N3  <0> d           4.479   2.742  -0.027  0.00  0.00    -0.190 NA
ATOM      9  H4  <0> d          -0.927  -0.554   0.008  0.00  0.00     0.117 H 
ENDROOT
BRANCH   4  10
ATOM     10  N4  <0> d           3.501  -0.663  -0.035  0.00  0.00    -0.382 N 
ATOM     11  H5  <0> d           4.448  -0.103  -0.042  0.00  0.00     0.157 HD
ATOM     12  H6  <0> d           3.513  -1.763  -0.042  0.00  0.00     0.157 HD
ENDBRANCH   4  10
BRANCH   1  13
ATOM     13  C1  <0> d          -1.334   2.114   0.020  0.00  0.00    -0.034 C 
ATOM     14  H1  <0> d          -2.158   1.385   0.025  0.00  0.00     0.035 H 
ATOM     15  H2  <0> d          -1.409   2.746  -0.877  0.00  0.00     0.035 H 
ATOM     16  H3  <0> d          -1.397   2.744   0.919  0.00  0.00     0.035 H 
ENDBRANCH   1  13
TORSDOF 2
