REMARK  1 active torsions:
REMARK  status: ('A' for Active; 'I' for Inactive)
REMARK    1  A    between atoms: C5_5  and  O1_7 
ROOT
ATOM      1  C1  <0> d           0.017  -2.074  -1.207  0.00  0.00    -0.080 A 
ATOM      2  C2  <0> d           0.038  -2.772  -0.014  0.00  0.00    -0.080 A 
ATOM      3  C3  <0> d           0.041  -2.090   1.189  0.00  0.00    -0.043 A 
ATOM      4  C4  <0> d           0.023  -0.706   1.200  0.00  0.00     0.149 A 
ATOM      5  C5  <0> d           0.002  -0.004   0.002  0.00  0.00     0.104 A 
ATOM      6  C6  <0> d          -0.006  -0.692  -1.202  0.00  0.00    -0.048 A 
ATOM      7  F1  <0> d           0.025  -0.039   2.375  0.00  0.00    -0.203 F 
ATOM      8  H1  <0> d           0.015  -2.610  -2.145  0.00  0.00     0.083 H 
ATOM      9  H2  <0> d           0.052  -3.852  -0.021  0.00  0.00     0.083 H 
ATOM     10  H3  <0> d           0.058  -2.637   2.120  0.00  0.00     0.088 H 
ATOM     11  H4  <0> d          -0.026  -0.149  -2.135  0.00  0.00     0.087 H 
ENDROOT
BRANCH   5  12
ATOM     12  O1  <0> d          -0.016   1.355   0.009  0.00  0.00    -0.358 OA
ATOM     13  H5  <0> d           0.862   1.761   0.003  0.00  0.00     0.217 HD
ENDBRANCH   5  12
TORSDOF 1
