REMARK  5 active torsions:
REMARK  status: ('A' for Active; 'I' for Inactive)
REMARK    1  A    between atoms: C1_1  and  C2_2 
REMARK    2  A    between atoms: C2_2  and  O1_3 
REMARK    3  A    between atoms: O1_3  and  C3_4 
REMARK    4  A    between atoms: C3_4  and  C4_5 
REMARK    5  A    between atoms: C4_5  and  O2_6 
ROOT
ATOM      1  O1  <0> d          -1.339  -0.499   0.012  0.00  0.00    -0.389 OA
ENDROOT
BRANCH   1   2
ATOM      2  C2  <0> d           0.002  -0.004   0.002  0.00  0.00     0.016 C 
ATOM      3  H4  <0> d           0.512  -0.356  -0.895  0.00  0.00     0.073 H 
ATOM      4  H5  <0> d           0.529  -0.365   0.885  0.00  0.00     0.073 H 
BRANCH   2   5
ATOM      5  C1  <0> d          -0.019   1.526   0.010  0.00  0.00    -0.056 C 
ATOM      6  H1  <0> d           1.004   1.903   0.003  0.00  0.00     0.030 H 
ATOM      7  H2  <0> d          -0.546   1.887  -0.873  0.00  0.00     0.030 H 
ATOM      8  H3  <0> d          -0.529   1.877   0.907  0.00  0.00     0.030 H 
ENDBRANCH   2   5
ENDBRANCH   1   2
BRANCH   1   9
ATOM      9  C3  <0> d          -1.432  -1.925   0.005  0.00  0.00     0.039 C 
ATOM     10  H6  <0> d          -0.952  -2.316  -0.891  0.00  0.00     0.077 H 
ATOM     11  H7  <0> d          -0.935  -2.325   0.888  0.00  0.00     0.077 H 
BRANCH   9  12
ATOM     12  C4  <0> d          -2.905  -2.339   0.017  0.00  0.00     0.036 C 
ATOM     13  H8  <0> d          -2.976  -3.424   0.102  0.00  0.00     0.077 H 
ATOM     14  H9  <0> d          -3.406  -1.875   0.866  0.00  0.00     0.077 H 
BRANCH  12  15
ATOM     15  O2  <0> d          -3.529  -1.914  -1.196  0.00  0.00    -0.399 OA
ATOM     16  H10 <0> d          -4.466  -2.143  -1.257  0.00  0.00     0.209 HD
ENDBRANCH  12  15
ENDBRANCH   9  12
ENDBRANCH   1   9
TORSDOF 5
