REMARK  5 active torsions:
REMARK  status: ('A' for Active; 'I' for Inactive)
REMARK    1  A    between atoms: C1_1  and  C2_2 
REMARK    2  A    between atoms: C3_4  and  N4_10 
REMARK    3  A    between atoms: N3_6  and  C4_7 
REMARK    4  A    between atoms: C4_7  and  C5_8 
REMARK    5  A    between atoms: C4_7  and  C6_9 
ROOT
ATOM      1  C2  <0> d          -0.718   1.572   1.248  0.00  0.00     0.138 A 
ATOM      2  N1  <0> d          -0.154   1.829   2.401  0.00  0.00    -0.047 NA
ATOM      3  C3  <0> d          -1.078   2.241   3.274  0.00  0.00     0.738 A 
ATOM      4  N2  <0> d          -2.248   2.248   2.680  0.00  0.00     0.022 NA
ATOM      5  N3  <0> d          -2.034   1.821   1.359  0.00  0.00    -0.236 N 
ENDROOT
BRANCH   5   6
ATOM      6  C4  <0> d          -3.046   1.673   0.310  0.00  0.00     0.030 C 
ATOM      7  H4  <0> d          -2.571   1.321  -0.606  0.00  0.00     0.074 H 
BRANCH   6   8
ATOM      8  C5  <0> d          -4.101   0.661   0.759  0.00  0.00    -0.056 C 
ATOM      9  H5  <0> d          -3.626  -0.302   0.944  0.00  0.00     0.030 H 
ATOM     10  H6  <0> d          -4.576   1.013   1.675  0.00  0.00     0.030 H 
ATOM     11  H7  <0> d          -4.854   0.551  -0.021  0.00  0.00     0.030 H 
ENDBRANCH   6   8
BRANCH   6  12
ATOM     12  C6  <0> d          -3.713   3.026   0.052  0.00  0.00    -0.056 C 
ATOM     13  H8  <0> d          -2.961   3.747  -0.268  0.00  0.00     0.030 H 
ATOM     14  H9  <0> d          -4.466   2.916  -0.729  0.00  0.00     0.030 H 
ATOM     15  H10 <0> d          -4.188   3.377   0.968  0.00  0.00     0.030 H 
ENDBRANCH   6  12
ENDBRANCH   5   6
BRANCH   1  16
ATOM     16  C1  <0> d          -0.013   1.086   0.008  0.00  0.00    -0.019 C 
ATOM     17  H1  <0> d           0.002  -0.004   0.002  0.00  0.00     0.037 H 
ATOM     18  H2  <0> d           1.010   1.463   0.000  0.00  0.00     0.037 H 
ATOM     19  H3  <0> d          -0.540   1.447  -0.875  0.00  0.00     0.037 H 
ENDBRANCH   1  16
BRANCH   3  20
ATOM     20  N4  <0> d          -0.838   2.603   4.601  0.00  0.00    -0.230 N 
ATOM     21  H11 <0> d           0.063   2.566   4.958  0.00  0.00     0.174 HD
ATOM     22  H12 <0> d          -1.573   2.891   5.165  0.00  0.00     0.174 HD
ENDBRANCH   3  20
TORSDOF 5
