REMARK  3 active torsions:
REMARK  status: ('A' for Active; 'I' for Inactive)
REMARK    1  A    between atoms: C1_1  and  C2_2 
REMARK    2  A    between atoms: C2_2  and  C3_4 
REMARK    3  A    between atoms: C5_6  and  C6_10 
ROOT
ATOM      1  C3  <0> d           0.043   1.819   2.473  0.00  0.00     0.098 A 
ATOM      2  C4  <0> d          -0.457   2.269   3.683  0.00  0.00    -0.016 A 
ATOM      3  C5  <0> d           0.657   2.345   4.541  0.00  0.00     0.155 A 
ATOM      4  N1  <0> d           1.718   1.968   3.851  0.00  0.00    -0.167 NA
ATOM      5  N2  <0> d           1.392   1.657   2.648  0.00  0.00    -0.274 N 
ATOM      6  H1  <0> d           2.029   1.343   1.943  0.00  0.00     0.189 HD
ATOM      7  H5  <0> d          -1.483   2.510   3.919  0.00  0.00     0.091 H 
ENDROOT
BRANCH   1   8
ATOM      8  C2  <0> d          -0.718   1.572   1.248  0.00  0.00     0.173 C 
ATOM      9  O1  <0> d          -1.917   1.758   1.230  0.00  0.00    -0.291 OA
BRANCH   8  10
ATOM     10  C1  <0> d          -0.013   1.086   0.008  0.00  0.00    -0.015 C 
ATOM     11  H2  <0> d           0.001   0.086   0.003  0.00  0.00     0.038 H 
ATOM     12  H3  <0> d           1.010   1.463   0.000  0.00  0.00     0.038 H 
ATOM     13  H4  <0> d          -0.540   1.447  -0.875  0.00  0.00     0.038 H 
ENDBRANCH   8  10
ENDBRANCH   1   8
BRANCH   3  14
ATOM     14  C6  <0> d           0.643   2.773   5.954  0.00  0.00     0.230 C 
ATOM     15  O2  <0> d          -0.403   3.098   6.479  0.00  0.00    -0.643 OA
ATOM     16  O3  <0> d           1.790   2.803   6.660  0.00  0.00    -0.643 OA
ENDBRANCH   3  14
TORSDOF 3
