REMARK  3 active torsions:
REMARK  status: ('A' for Active; 'I' for Inactive)
REMARK    1  A    between atoms: C1_1  and  S1_2 
REMARK    2  A    between atoms: S1_2  and  C2_3 
REMARK    3  A    between atoms: C5_7  and  N3_9 
ROOT
ATOM      1  C2  <0> d          -2.443   0.933   1.257  0.00  0.00     0.189 A 
ATOM      2  N1  <0> d          -2.658   0.203   0.172  0.00  0.00    -0.235 NA
ATOM      3  C3  <0> d          -3.833  -0.370  -0.040  0.00  0.00     0.009 A 
ATOM      4  C4  <0> d          -4.848  -0.193   0.880  0.00  0.00    -0.022 A 
ATOM      5  C5  <0> d          -4.594   0.586   2.011  0.00  0.00     0.125 A 
ATOM      6  N2  <0> d          -3.390   1.127   2.163  0.00  0.00    -0.206 NA
ATOM      7  H4  <0> d          -3.997  -0.967  -0.926  0.00  0.00     0.115 H 
ATOM      8  H5  <0> d          -5.816  -0.646   0.728  0.00  0.00     0.091 H 
ENDROOT
BRANCH   1   9
ATOM      9  S1  <0> d          -0.860   1.669   1.497  0.00  0.00    -0.095 SA
BRANCH   9  10
ATOM     10  C1  <0> d          -0.013   1.086   0.008  0.00  0.00    -0.027 C 
ATOM     11  H1  <0> d           0.002  -0.004   0.002  0.00  0.00     0.042 H 
ATOM     12  H2  <0> d           1.010   1.463   0.000  0.00  0.00     0.042 H 
ATOM     13  H3  <0> d          -0.540   1.447  -0.875  0.00  0.00     0.042 H 
ENDBRANCH   9  10
ENDBRANCH   1   9
BRANCH   5  14
ATOM     14  N3  <0> d          -5.582   0.790   2.960  0.00  0.00    -0.384 N 
ATOM     15  H6  <0> d          -5.398   1.333   3.743  0.00  0.00     0.157 HD
ATOM     16  H7  <0> d          -6.458   0.392   2.841  0.00  0.00     0.157 HD
ENDBRANCH   5  14
TORSDOF 3
