REMARK  2 active torsions:
REMARK  status: ('A' for Active; 'I' for Inactive)
REMARK    1  A    between atoms: C1_1  and  C2_2 
REMARK    2  A    between atoms: C7_7  and  N3_12 
ROOT
ATOM      1  C2  <0> d          -0.718   1.572   1.248  0.00  0.00     0.063 A 
ATOM      2  C3  <0> d          -0.103   1.849   2.493  0.00  0.00     0.020 A 
ATOM      3  C4  <0> d           1.220   1.776   2.954  0.00  0.00    -0.069 A 
ATOM      4  C5  <0> d           1.512   2.117   4.241  0.00  0.00    -0.080 A 
ATOM      5  C6  <0> d           0.513   2.538   5.109  0.00  0.00    -0.055 A 
ATOM      6  C7  <0> d          -0.799   2.619   4.682  0.00  0.00     0.055 A 
ATOM      7  C8  <0> d          -1.119   2.274   3.365  0.00  0.00     0.088 A 
ATOM      8  N1  <0> d          -2.290   2.245   2.649  0.00  0.00    -0.275 N 
ATOM      9  H1  <0> d          -3.196   2.490   2.994  0.00  0.00     0.189 HD
ATOM     10  N2  <0> d          -1.993   1.812   1.351  0.00  0.00    -0.178 NA
ATOM     11  H5  <0> d           2.006   1.450   2.289  0.00  0.00     0.085 H 
ATOM     12  H6  <0> d           2.533   2.060   4.590  0.00  0.00     0.083 H 
ATOM     13  H7  <0> d           0.763   2.804   6.126  0.00  0.00     0.087 H 
ENDROOT
BRANCH   1  14
ATOM     14  C1  <0> d          -0.013   1.086   0.008  0.00  0.00    -0.033 C 
ATOM     15  H2  <0> d           0.002  -0.004   0.002  0.00  0.00     0.035 H 
ATOM     16  H3  <0> d           1.010   1.463   0.000  0.00  0.00     0.035 H 
ATOM     17  H4  <0> d          -0.540   1.447  -0.875  0.00  0.00     0.035 H 
ENDBRANCH   1  14
BRANCH   6  18
ATOM     18  N3  <0> d          -1.800   3.043   5.561  0.00  0.00    -0.397 N 
ATOM     19  H8  <0> d          -1.575   3.282   6.474  0.00  0.00     0.156 HD
ATOM     20  H9  <0> d          -2.720   3.099   5.258  0.00  0.00     0.156 HD
ENDBRANCH   6  18
TORSDOF 2
