REMARK  2 active torsions:
REMARK  status: ('A' for Active; 'I' for Inactive)
REMARK    1  A    between atoms: N1_4  and  C4_6 
REMARK    2  A    between atoms: C4_6  and  C5_7 
ROOT
ATOM      1  C5  <0> d           3.187   2.104  -1.197  0.00  0.00     0.031 C 
ATOM      2  C6  <0> d           4.595   1.673  -1.212  0.00  0.00     0.060 C 
ATOM      3  N3  <0> d           5.681   1.339  -1.223  0.00  0.00    -0.197 NA
ATOM      4  H5  <0> d           2.705   1.800  -2.126  0.00  0.00     0.057 H 
ATOM      5  H6  <0> d           3.141   3.189  -1.103  0.00  0.00     0.057 H 
ENDROOT
BRANCH   1   6
ATOM      6  C4  <0> d           2.468   1.458  -0.012  0.00  0.00     0.028 C 
ATOM      7  H3  <0> d           2.951   1.762   0.916  0.00  0.00     0.068 H 
ATOM      8  H4  <0> d           2.514   0.373  -0.107  0.00  0.00     0.068 H 
BRANCH   6   9
ATOM      9  N1  <0> d           1.067   1.887   0.002  0.00  0.00    -0.279 N 
ATOM     10  C3  <0> d          -0.013   1.076   0.008  0.00  0.00     0.021 A 
ATOM     11  C2  <0> d          -1.117   1.859   0.017  0.00  0.00     0.070 A 
ATOM     12  H2  <0> d           0.002  -0.004   0.002  0.00  0.00     0.116 H 
ATOM     13  C1  <0> d          -0.697   3.194   0.025  0.00  0.00     0.044 A 
ATOM     14 Cl1  <0> d          -2.762   1.306   0.021  0.00  0.00    -0.081 Cl
ATOM     15  N2  <0> d           0.611   3.212   0.013  0.00  0.00    -0.183 NA
ATOM     16  H1  <0> d          -1.342   4.060   0.035  0.00  0.00     0.120 H 
ENDBRANCH   6   9
ENDBRANCH   1   6
TORSDOF 2
