REMARK  0 active torsions:
REMARK  status: ('A' for Active; 'I' for Inactive)
ROOT
ATOM      1  C1  <0> d          -0.016   1.330   0.009  0.00  0.00     0.020 A 
ATOM      2  C2  <0> d           1.261   1.780  -0.000  0.00  0.00     0.003 A 
ATOM      3  N1  <0> d           2.071   0.685  -0.014  0.00  0.00    -0.312 N 
ATOM      4  C3  <0> d           3.423   0.518  -0.028  0.00  0.00     0.024 A 
ATOM      5  C4  <0> d           3.947  -0.743  -0.040  0.00  0.00     0.152 A 
ATOM      6  N2  <0> d           3.147  -1.825  -0.038  0.00  0.00    -0.245 NA
ATOM      7  C5  <0> d           1.845  -1.705  -0.025  0.00  0.00     0.048 A 
ATOM      8  C6  <0> d           1.256  -0.422  -0.012  0.00  0.00     0.151 A 
ATOM      9  N3  <0> d           0.002  -0.004   0.002  0.00  0.00    -0.240 NA
ATOM     10  C7  <0> d           5.369  -0.916  -0.055  0.00  0.00     0.121 C 
ATOM     11  N4  <0> d           6.497  -1.053  -0.067  0.00  0.00    -0.190 NA
ATOM     12  H1  <0> d          -0.902   1.948   0.025  0.00  0.00     0.117 H 
ATOM     13  H2  <0> d           1.577   2.812   0.002  0.00  0.00     0.114 H 
ATOM     14  H3  <0> d           4.077   1.377  -0.030  0.00  0.00     0.117 H 
ATOM     15  H4  <0> d           1.220  -2.586  -0.024  0.00  0.00     0.120 H 
ENDROOT
TORSDOF 0
