REMARK  2 active torsions:
REMARK  status: ('A' for Active; 'I' for Inactive)
REMARK    1  A    between atoms: C1_1  and  C2_2 
REMARK    2  A    between atoms: C7_7  and  N1_8 
ROOT
ATOM      1  C2  <0> d           2.397   0.020  -0.021  0.00  0.00    -0.034 A 
ATOM      2  C3  <0> d           1.207  -0.682  -0.013  0.00  0.00    -0.075 A 
ATOM      3  C4  <0> d           0.002  -0.004   0.002  0.00  0.00    -0.081 A 
ATOM      4  C5  <0> d          -0.017   1.379   0.010  0.00  0.00    -0.060 A 
ATOM      5  C6  <0> d           1.170   2.087   0.002  0.00  0.00     0.060 A 
ATOM      6  C7  <0> d           2.382   1.408  -0.014  0.00  0.00     0.053 A 
ATOM      7 Cl1  <0> d           1.146   3.823   0.011  0.00  0.00    -0.082 Cl
ATOM      8  H4  <0> d           1.218  -1.762  -0.019  0.00  0.00     0.084 H 
ATOM      9  H5  <0> d          -0.926  -0.555   0.008  0.00  0.00     0.083 H 
ATOM     10  H6  <0> d          -0.960   1.906   0.017  0.00  0.00     0.086 H 
ENDROOT
BRANCH   1  11
ATOM     11  C1  <0> d           3.709  -0.721  -0.038  0.00  0.00    -0.049 C 
ATOM     12  H1  <0> d           4.015  -0.894  -1.069  0.00  0.00     0.033 H 
ATOM     13  H2  <0> d           4.468  -0.127   0.472  0.00  0.00     0.033 H 
ATOM     14  H3  <0> d           3.593  -1.677   0.472  0.00  0.00     0.033 H 
ENDBRANCH   1  11
BRANCH   6  15
ATOM     15  N1  <0> d           3.584   2.121  -0.022  0.00  0.00    -0.397 N 
ATOM     16  H7  <0> d           4.430   1.646  -0.033  0.00  0.00     0.156 HD
ATOM     17  H8  <0> d           3.573   3.091  -0.017  0.00  0.00     0.156 HD
ENDBRANCH   6  15
TORSDOF 2
