REMARK  1 active torsions:
REMARK  status: ('A' for Active; 'I' for Inactive)
REMARK    1  A    between atoms: C2_2  and  N1_3 
ROOT
ATOM      1  C1  <0> d           0.018  -1.178  -0.004  0.00  0.00    -0.130 C 
ATOM      2  C2  <0> d           0.002  -0.004   0.002  0.00  0.00     0.027 C 
ATOM      3  H1  <0> d           0.032  -2.228  -0.010  0.00  0.00     0.169 H 
ENDROOT
BRANCH   2   4
ATOM      4  N1  <0> d          -0.016   1.351   0.009  0.00  0.00    -0.170 N 
ATOM      5  N3  <0> d           1.096   2.205   0.003  0.00  0.00    -0.052 NA
ATOM      6  N2  <0> d           0.699   3.428   0.014  0.00  0.00    -0.129 NA
ATOM      7  C8  <0> d          -0.654   3.482   0.027  0.00  0.00     0.110 A 
ATOM      8  C3  <0> d          -1.131   2.159   0.018  0.00  0.00     0.100 A 
ATOM      9  C7  <0> d          -1.570   4.541   0.041  0.00  0.00    -0.051 A 
ATOM     10  C4  <0> d          -2.500   1.917   0.036  0.00  0.00    -0.052 A 
ATOM     11  C5  <0> d          -3.380   2.975   0.050  0.00  0.00    -0.081 A 
ATOM     12  H2  <0> d          -2.871   0.902   0.034  0.00  0.00     0.087 H 
ATOM     13  C6  <0> d          -2.909   4.282   0.052  0.00  0.00    -0.081 A 
ATOM     14  H3  <0> d          -4.444   2.789   0.059  0.00  0.00     0.083 H 
ATOM     15  H4  <0> d          -3.612   5.103   0.063  0.00  0.00     0.083 H 
ATOM     16  H5  <0> d          -1.217   5.561   0.044  0.00  0.00     0.087 H 
ENDBRANCH   2   4
TORSDOF 1
