REMARK  4 active torsions:
REMARK  status: ('A' for Active; 'I' for Inactive)
REMARK    1  A    between atoms: C3_5  and  C4_7 
REMARK    2  A    between atoms: C3_5  and  C5_9 
REMARK    3  A    between atoms: C4_7  and  O4_8 
REMARK    4  A    between atoms: C5_9  and  O5_10 
ROOT
ATOM      1  C1  <0> d           3.224   0.676   0.606  0.00  0.00     0.113 C 
ATOM      2  O1  <0> d           3.385   1.084  -0.785  0.00  0.00    -0.293 OA
ATOM      3  C2  <0> d           2.155   1.440  -1.220  0.00  0.00     0.300 C 
ATOM      4  O2  <0> d           1.731   1.363  -2.348  0.00  0.00    -0.262 OA
ATOM      5  C3  <0> d           1.418   1.954  -0.001  0.00  0.00     0.192 C 
ATOM      6  O3  <0> d           2.140   1.454   1.137  0.00  0.00    -0.341 OA
ATOM      7  H1  <0> d           4.138   0.879   1.183  0.00  0.00     0.118 H 
ATOM      8  H2  <0> d           2.977  -0.394   0.676  0.00  0.00     0.118 H 
ENDROOT
BRANCH   5   9
ATOM      9  C4  <0> d          -0.017   1.425   0.010  0.00  0.00     0.057 C 
ATOM     10  H3  <0> d          -0.532   1.780   0.915  0.00  0.00     0.079 H 
ATOM     11  H4  <0> d          -0.549   1.789  -0.881  0.00  0.00     0.079 H 
BRANCH   9  12
ATOM     12  O4  <0> d           0.002  -0.004   0.002  0.00  0.00    -0.397 OA
ATOM     13  H5  <0> d          -0.943  -0.567   0.008  0.00  0.00     0.209 HD
ENDBRANCH   9  12
ENDBRANCH   5   9
BRANCH   5  14
ATOM     14  C5  <0> d           1.415   3.484   0.007  0.00  0.00     0.057 C 
ATOM     15  H6  <0> d           0.812   3.854  -0.835  0.00  0.00     0.079 H 
ATOM     16  H7  <0> d           0.986   3.845   0.953  0.00  0.00     0.079 H 
BRANCH  14  17
ATOM     17  O5  <0> d           2.756   3.964  -0.120  0.00  0.00    -0.397 OA
ATOM     18  H8  <0> d           2.954   5.046  -0.134  0.00  0.00     0.209 HD
ENDBRANCH  14  17
ENDBRANCH   5  14
TORSDOF 4
