REMARK  2 active torsions:
REMARK  status: ('A' for Active; 'I' for Inactive)
REMARK    1  A    between atoms: C1_1  and  C2_2 
REMARK    2  A    between atoms: C2_2  and  C9_13 
ROOT
ATOM      1  C2  <0> d           0.002  -0.004   0.002  0.00  0.00     0.040 C 
ATOM      2  C3  <0> d          -1.335  -0.634   0.263  0.00  0.00     0.061 C 
ATOM      3  H1  <0> d          -1.333  -1.710   0.085  0.00  0.00     0.086 H 
ATOM      4  C4  <0> d          -0.985  -0.282   1.744  0.00  0.00     0.031 C 
ATOM      5  H2  <0> d          -1.109   0.777   1.969  0.00  0.00     0.055 H 
ATOM      6  C5  <0> d           0.398  -0.630   1.345  0.00  0.00     0.144 C 
ATOM      7  O1  <0> d           1.367  -1.154   1.837  0.00  0.00    -0.297 OA
ATOM      8  C6  <0> d          -1.870  -1.165   2.607  0.00  0.00    -0.051 C 
ATOM      9  C7  <0> d          -3.314  -0.722   2.290  0.00  0.00    -0.044 C 
ATOM     10  C8  <0> d          -3.606  -0.756   0.795  0.00  0.00     0.020 C 
ATOM     11  O2  <0> d          -2.602  -0.061   0.027  0.00  0.00    -0.384 OA
ATOM     12  H6  <0> d          -1.730  -2.214   2.344  0.00  0.00     0.034 H 
ATOM     13  H7  <0> d          -1.649  -1.006   3.663  0.00  0.00     0.034 H 
ATOM     14  H8  <0> d          -4.010  -1.387   2.803  0.00  0.00     0.036 H 
ATOM     15  H9  <0> d          -3.462   0.294   2.657  0.00  0.00     0.036 H 
ATOM     16  H10 <0> d          -3.659  -1.796   0.471  0.00  0.00     0.074 H 
ATOM     17  H11 <0> d          -4.573  -0.286   0.615  0.00  0.00     0.074 H 
ENDROOT
BRANCH   1  18
ATOM     18  C1  <0> d          -0.019   1.526   0.010  0.00  0.00    -0.060 C 
ATOM     19  H3  <0> d           0.938   1.900   0.374  0.00  0.00     0.029 H 
ATOM     20  H4  <0> d          -0.192   1.892  -1.001  0.00  0.00     0.029 H 
ATOM     21  H5  <0> d          -0.818   1.875   0.665  0.00  0.00     0.029 H 
ENDBRANCH   1  18
BRANCH   1  22
ATOM     22  C9  <0> d           0.746  -0.589  -1.201  0.00  0.00    -0.060 C 
ATOM     23  H12 <0> d           1.723  -0.115  -1.289  0.00  0.00     0.029 H 
ATOM     24  H13 <0> d           0.874  -1.662  -1.062  0.00  0.00     0.029 H 
ATOM     25  H14 <0> d           0.170  -0.406  -2.108  0.00  0.00     0.029 H 
ENDBRANCH   1  22
TORSDOF 2
