REMARK  5 active torsions:
REMARK  status: ('A' for Active; 'I' for Inactive)
REMARK    1  A    between atoms: C1_1  and  C2_2 
REMARK    2  A    between atoms: C2_2  and  C3_3 
REMARK       I    between atoms: C3_3  and  N1_5 
REMARK    3  A    between atoms: N1_5  and  C4_6 
REMARK    4  A    between atoms: C4_6  and  C5_7 
REMARK    5  A    between atoms: C5_7  and  O2_8 
ROOT
ATOM      1  C3  <0> d           0.306   4.819   1.500  0.00  0.00     0.217 C 
ATOM      2  O1  <0> d           0.614   5.644   0.666  0.00  0.00    -0.274 OA
ATOM      3  N1  <0> d           0.530   3.511   1.268  0.00  0.00    -0.359 N 
ATOM      4  H6  <0> d           0.285   2.851   1.935  0.00  0.00     0.162 HD
ENDROOT
BRANCH   3   5
ATOM      5  C4  <0> d           1.145   3.085   0.008  0.00  0.00     0.015 C 
ATOM      6  H7  <0> d           2.130   3.542  -0.089  0.00  0.00     0.067 H 
ATOM      7  H8  <0> d           0.516   3.397  -0.827  0.00  0.00     0.067 H 
BRANCH   5   8
ATOM      8  C5  <0> d           1.286   1.562  -0.002  0.00  0.00     0.031 C 
ATOM      9  H9  <0> d           1.840   1.243   0.881  0.00  0.00     0.076 H 
ATOM     10  H10 <0> d           1.823   1.252  -0.899  0.00  0.00     0.076 H 
BRANCH   8  11
ATOM     11  O2  <0> d          -0.011   0.963   0.007  0.00  0.00    -0.399 OA
ATOM     12  H11 <0> d           0.002  -0.004   0.002  0.00  0.00     0.209 HD
ENDBRANCH   8  11
ENDBRANCH   5   8
ENDBRANCH   3   5
BRANCH   1  13
ATOM     13  C2  <0> d          -0.326   5.257   2.796  0.00  0.00     0.006 C 
ATOM     14  H4  <0> d          -1.310   4.800   2.893  0.00  0.00     0.046 H 
ATOM     15  H5  <0> d           0.303   4.945   3.631  0.00  0.00     0.046 H 
BRANCH  13  16
ATOM     16  C1  <0> d          -0.467   6.780   2.806  0.00  0.00    -0.068 C 
ATOM     17  H1  <0> d           0.518   7.237   2.709  0.00  0.00     0.028 H 
ATOM     18  H2  <0> d          -1.096   7.092   1.972  0.00  0.00     0.028 H 
ATOM     19  H3  <0> d          -0.924   7.097   3.743  0.00  0.00     0.028 H 
ENDBRANCH  13  16
ENDBRANCH   1  13
TORSDOF 5
