REMARK  10 active torsions:
REMARK  status: ('A' for Active; 'I' for Inactive)
REMARK    1  A    between atoms: C1_1  and  C2_2 
REMARK    2  A    between atoms: C2_2  and  C3_3 
REMARK    3  A    between atoms: C3_3  and  C4_5 
REMARK    4  A    between atoms: C3_3  and  C5_6 
REMARK    5  A    between atoms: C5_6  and  C6_7 
REMARK    6  A    between atoms: C5_6  and  C7_8 
REMARK    7  A    between atoms: C5_6  and  O1_13 
REMARK    8  A    between atoms: C7_8  and  C8_10 
REMARK    9  A    between atoms: C7_8  and  C9_11 
REMARK   10  A    between atoms: C9_11  and  C10_12 
ROOT
ATOM      1  C5  <0> d           0.079   1.179   2.503  0.00  0.00     0.061 C 
ENDROOT
BRANCH   1   2
ATOM      2  C3  <0> d          -0.729   1.579   1.267  0.00  0.00    -0.028 C 
ATOM      3  H1  <0> d          -0.822   2.665   1.230  0.00  0.00     0.043 H 
BRANCH   2   4
ATOM      4  C2  <0> d          -0.013   1.086   0.008  0.00  0.00    -0.063 C 
ATOM      5  H6  <0> d           0.002  -0.004   0.002  0.00  0.00     0.033 H 
ATOM      6  H7  <0> d           1.010   1.463   0.000  0.00  0.00     0.033 H 
BRANCH   4   7
ATOM      7  C1  <0> d          -0.753   1.593  -1.232  0.00  0.00    -0.076 C 
ATOM      8  H3  <0> d          -0.767   2.683  -1.226  0.00  0.00     0.027 H 
ATOM      9  H4  <0> d          -0.242   1.241  -2.128  0.00  0.00     0.027 H 
ATOM     10  H5  <0> d          -1.775   1.215  -1.224  0.00  0.00     0.027 H 
ENDBRANCH   4   7
ENDBRANCH   2   4
BRANCH   2  11
ATOM     11  C4  <0> d          -2.121   0.950   1.341  0.00  0.00    -0.070 C 
ATOM     12  H8  <0> d          -2.028  -0.136   1.378  0.00  0.00     0.028 H 
ATOM     13  H9  <0> d          -2.632   1.301   2.238  0.00  0.00     0.028 H 
ATOM     14  H10 <0> d          -2.697   1.235   0.460  0.00  0.00     0.028 H 
ENDBRANCH   2  11
ENDBRANCH   1   2
BRANCH   1  15
ATOM     15  C6  <0> d           0.316  -0.333   2.489  0.00  0.00    -0.047 C 
ATOM     16  H11 <0> d           0.869  -0.605   1.590  0.00  0.00     0.031 H 
ATOM     17  H12 <0> d           0.891  -0.618   3.370  0.00  0.00     0.031 H 
ATOM     18  H13 <0> d          -0.642  -0.851   2.498  0.00  0.00     0.031 H 
ENDBRANCH   1  15
BRANCH   1  19
ATOM     19  C7  <0> d          -0.697   1.561   3.765  0.00  0.00    -0.028 C 
ATOM     20  H2  <0> d          -1.656   1.043   3.773  0.00  0.00     0.043 H 
BRANCH  19  21
ATOM     21  C8  <0> d          -0.935   3.073   3.779  0.00  0.00    -0.070 C 
ATOM     22  H14 <0> d          -1.488   3.345   4.678  0.00  0.00     0.028 H 
ATOM     23  H15 <0> d           0.024   3.591   3.771  0.00  0.00     0.028 H 
ATOM     24  H16 <0> d          -1.510   3.358   2.898  0.00  0.00     0.028 H 
ENDBRANCH  19  21
BRANCH  19  25
ATOM     25  C9  <0> d           0.110   1.161   5.001  0.00  0.00    -0.063 C 
ATOM     26  H17 <0> d           0.356   0.100   4.947  0.00  0.00     0.033 H 
ATOM     27  H18 <0> d           1.030   1.745   5.040  0.00  0.00     0.033 H 
BRANCH  25  28
ATOM     28  C10 <0> d          -0.718   1.429   6.260  0.00  0.00    -0.076 C 
ATOM     29  H19 <0> d          -0.963   2.489   6.314  0.00  0.00     0.027 H 
ATOM     30  H20 <0> d          -1.637   0.845   6.221  0.00  0.00     0.027 H 
ATOM     31  H21 <0> d          -0.142   1.143   7.141  0.00  0.00     0.027 H 
ENDBRANCH  25  28
ENDBRANCH  19  25
ENDBRANCH   1  19
BRANCH   1  32
ATOM     32  O1  <0> d           1.335   1.859   2.492  0.00  0.00    -0.389 OA
ATOM     33  H22 <0> d           1.261   2.823   2.500  0.00  0.00     0.210 HD
ENDBRANCH   1  32
TORSDOF 10
