REMARK  4 active torsions:
REMARK  status: ('A' for Active; 'I' for Inactive)
REMARK    1  A    between atoms: C1_1  and  C2_2 
REMARK    2  A    between atoms: C2_2  and  O2_4 
REMARK    3  A    between atoms: O2_4  and  C3_5 
REMARK    4  A    between atoms: C3_5  and  C4_6 
ROOT
ATOM      1  C4  <0> d          -0.018   1.468   0.010  0.00  0.00     0.035 C 
ATOM      2  C5  <0> d           0.002  -0.004   0.002  0.00  0.00     0.061 C 
ATOM      3  N1  <0> d           0.018  -1.140  -0.004  0.00  0.00    -0.197 NA
ATOM      4  H6  <0> d           1.005   1.845   0.002  0.00  0.00     0.058 H 
ATOM      5  H7  <0> d          -0.545   1.829  -0.873  0.00  0.00     0.058 H 
ENDROOT
BRANCH   1   6
ATOM      6  C3  <0> d          -0.734   1.961   1.269  0.00  0.00     0.040 C 
ATOM      7  H4  <0> d          -1.757   1.584   1.277  0.00  0.00     0.076 H 
ATOM      8  H5  <0> d          -0.207   1.600   2.152  0.00  0.00     0.076 H 
BRANCH   6   9
ATOM      9  O2  <0> d          -0.754   3.413   1.277  0.00  0.00    -0.321 OA
BRANCH   9  10
ATOM     10  C2  <0> d          -1.350   4.009   2.322  0.00  0.00     0.254 C 
ATOM     11  O1  <0> d          -1.839   3.339   3.200  0.00  0.00    -0.266 OA
BRANCH  10  12
ATOM     12  C1  <0> d          -1.409   5.513   2.399  0.00  0.00     0.004 C 
ATOM     13  H1  <0> d          -0.920   5.941   1.524  0.00  0.00     0.041 H 
ATOM     14  H2  <0> d          -2.450   5.834   2.426  0.00  0.00     0.041 H 
ATOM     15  H3  <0> d          -0.900   5.850   3.301  0.00  0.00     0.041 H 
ENDBRANCH  10  12
ENDBRANCH   9  10
ENDBRANCH   6   9
ENDBRANCH   1   6
TORSDOF 4
