REMARK  0 active torsions:
REMARK  status: ('A' for Active; 'I' for Inactive)
ROOT
ATOM      1  C1  <0> d          -0.017   1.381   0.010  0.00  0.00    -0.064 A 
ATOM      2  C2  <0> d          -1.232   2.046   0.019  0.00  0.00    -0.050 A 
ATOM      3  C3  <0> d          -2.394   1.288   0.020  0.00  0.00     0.107 A 
ATOM      4  C4  <0> d          -2.305  -0.116   0.012  0.00  0.00     0.181 A 
ATOM      5  N1  <0> d          -3.576  -0.589   0.016  0.00  0.00    -0.196 NA
ATOM      6  C5  <0> d          -4.417   0.407   0.025  0.00  0.00     0.226 A 
ATOM      7  N2  <0> d          -3.742   1.588   0.029  0.00  0.00    -0.215 NA
ATOM      8 Cl1  <0> d          -6.146   0.249   0.032  0.00  0.00    -0.041 Cl
ATOM      9  N3  <0> d          -1.111  -0.705   0.004  0.00  0.00    -0.239 NA
ATOM     10  C6  <0> d           0.002  -0.004   0.002  0.00  0.00     0.005 A 
ATOM     11  H1  <0> d           0.909   1.938   0.004  0.00  0.00     0.085 H 
ATOM     12  H2  <0> d          -1.273   3.125   0.025  0.00  0.00     0.087 H 
ATOM     13  H3  <0> d           0.951  -0.520  -0.010  0.00  0.00     0.114 H 
ENDROOT
TORSDOF 0
