REMARK  6 active torsions:
REMARK  status: ('A' for Active; 'I' for Inactive)
REMARK    1  A    between atoms: C1_1  and  C2_2 
REMARK    2  A    between atoms: C3_3  and  C10_11 
REMARK    3  A    between atoms: C4_4  and  C7_8 
REMARK    4  A    between atoms: C5_6  and  C6_7 
REMARK    5  A    between atoms: C7_8  and  C8_9 
REMARK    6  A    between atoms: C7_8  and  C9_10 
ROOT
ATOM      1  C2  <0> d           2.084   0.754  -0.014  0.00  0.00    -0.024 A 
ATOM      2  C3  <0> d           1.284  -0.412  -0.012  0.00  0.00    -0.024 A 
ATOM      3  C4  <0> d           0.002  -0.004   0.002  0.00  0.00     0.063 A 
ATOM      4  O1  <0> d          -0.016   1.339   0.009  0.00  0.00    -0.318 OA
ATOM      5  C5  <0> d           1.244   1.804  -0.000  0.00  0.00     0.056 A 
ENDROOT
BRANCH   3   6
ATOM      6  C7  <0> d          -1.208  -0.902   0.009  0.00  0.00    -0.014 C 
ATOM      7  H7  <0> d          -0.888  -1.944   0.001  0.00  0.00     0.049 H 
BRANCH   6   8
ATOM      8  C8  <0> d          -2.035  -0.633   1.268  0.00  0.00    -0.067 C 
ATOM      9  H8  <0> d          -1.429  -0.834   2.151  0.00  0.00     0.028 H 
ATOM     10  H9  <0> d          -2.356   0.409   1.276  0.00  0.00     0.028 H 
ATOM     11  H10 <0> d          -2.911  -1.282   1.273  0.00  0.00     0.028 H 
ENDBRANCH   6   8
BRANCH   6  12
ATOM     12  C9  <0> d          -2.060  -0.620  -1.230  0.00  0.00    -0.067 C 
ATOM     13  H11 <0> d          -1.470  -0.812  -2.127  0.00  0.00     0.028 H 
ATOM     14  H12 <0> d          -2.935  -1.270  -1.225  0.00  0.00     0.028 H 
ATOM     15  H13 <0> d          -2.380   0.422  -1.222  0.00  0.00     0.028 H 
ENDBRANCH   6  12
ENDBRANCH   3   6
BRANCH   2  16
ATOM     16  C10 <0> d           1.773  -1.837  -0.024  0.00  0.00    -0.048 C 
ATOM     17  H14 <0> d           1.881  -2.176  -1.054  0.00  0.00     0.033 H 
ATOM     18  H15 <0> d           2.738  -1.894   0.480  0.00  0.00     0.033 H 
ATOM     19  H16 <0> d           1.054  -2.472   0.494  0.00  0.00     0.033 H 
ENDBRANCH   2  16
BRANCH   1  20
ATOM     20  C1  <0> d           3.590   0.809  -0.027  0.00  0.00    -0.048 C 
ATOM     21  H1  <0> d           3.944   0.828  -1.058  0.00  0.00     0.033 H 
ATOM     22  H2  <0> d           3.925   1.709   0.488  0.00  0.00     0.033 H 
ATOM     23  H3  <0> d           3.991  -0.070   0.478  0.00  0.00     0.033 H 
ENDBRANCH   1  20
BRANCH   5  24
ATOM     24  C6  <0> d           1.647   3.256   0.004  0.00  0.00    -0.031 C 
ATOM     25  H4  <0> d           0.755   3.881   0.016  0.00  0.00     0.036 H 
ATOM     26  H5  <0> d           2.249   3.463   0.889  0.00  0.00     0.036 H 
ATOM     27  H6  <0> d           2.231   3.473  -0.891  0.00  0.00     0.036 H 
ENDBRANCH   5  24
TORSDOF 6
