REMARK  2 active torsions:
REMARK  status: ('A' for Active; 'I' for Inactive)
REMARK    1  A    between atoms: C1_1  and  C2_2 
REMARK    2  A    between atoms: C6_6  and  O1_12 
ROOT
ATOM      1  C2  <0> d           0.002  -0.004   0.002  0.00  0.00     0.063 A 
ATOM      2  C3  <0> d           0.008  -0.858  -1.182  0.00  0.00     0.018 A 
ATOM      3  C4  <0> d          -0.002  -0.607  -2.559  0.00  0.00    -0.066 A 
ATOM      4  C5  <0> d           0.008  -1.648  -3.439  0.00  0.00    -0.050 A 
ATOM      5  C6  <0> d           0.028  -2.965  -2.980  0.00  0.00     0.068 A 
ATOM      6  C7  <0> d           0.037  -3.236  -1.626  0.00  0.00    -0.023 A 
ATOM      7  C8  <0> d           0.029  -2.185  -0.712  0.00  0.00     0.065 A 
ATOM      8  N1  <0> d           0.034  -2.119   0.657  0.00  0.00    -0.277 N 
ATOM      9  H1  <0> d           0.047  -2.881   1.257  0.00  0.00     0.189 HD
ATOM     10  N2  <0> d           0.023  -0.777   1.050  0.00  0.00    -0.179 NA
ATOM     11  H5  <0> d          -0.018   0.410  -2.924  0.00  0.00     0.085 H 
ATOM     12  H6  <0> d           0.000  -1.452  -4.501  0.00  0.00     0.087 H 
ATOM     13  H7  <0> d           0.052  -4.258  -1.277  0.00  0.00     0.091 H 
ENDROOT
BRANCH   1  14
ATOM     14  C1  <0> d          -0.018   1.503   0.010  0.00  0.00    -0.033 C 
ATOM     15  H2  <0> d           1.004   1.880   0.003  0.00  0.00     0.035 H 
ATOM     16  H3  <0> d          -0.545   1.864  -0.873  0.00  0.00     0.035 H 
ATOM     17  H4  <0> d          -0.529   1.854   0.907  0.00  0.00     0.035 H 
ENDBRANCH   1  14
BRANCH   5  18
ATOM     18  O1  <0> d           0.037  -3.990  -3.872  0.00  0.00    -0.361 OA
ATOM     19  H8  <0> d           0.922  -4.275  -4.135  0.00  0.00     0.217 HD
ENDBRANCH   5  18
TORSDOF 2
