REMARK  3 active torsions:
REMARK  status: ('A' for Active; 'I' for Inactive)
REMARK    1  A    between atoms: C1_1  and  O1_2 
REMARK    2  A    between atoms: O1_2  and  C2_3 
REMARK       I    between atoms: C2_3  and  N1_5 
REMARK    3  A    between atoms: C6_9  and  O3_12 
ROOT
ATOM      1  C2  <0> d           0.002  -0.004   0.002  0.00  0.00     0.362 C 
ATOM      2  O2  <0> d           1.062  -0.597  -0.011  0.00  0.00    -0.238 OA
ATOM      3  N1  <0> d          -1.156  -0.694   0.009  0.00  0.00    -0.326 N 
ATOM      4  C3  <0> d          -2.446   0.009   0.025  0.00  0.00    -0.000 C 
ATOM      5  C4  <0> d          -3.301  -0.504  -1.137  0.00  0.00    -0.048 C 
ATOM      6  C5  <0> d          -3.415  -2.027  -1.048  0.00  0.00    -0.038 C 
ATOM      7  C6  <0> d          -2.022  -2.652  -1.161  0.00  0.00     0.051 C 
ATOM      8  H1  <0> d          -1.567  -2.356  -2.106  0.00  0.00     0.085 H 
ATOM      9  C7  <0> d          -1.152  -2.163  -0.005  0.00  0.00     0.024 C 
ATOM     10  H5  <0> d          -2.956  -0.185   0.969  0.00  0.00     0.064 H 
ATOM     11  H6  <0> d          -2.279   1.081  -0.086  0.00  0.00     0.064 H 
ATOM     12  H7  <0> d          -4.296  -0.061  -1.080  0.00  0.00     0.035 H 
ATOM     13  H8  <0> d          -2.834  -0.228  -2.082  0.00  0.00     0.035 H 
ATOM     14  H9  <0> d          -3.860  -2.303  -0.092  0.00  0.00     0.036 H 
ATOM     15  H10 <0> d          -4.043  -2.393  -1.861  0.00  0.00     0.036 H 
ATOM     16  H11 <0> d          -0.133  -2.525  -0.138  0.00  0.00     0.068 H 
ATOM     17  H12 <0> d          -1.555  -2.538   0.936  0.00  0.00     0.068 H 
ENDROOT
BRANCH   1  18
ATOM     18  O1  <0> d          -0.016   1.342   0.009  0.00  0.00    -0.309 OA
BRANCH  18  19
ATOM     19  C1  <0> d           1.268   2.019   0.001  0.00  0.00     0.015 C 
ATOM     20  H2  <0> d           1.111   3.097   0.008  0.00  0.00     0.067 H 
ATOM     21  H3  <0> d           1.838   1.729   0.884  0.00  0.00     0.067 H 
ATOM     22  H4  <0> d           1.821   1.738  -0.896  0.00  0.00     0.067 H 
ENDBRANCH  18  19
ENDBRANCH   1  18
BRANCH   7  23
ATOM     23  O3  <0> d          -2.132  -4.075  -1.110  0.00  0.00    -0.394 OA
ATOM     24  H13 <0> d          -1.286  -4.538  -1.176  0.00  0.00     0.210 HD
ENDBRANCH   7  23
TORSDOF 3
