REMARK  5 active torsions:
REMARK  status: ('A' for Active; 'I' for Inactive)
REMARK    1  A    between atoms: C1_1  and  C2_2 
REMARK    2  A    between atoms: C2_2  and  C3_4 
REMARK    3  A    between atoms: C2_2  and  N1_7 
REMARK    4  A    between atoms: C3_4  and  C4_6 
REMARK       I    between atoms: N1_7  and  C5_8 
REMARK    5  A    between atoms: C5_8  and  C6_10 
ROOT
ATOM      1  C2  <0> d          -1.268   0.580   2.240  0.00  0.00     0.066 C 
ATOM      2  H1  <0> d          -0.589  -0.136   2.407  0.00  0.00     0.084 H 
ENDROOT
BRANCH   1   3
ATOM      3  C1  <0> d          -2.544  -0.050   1.677  0.00  0.00    -0.051 C 
ATOM      4  H2  <0> d          -3.284   0.730   1.495  0.00  0.00     0.030 H 
ATOM      5  H3  <0> d          -2.316  -0.560   0.742  0.00  0.00     0.030 H 
ATOM      6  H4  <0> d          -2.942  -0.768   2.395  0.00  0.00     0.030 H 
ENDBRANCH   1   3
BRANCH   1   7
ATOM      7  C3  <0> d          -0.718   1.572   1.248  0.00  0.00     0.145 C 
ATOM      8  O1  <0> d          -0.843   2.756   1.447  0.00  0.00    -0.296 OA
BRANCH   7   9
ATOM      9  C4  <0> d          -0.013   1.086   0.008  0.00  0.00    -0.019 C 
ATOM     10  H5  <0> d           0.001   0.086   0.003  0.00  0.00     0.037 H 
ATOM     11  H6  <0> d           1.010   1.463   0.000  0.00  0.00     0.037 H 
ATOM     12  H7  <0> d          -0.540   1.447  -0.875  0.00  0.00     0.037 H 
ENDBRANCH   7   9
ENDBRANCH   1   7
BRANCH   1  13
ATOM     13  N1  <0> d          -1.575   1.265   3.498  0.00  0.00    -0.350 N 
ATOM     14  C5  <0> d          -1.590   0.575   4.655  0.00  0.00     0.214 C 
ATOM     15  O2  <0> d          -1.350  -0.614   4.655  0.00  0.00    -0.274 OA
ATOM     16  H8  <0> d          -1.767   2.216   3.497  0.00  0.00     0.163 HD
BRANCH  14  17
ATOM     17  C6  <0> d          -1.906   1.280   5.949  0.00  0.00    -0.003 C 
ATOM     18  H9  <0> d          -2.093   2.336   5.751  0.00  0.00     0.040 H 
ATOM     19  H10 <0> d          -2.792   0.833   6.400  0.00  0.00     0.040 H 
ATOM     20  H11 <0> d          -1.062   1.183   6.631  0.00  0.00     0.040 H 
ENDBRANCH  14  17
ENDBRANCH   1  13
TORSDOF 5
