REMARK  3 active torsions:
REMARK  status: ('A' for Active; 'I' for Inactive)
REMARK    1  A    between atoms: C1_1  and  C2_2 
REMARK    2  A    between atoms: C3_3  and  N4_10 
REMARK    3  A    between atoms: N4_10  and  C5_11 
ROOT
ATOM      1  C2  <0> d           2.343   1.254  -0.013  0.00  0.00     0.096 A 
ATOM      2  C3  <0> d           1.135   1.993   0.002  0.00  0.00     0.154 A 
ATOM      3  N1  <0> d          -0.016   1.332   0.009  0.00  0.00    -0.173 NA
ATOM      4  C4  <0> d           0.002  -0.004   0.002  0.00  0.00     0.364 A 
ATOM      5  O1  <0> d          -1.049  -0.624   0.008  0.00  0.00    -0.243 OA
ATOM      6  N2  <0> d           1.170  -0.671  -0.013  0.00  0.00    -0.227 N 
ATOM      7  H1  <0> d           1.163  -1.641  -0.018  0.00  0.00     0.194 HD
ATOM      8  N3  <0> d           2.297  -0.050  -0.020  0.00  0.00    -0.172 NA
ENDROOT
BRANCH   2   9
ATOM      9  N4  <0> d           1.155   3.368   0.009  0.00  0.00    -0.377 N 
ATOM     10  H5  <0> d           2.001   3.841   0.003  0.00  0.00     0.160 HD
BRANCH   9  11
ATOM     11  C5  <0> d          -0.104   4.118   0.024  0.00  0.00    -0.019 C 
ATOM     12  H6  <0> d          -0.687   3.867  -0.862  0.00  0.00     0.056 H 
ATOM     13  H7  <0> d          -0.670   3.858   0.918  0.00  0.00     0.056 H 
ATOM     14  H8  <0> d           0.110   5.187   0.028  0.00  0.00     0.056 H 
ENDBRANCH   9  11
ENDBRANCH   2   9
BRANCH   1  15
ATOM     15  C1  <0> d           3.670   1.968  -0.021  0.00  0.00    -0.030 C 
ATOM     16  H2  <0> d           4.477   1.235  -0.033  0.00  0.00     0.035 H 
ATOM     17  H3  <0> d           3.739   2.597  -0.909  0.00  0.00     0.035 H 
ATOM     18  H4  <0> d           3.755   2.588   0.871  0.00  0.00     0.035 H 
ENDBRANCH   1  15
TORSDOF 3
