REMARK  6 active torsions:
REMARK  status: ('A' for Active; 'I' for Inactive)
REMARK    1  A    between atoms: C1_1  and  C2_2 
REMARK    2  A    between atoms: C2_2  and  C3_3 
REMARK    3  A    between atoms: C2_2  and  C4_4 
REMARK    4  A    between atoms: C4_4  and  C5_5 
REMARK    5  A    between atoms: C5_5  and  C6_6 
REMARK    6  A    between atoms: C5_5  and  N2_9 
ROOT
ATOM      1  C5  <0> d          -1.984   1.063   1.475  0.00  0.00     0.238 C 
ATOM      2  C7  <0> d          -2.863   1.271   2.638  0.00  0.00     0.101 C 
ATOM      3  N1  <0> d          -3.541   1.432   3.535  0.00  0.00    -0.195 NA
ENDROOT
BRANCH   1   4
ATOM      4  C4  <0> d          -0.887   2.129   1.468  0.00  0.00    -0.017 C 
ATOM      5  H8  <0> d          -0.267   2.023   2.370  0.00  0.00     0.038 H 
ATOM      6  H9  <0> d          -1.347   3.128   1.454  0.00  0.00     0.038 H 
BRANCH   4   7
ATOM      7  C2  <0> d          -0.013   1.952   0.224  0.00  0.00    -0.058 C 
ATOM      8  H4  <0> d           0.208   0.884   0.080  0.00  0.00     0.039 H 
BRANCH   7   9
ATOM      9  C1  <0> d           1.295   2.724   0.407  0.00  0.00    -0.073 C 
ATOM     10  H1  <0> d           1.829   2.338   1.288  0.00  0.00     0.028 H 
ATOM     11  H2  <0> d           1.074   3.792   0.551  0.00  0.00     0.028 H 
ATOM     12  H3  <0> d           1.924   2.597  -0.487  0.00  0.00     0.028 H 
ENDBRANCH   7   9
BRANCH   7  13
ATOM     13  C3  <0> d          -0.755   2.490  -1.001  0.00  0.00    -0.073 C 
ATOM     14  H5  <0> d          -1.696   1.935  -1.133  0.00  0.00     0.028 H 
ATOM     15  H6  <0> d          -0.127   2.363  -1.895  0.00  0.00     0.028 H 
ATOM     16  H7  <0> d          -0.976   3.558  -0.857  0.00  0.00     0.028 H 
ENDBRANCH   7  13
ENDBRANCH   4   7
ENDBRANCH   1   4
BRANCH   1  17
ATOM     17  C6  <0> d          -1.346  -0.325   1.561  0.00  0.00    -0.031 C 
ATOM     18  H10 <0> d          -2.135  -1.092   1.566  0.00  0.00     0.032 H 
ATOM     19  H11 <0> d          -0.755  -0.401   2.485  0.00  0.00     0.032 H 
ATOM     20  H12 <0> d          -0.690  -0.481   0.692  0.00  0.00     0.032 H 
ENDBRANCH   1  17
BRANCH   1  21
ATOM     21  N2  <0> d          -2.774   1.164   0.240  0.00  0.00     0.101 N 
ATOM     22  H13 <0> d          -3.563   0.397   0.246  0.00  0.00     0.315 HD
ATOM     23  H14 <0> d          -3.233   2.162   0.179  0.00  0.00     0.315 HD
ENDBRANCH   1  21
TORSDOF 6
