REMARK  1 active torsions:
REMARK  status: ('A' for Active; 'I' for Inactive)
REMARK    1  A    between atoms: C1_1  and  C2_2 
ROOT
ATOM      1  C2  <0> d           0.002  -0.004   0.002  0.00  0.00    -0.035 A 
ATOM      2  C3  <0> d           0.006  -0.706  -1.188  0.00  0.00    -0.020 A 
ATOM      3  C4  <0> d           0.025  -2.092  -1.159  0.00  0.00     0.210 A 
ATOM      4  N1  <0> d           0.039  -2.749  -0.012  0.00  0.00    -0.231 NA
ATOM      5  C5  <0> d           0.036  -2.124   1.147  0.00  0.00     0.026 A 
ATOM      6  C6  <0> d           0.023  -0.729   1.201  0.00  0.00     0.068 A 
ATOM      7  C7  <0> d           0.027  -0.050   2.462  0.00  0.00     0.101 C 
ATOM      8  N2  <0> d           0.029   0.489   3.462  0.00  0.00    -0.191 NA
ATOM      9  F1  <0> d           0.029  -2.783  -2.320  0.00  0.00    -0.184 F 
ATOM     10  H4  <0> d          -0.006  -0.181  -2.132  0.00  0.00     0.091 H 
ATOM     11  H5  <0> d           0.047  -2.695   2.063  0.00  0.00     0.117 H 
ENDROOT
BRANCH   1  12
ATOM     12  C1  <0> d          -0.018   1.503   0.010  0.00  0.00    -0.050 C 
ATOM     13  H1  <0> d           1.004   1.880   0.003  0.00  0.00     0.033 H 
ATOM     14  H2  <0> d          -0.545   1.864  -0.873  0.00  0.00     0.033 H 
ATOM     15  H3  <0> d          -0.529   1.854   0.907  0.00  0.00     0.033 H 
ENDBRANCH   1  12
TORSDOF 1
