REMARK  1 active torsions:
REMARK  status: ('A' for Active; 'I' for Inactive)
REMARK    1  A    between atoms: N1_4  and  C5_6 
ROOT
ATOM      1  C1  <0> d           2.061   6.765   0.016  0.00  0.00    -0.066 A 
ATOM      2  C2  <0> d           0.714   7.182   0.030  0.00  0.00    -0.066 A 
ATOM      3  C3  <0> d          -0.053   6.073   0.032  0.00  0.00    -0.013 A 
ATOM      4  N1  <0> d           0.772   4.984   0.019  0.00  0.00    -0.310 N 
ATOM      5  C4  <0> d           2.068   5.417   0.015  0.00  0.00    -0.013 A 
ATOM      6  H1  <0> d           2.929   7.409   0.010  0.00  0.00     0.085 H 
ATOM      7  H2  <0> d           0.362   8.203   0.039  0.00  0.00     0.085 H 
ATOM      8  H3  <0> d          -1.132   6.050   0.043  0.00  0.00     0.112 H 
ATOM      9  H4  <0> d           2.946   4.788   0.010  0.00  0.00     0.112 H 
ENDROOT
BRANCH   4  10
ATOM     10  C5  <0> d           0.360   3.652   0.017  0.00  0.00     0.199 A 
ATOM     11  S1  <0> d           1.313   2.199   0.001  0.00  0.00    -0.041 SA
ATOM     12  C6  <0> d          -0.013   1.076   0.008  0.00  0.00     0.065 A 
ATOM     13  N3  <0> d          -1.039   1.898   0.016  0.00  0.00    -0.153 NA
ATOM     14  H5  <0> d           0.002  -0.004   0.002  0.00  0.00     0.129 H 
ATOM     15  N2  <0> d          -0.862   3.149   0.026  0.00  0.00    -0.123 NA
ENDBRANCH   4  10
TORSDOF 1
