REMARK  4 active torsions:
REMARK  status: ('A' for Active; 'I' for Inactive)
REMARK    1  A    between atoms: C1_1  and  C2_2 
REMARK    2  A    between atoms: C4_5  and  C7_8 
REMARK    3  A    between atoms: C4_5  and  C8_9 
REMARK    4  A    between atoms: C8_9  and  O2_10 
ROOT
ATOM      1  C2  <0> d          -1.051  -0.992   2.216  0.00  0.00    -0.062 C 
ATOM      2  C3  <0> d          -0.138  -0.207   2.725  0.00  0.00     0.015 C 
ATOM      3  O1  <0> d          -0.041   1.108   2.429  0.00  0.00    -0.350 OA
ATOM      4  C4  <0> d          -0.729   1.579   1.267  0.00  0.00     0.084 C 
ATOM      5  C5  <0> d          -2.160   1.026   1.298  0.00  0.00    -0.031 C 
ATOM      6  C6  <0> d          -2.083  -0.503   1.237  0.00  0.00    -0.040 C 
ATOM      7  H4  <0> d           0.574  -0.630   3.417  0.00  0.00     0.123 H 
ATOM      8  H5  <0> d          -2.653   1.333   2.221  0.00  0.00     0.037 H 
ATOM      9  H6  <0> d          -2.719   1.401   0.440  0.00  0.00     0.037 H 
ATOM     10  H7  <0> d          -1.803  -0.813   0.230  0.00  0.00     0.039 H 
ATOM     11  H8  <0> d          -3.054  -0.927   1.491  0.00  0.00     0.039 H 
ENDROOT
BRANCH   4  12
ATOM     12  C7  <0> d          -0.013   1.086   0.008  0.00  0.00    -0.045 C 
ATOM     13  H9  <0> d           0.002  -0.004   0.002  0.00  0.00     0.031 H 
ATOM     14  H10 <0> d           1.010   1.463   0.000  0.00  0.00     0.031 H 
ATOM     15  H11 <0> d          -0.540   1.447  -0.875  0.00  0.00     0.031 H 
ENDBRANCH   4  12
BRANCH   4  16
ATOM     16  C8  <0> d          -0.765   3.109   1.274  0.00  0.00     0.045 C 
ATOM     17  H12 <0> d          -1.374   3.461   0.441  0.00  0.00     0.078 H 
ATOM     18  H13 <0> d          -1.196   3.458   2.212  0.00  0.00     0.078 H 
BRANCH  16  19
ATOM     19  O2  <0> d           0.563   3.618   1.141  0.00  0.00    -0.398 OA
ATOM     20  H14 <0> d           0.616   4.583   1.137  0.00  0.00     0.209 HD
ENDBRANCH  16  19
ENDBRANCH   4  16
BRANCH   1  21
ATOM     21  C1  <0> d          -1.069  -2.442   2.626  0.00  0.00    -0.053 C 
ATOM     22  H1  <0> d          -0.263  -2.630   3.334  0.00  0.00     0.033 H 
ATOM     23  H2  <0> d          -2.026  -2.675   3.094  0.00  0.00     0.033 H 
ATOM     24  H3  <0> d          -0.933  -3.070   1.745  0.00  0.00     0.033 H 
ENDBRANCH   1  21
TORSDOF 4
