REMARK  2 active torsions:
REMARK  status: ('A' for Active; 'I' for Inactive)
REMARK    1  A    between atoms: C7_9  and  C8_11 
REMARK    2  A    between atoms: C8_11  and  C9_12 
REMARK       I    between atoms: C9_12  and  N1_14 
ROOT
ATOM      1  C1  <0> d          -0.735   1.354  -1.026  0.00  0.00    -0.061 C 
ATOM      2  C2  <0> d           0.038   0.968   0.256  0.00  0.00    -0.061 C 
ATOM      3  C3  <0> d          -0.772   1.618   1.419  0.00  0.00    -0.050 C 
ATOM      4  H1  <0> d          -0.556   1.216   2.420  0.00  0.00     0.040 H 
ATOM      5  C4  <0> d          -2.234   1.496   0.853  0.00  0.00    -0.058 C 
ATOM      6  C5  <0> d          -1.942   2.200  -0.519  0.00  0.00    -0.053 C 
ATOM      7  H2  <0> d          -2.770   2.312  -1.233  0.00  0.00     0.040 H 
ATOM      8  C6  <0> d          -1.305   3.543  -0.046  0.00  0.00    -0.058 C 
ATOM      9  C7  <0> d          -0.527   3.149   1.256  0.00  0.00    -0.042 C 
ATOM     10  H3  <0> d          -0.844   3.723   2.140  0.00  0.00     0.041 H 
ATOM     11  H4  <0> d          -1.107   0.468  -1.561  0.00  0.00     0.033 H 
ATOM     12  H5  <0> d          -0.120   1.962  -1.707  0.00  0.00     0.033 H 
ATOM     13  H6  <0> d           0.074  -0.128   0.346  0.00  0.00     0.033 H 
ATOM     14  H7  <0> d           1.063   1.365   0.200  0.00  0.00     0.033 H 
ATOM     15  H8  <0> d          -2.517   0.434   0.793  0.00  0.00     0.034 H 
ATOM     16  H9  <0> d          -2.931   2.023   1.521  0.00  0.00     0.034 H 
ATOM     17  H10 <0> d          -0.637   3.928  -0.830  0.00  0.00     0.034 H 
ATOM     18  H11 <0> d          -2.101   4.277   0.150  0.00  0.00     0.034 H 
ENDROOT
BRANCH   9  19
ATOM     19  C8  <0> d           0.966   3.436   1.085  0.00  0.00     0.013 C 
ATOM     20  H12 <0> d           1.525   2.975   1.913  0.00  0.00     0.047 H 
ATOM     21  H13 <0> d           1.313   3.015   0.130  0.00  0.00     0.047 H 
BRANCH  19  22
ATOM     22  C9  <0> d           1.196   4.925   1.091  0.00  0.00     0.215 C 
ATOM     23  O1  <0> d           0.257   5.683   1.219  0.00  0.00    -0.274 OA
ATOM     24  N1  <0> d           2.444   5.415   0.954  0.00  0.00    -0.370 N 
ATOM     25  H14 <0> d           2.611   6.502   0.958  0.00  0.00     0.159 HD
ATOM     26  H15 <0> d           3.295   4.728   0.837  0.00  0.00     0.159 HD
ENDBRANCH  19  22
ENDBRANCH   9  19
TORSDOF 2
