REMARK  0 active torsions:
REMARK  status: ('A' for Active; 'I' for Inactive)
ROOT
ATOM      1  C1  <0> d          -0.017   1.415   0.010  0.00  0.00    -0.013 A 
ATOM      2  C2  <0> d           1.153   2.083   0.002  0.00  0.00     0.022 A 
ATOM      3  O1  <0> d           2.320   1.428  -0.012  0.00  0.00    -0.335 OA
ATOM      4  C3  <0> d           2.384   0.091  -0.020  0.00  0.00     0.022 A 
ATOM      5  C4  <0> d           1.262  -0.657  -0.013  0.00  0.00    -0.013 A 
ATOM      6  C5  <0> d           0.002  -0.004   0.002  0.00  0.00     0.175 A 
ATOM      7  O2  <0> d          -1.037  -0.646   0.009  0.00  0.00    -0.288 OA
ATOM      8  H1  <0> d          -0.955   1.951   0.017  0.00  0.00     0.092 H 
ATOM      9  H2  <0> d           1.149   3.163   0.008  0.00  0.00     0.123 H 
ATOM     10  H3  <0> d           3.348  -0.396  -0.032  0.00  0.00     0.123 H 
ATOM     11  H4  <0> d           1.321  -1.735  -0.019  0.00  0.00     0.092 H 
ENDROOT
TORSDOF 0
