REMARK  3 active torsions:
REMARK  status: ('A' for Active; 'I' for Inactive)
REMARK    1  A    between atoms: C2_2  and  C3_3 
REMARK    2  A    between atoms: C3_3  and  C4_4 
REMARK    3  A    between atoms: C4_4  and  C5_5 
ROOT
ATOM      1  C1  <0> d           0.018  -1.178  -0.004  0.00  0.00    -0.154 C 
ATOM      2  C2  <0> d           0.002  -0.004   0.002  0.00  0.00    -0.117 C 
ATOM      3  H1  <0> d           0.032  -2.228  -0.010  0.00  0.00     0.166 H 
ENDROOT
BRANCH   2   4
ATOM      4  C3  <0> d          -0.018   1.468   0.010  0.00  0.00    -0.006 C 
ATOM      5  H2  <0> d          -0.545   1.829  -0.873  0.00  0.00     0.052 H 
ATOM      6  H3  <0> d          -0.528   1.819   0.907  0.00  0.00     0.052 H 
BRANCH   4   7
ATOM      7  C4  <0> d           1.417   1.997  -0.001  0.00  0.00    -0.032 C 
ATOM      8  H4  <0> d           1.945   1.636   0.882  0.00  0.00     0.041 H 
ATOM      9  H5  <0> d           1.928   1.646  -0.897  0.00  0.00     0.041 H 
BRANCH   7  10
ATOM     10  C5  <0> d           1.397   3.504   0.007  0.00  0.00    -0.057 A 
ATOM     11  C10 <0> d           1.399   4.189   1.208  0.00  0.00    -0.077 A 
ATOM     12  C9  <0> d           1.385   5.571   1.216  0.00  0.00    -0.082 A 
ATOM     13  H10 <0> d           1.415   3.644   2.141  0.00  0.00     0.084 H 
ATOM     14  C8  <0> d           1.359   6.269   0.023  0.00  0.00    -0.083 A 
ATOM     15  H9  <0> d           1.391   6.106   2.154  0.00  0.00     0.083 H 
ATOM     16  C7  <0> d           1.352   5.584  -1.178  0.00  0.00    -0.082 A 
ATOM     17  H8  <0> d           1.345   7.348   0.029  0.00  0.00     0.083 H 
ATOM     18  C6  <0> d           1.371   4.202  -1.186  0.00  0.00    -0.077 A 
ATOM     19  H7  <0> d           1.332   6.129  -2.110  0.00  0.00     0.083 H 
ATOM     20  H6  <0> d           1.365   3.667  -2.124  0.00  0.00     0.084 H 
ENDBRANCH   7  10
ENDBRANCH   4   7
ENDBRANCH   2   4
TORSDOF 3
