REMARK  5 active torsions:
REMARK  status: ('A' for Active; 'I' for Inactive)
REMARK    1  A    between atoms: C1_1  and  C2_2 
REMARK    2  A    between atoms: N1_8  and  C6_9 
REMARK    3  A    between atoms: C6_9  and  C7_10 
REMARK    4  A    between atoms: C7_10  and  C8_11 
REMARK    5  A    between atoms: C7_10  and  C9_12 
ROOT
ATOM      1  C2  <0> d           0.002  -0.004   0.002  0.00  0.00     0.011 C 
ATOM      2  H1  <0> d          -1.016  -0.395  -0.003  0.00  0.00     0.072 H 
ATOM      3  C3  <0> d           0.779  -0.521  -1.229  0.00  0.00    -0.038 C 
ATOM      4  C4  <0> d           1.473  -1.779  -0.657  0.00  0.00     0.011 C 
ATOM      5  C5  <0> d           1.565  -1.510   0.828  0.00  0.00     0.220 C 
ATOM      6  O1  <0> d           2.284  -2.110   1.600  0.00  0.00    -0.273 OA
ATOM      7  N1  <0> d           0.734  -0.508   1.170  0.00  0.00    -0.347 N 
ATOM      8  H5  <0> d           0.098  -0.785  -2.038  0.00  0.00     0.036 H 
ATOM      9  H6  <0> d           1.513   0.212  -1.563  0.00  0.00     0.036 H 
ATOM     10  H7  <0> d           0.870  -2.667  -0.848  0.00  0.00     0.047 H 
ATOM     11  H8  <0> d           2.469  -1.894  -1.087  0.00  0.00     0.047 H 
ENDROOT
BRANCH   7  12
ATOM     12  C6  <0> d           0.580   0.013   2.530  0.00  0.00     0.001 C 
ATOM     13  H9  <0> d           1.518  -0.105   3.073  0.00  0.00     0.065 H 
ATOM     14  H10 <0> d           0.315   1.069   2.487  0.00  0.00     0.065 H 
BRANCH  12  15
ATOM     15  C7  <0> d          -0.526  -0.762   3.251  0.00  0.00    -0.045 C 
ATOM     16  H11 <0> d          -1.442  -0.718   2.662  0.00  0.00     0.041 H 
BRANCH  15  17
ATOM     17  C8  <0> d          -0.099  -2.221   3.422  0.00  0.00    -0.072 C 
ATOM     18  H12 <0> d          -0.886  -2.772   3.935  0.00  0.00     0.028 H 
ATOM     19  H13 <0> d           0.077  -2.665   2.442  0.00  0.00     0.028 H 
ATOM     20  H14 <0> d           0.818  -2.264   4.011  0.00  0.00     0.028 H 
ENDBRANCH  15  17
BRANCH  15  21
ATOM     21  C9  <0> d          -0.773  -0.138   4.626  0.00  0.00    -0.072 C 
ATOM     22  H15 <0> d          -1.077   0.902   4.504  0.00  0.00     0.028 H 
ATOM     23  H16 <0> d          -1.561  -0.689   5.139  0.00  0.00     0.028 H 
ATOM     24  H17 <0> d           0.144  -0.181   5.214  0.00  0.00     0.028 H 
ENDBRANCH  15  21
ENDBRANCH  12  15
ENDBRANCH   7  12
BRANCH   1  25
ATOM     25  C1  <0> d          -0.019   1.526   0.010  0.00  0.00    -0.057 C 
ATOM     26  H2  <0> d           1.004   1.903   0.003  0.00  0.00     0.030 H 
ATOM     27  H3  <0> d          -0.546   1.887  -0.873  0.00  0.00     0.030 H 
ATOM     28  H4  <0> d          -0.529   1.877   0.907  0.00  0.00     0.030 H 
ENDBRANCH   1  25
TORSDOF 5
