REMARK  4 active torsions:
REMARK  status: ('A' for Active; 'I' for Inactive)
REMARK    1  A    between atoms: C1_1  and  N1_2 
REMARK    2  A    between atoms: N1_2  and  C2_3 
REMARK    3  A    between atoms: C3_4  and  C6_9 
REMARK    4  A    between atoms: N3_7  and  C5_8 
REMARK       I    between atoms: C6_9  and  N4_11 
ROOT
ATOM      1  C2  <0> d          -2.548   1.364   0.035  0.00  0.00     0.117 A 
ATOM      2  C3  <0> d          -1.479   2.015  -0.563  0.00  0.00     0.163 A 
ATOM      3  N2  <0> d          -1.611   3.342  -0.289  0.00  0.00    -0.235 NA
ATOM      4  C4  <0> d          -2.676   3.526   0.432  0.00  0.00     0.068 A 
ATOM      5  N3  <0> d          -3.284   2.327   0.660  0.00  0.00    -0.335 N 
ATOM      6  H5  <0> d          -3.025   4.481   0.795  0.00  0.00     0.143 H 
ENDROOT
BRANCH   1   7
ATOM      7  N1  <0> d          -2.811   0.009   0.007  0.00  0.00    -0.281 NA
ATOM      8  H4  <0> d          -2.906  -0.360   0.942  0.00  0.00     0.128 HD
BRANCH   7   9
ATOM      9  C1  <0> d          -4.007  -0.278  -0.796  0.00  0.00    -0.030 C 
ATOM     10  H1  <0> d          -4.843   0.318  -0.428  0.00  0.00     0.048 H 
ATOM     11  H2  <0> d          -3.813  -0.028  -1.839  0.00  0.00     0.048 H 
ATOM     12  H3  <0> d          -4.253  -1.337  -0.716  0.00  0.00     0.048 H 
ENDBRANCH   7   9
ENDBRANCH   1   7
BRANCH   5  13
ATOM     13  C5  <0> d          -4.512   2.113   1.431  0.00  0.00    -0.012 C 
ATOM     14  H6  <0> d          -5.377   2.258   0.784  0.00  0.00     0.057 H 
ATOM     15  H7  <0> d          -4.520   1.097   1.826  0.00  0.00     0.057 H 
ATOM     16  H8  <0> d          -4.551   2.824   2.256  0.00  0.00     0.057 H 
ENDBRANCH   5  13
BRANCH   2  17
ATOM     17  C6  <0> d          -0.411   1.393  -1.349  0.00  0.00     0.271 C 
ATOM     18  O1  <0> d          -0.407   0.188  -1.522  0.00  0.00    -0.266 OA
ATOM     19  N4  <0> d           0.564   2.154  -1.884  0.00  0.00    -0.365 N 
ATOM     20  H9  <0> d           1.268   1.742  -2.408  0.00  0.00     0.159 HD
ATOM     21  H10 <0> d           0.560   3.114  -1.746  0.00  0.00     0.159 HD
ENDBRANCH   2  17
TORSDOF 4
