REMARK  7 active torsions:
REMARK  status: ('A' for Active; 'I' for Inactive)
REMARK    1  A    between atoms: C1_1  and  C2_2 
REMARK    2  A    between atoms: C2_2  and  C3_3 
REMARK    3  A    between atoms: C2_2  and  C4_4 
REMARK    4  A    between atoms: C4_4  and  C5_6 
REMARK    5  A    between atoms: C4_4  and  N1_10 
REMARK    6  A    between atoms: C5_6  and  O2_8 
REMARK    7  A    between atoms: O2_8  and  C6_9 
ROOT
ATOM      1  C4  <0> d           0.742  -0.511   1.242  0.00  0.00     0.215 C 
ATOM      2  H1  <0> d           0.835  -1.596   1.191  0.00  0.00     0.104 H 
ENDROOT
BRANCH   1   3
ATOM      3  C2  <0> d           0.002  -0.004   0.002  0.00  0.00    -0.022 C 
ATOM      4  H5  <0> d          -1.020  -0.381   0.010  0.00  0.00     0.042 H 
BRANCH   3   5
ATOM      5  C1  <0> d          -0.019   1.526   0.010  0.00  0.00    -0.071 C 
ATOM      6  H2  <0> d           1.004   1.903   0.003  0.00  0.00     0.028 H 
ATOM      7  H3  <0> d          -0.546   1.887  -0.873  0.00  0.00     0.028 H 
ATOM      8  H4  <0> d          -0.529   1.877   0.907  0.00  0.00     0.028 H 
ENDBRANCH   3   5
BRANCH   3   9
ATOM      9  C3  <0> d           0.718  -0.497  -1.257  0.00  0.00    -0.071 C 
ATOM     10  H6  <0> d           1.741  -0.120  -1.264  0.00  0.00     0.028 H 
ATOM     11  H7  <0> d           0.733  -1.587  -1.263  0.00  0.00     0.028 H 
ATOM     12  H8  <0> d           0.191  -0.136  -2.140  0.00  0.00     0.028 H 
ENDBRANCH   3   9
ENDBRANCH   1   3
BRANCH   1  13
ATOM     13  C5  <0> d          -0.030  -0.130   2.478  0.00  0.00     0.292 C 
ATOM     14  O1  <0> d           0.308   0.831   3.129  0.00  0.00    -0.263 OA
BRANCH  13  15
ATOM     15  O2  <0> d          -1.093  -0.856   2.857  0.00  0.00    -0.325 OA
BRANCH  15  16
ATOM     16  C6  <0> d          -1.777  -0.438   4.039  0.00  0.00     0.013 C 
ATOM     17  H9  <0> d          -2.150   0.578   3.903  0.00  0.00     0.067 H 
ATOM     18  H10 <0> d          -2.614  -1.109   4.232  0.00  0.00     0.067 H 
ATOM     19  H11 <0> d          -1.090  -0.461   4.885  0.00  0.00     0.067 H 
ENDBRANCH  15  16
ENDBRANCH  13  15
ENDBRANCH   1  13
BRANCH   1  20
ATOM     20  N1  <0> d           2.080   0.093   1.294  0.00  0.00     0.092 N 
ATOM     21  H12 <0> d           2.640  -0.200   0.507  0.00  0.00     0.313 HD
ATOM     22  H13 <0> d           2.022   1.099   1.341  0.00  0.00     0.313 HD
ENDBRANCH   1  20
TORSDOF 7
