REMARK  1 active torsions:
REMARK  status: ('A' for Active; 'I' for Inactive)
REMARK    1  A    between atoms: C5_6  and  C6_7 
ROOT
ATOM      1  C1  <0> d           1.210  -0.705  -0.019  0.00  0.00    -0.052 A 
ATOM      2  C2  <0> d           1.184  -2.085  -0.021  0.00  0.00     0.003 A 
ATOM      3  N1  <0> d           0.039  -2.740  -0.013  0.00  0.00    -0.273 NA
ATOM      4  C3  <0> d          -1.123  -2.117   0.002  0.00  0.00     0.003 A 
ATOM      5  C4  <0> d          -1.187  -0.738   0.009  0.00  0.00    -0.052 A 
ATOM      6  C5  <0> d           0.002  -0.004   0.002  0.00  0.00     0.017 A 
ATOM      7  H1  <0> d           2.151  -0.175  -0.030  0.00  0.00     0.087 H 
ATOM      8  H2  <0> d           2.113  -2.636  -0.033  0.00  0.00     0.114 H 
ATOM      9  H3  <0> d          -2.037  -2.692   0.007  0.00  0.00     0.114 H 
ATOM     10  H4  <0> d          -2.142  -0.234   0.022  0.00  0.00     0.087 H 
ENDROOT
BRANCH   6  11
ATOM     11  C6  <0> d          -0.018   1.481   0.010  0.00  0.00     0.188 A 
ATOM     12  N3  <0> d          -1.081   2.242   0.019  0.00  0.00    -0.106 NA
ATOM     13  O1  <0> d          -0.756   3.411   0.026  0.00  0.00    -0.205 OA
ATOM     14  C7  <0> d           0.577   3.515   0.015  0.00  0.00     0.130 A 
ATOM     15  N2  <0> d           1.059   2.298   0.004  0.00  0.00    -0.212 NA
ATOM     16  H5  <0> d           1.148   4.432   0.014  0.00  0.00     0.159 H 
ENDBRANCH   6  11
TORSDOF 1
