REMARK  4 active torsions:
REMARK  status: ('A' for Active; 'I' for Inactive)
REMARK    1  A    between atoms: C1_1  and  C2_2 
REMARK    2  A    between atoms: C2_2  and  O1_3 
REMARK    3  A    between atoms: O1_3  and  C3_4 
REMARK    4  A    between atoms: C5_7  and  C6_9 
ROOT
ATOM      1  C3  <0> d          -0.013   1.086   0.008  0.00  0.00     0.052 A 
ATOM      2  H1  <0> d          -0.388   0.086  -0.257  0.00  0.00     0.084 H 
ATOM      3  C4  <0> d           1.335   1.811  -0.001  0.00  0.00    -0.025 A 
ATOM      4  C5  <0> d           0.484   1.792   1.271  0.00  0.00     0.058 A 
ATOM      5  H2  <0> d           0.080   2.553   1.954  0.00  0.00     0.060 H 
ATOM      6  H8  <0> d           2.135   1.094  -0.237  0.00  0.00     0.038 H 
ATOM      7  H9  <0> d           1.318   2.606  -0.761  0.00  0.00     0.038 H 
ENDROOT
BRANCH   1   8
ATOM      8  O1  <0> d          -1.093   1.692  -0.706  0.00  0.00    -0.385 OA
BRANCH   8   9
ATOM      9  C2  <0> d          -1.927   0.760  -1.398  0.00  0.00     0.017 C 
ATOM     10  H6  <0> d          -2.368   0.057  -0.677  0.00  0.00     0.073 H 
ATOM     11  H7  <0> d          -1.325   0.204  -2.131  0.00  0.00     0.073 H 
BRANCH   9  12
ATOM     12  C1  <0> d          -3.042   1.516  -2.122  0.00  0.00    -0.056 C 
ATOM     13  H3  <0> d          -3.684   0.799  -2.655  0.00  0.00     0.030 H 
ATOM     14  H4  <0> d          -2.601   2.219  -2.844  0.00  0.00     0.030 H 
ATOM     15  H5  <0> d          -3.644   2.072  -1.389  0.00  0.00     0.030 H 
ENDBRANCH   9  12
ENDBRANCH   8   9
ENDBRANCH   1   8
BRANCH   4  16
ATOM     16  C6  <0> d           0.957   0.928   2.411  0.00  0.00     0.179 C 
ATOM     17  O2  <0> d           0.934  -0.276   2.307  0.00  0.00    -0.648 OA
ATOM     18  O3  <0> d           1.403   1.495   3.543  0.00  0.00    -0.648 OA
ENDBRANCH   4  16
TORSDOF 4
