REMARK  3 active torsions:
REMARK  status: ('A' for Active; 'I' for Inactive)
REMARK    1  A    between atoms: C1_1  and  C2_2 
REMARK    2  A    between atoms: C4_7  and  C5_8 
REMARK    3  A    between atoms: C4_7  and  C6_9 
ROOT
ATOM      1  C2  <0> d           0.002  -0.004   0.002  0.00  0.00     0.043 A 
ATOM      2  H1  <0> d           0.348  -0.418  -0.945  0.00  0.00     0.057 H 
ATOM      3  C3  <0> d          -1.279  -0.633   0.510  0.00  0.00     0.224 A 
ATOM      4  O1  <0> d          -2.425  -0.657   0.113  0.00  0.00    -0.273 OA
ATOM      5  N1  <0> d          -0.639  -1.160   1.587  0.00  0.00    -0.351 N 
ATOM      6  C4  <0> d           0.688  -0.619   1.232  0.00  0.00     0.037 A 
ATOM      7  H5  <0> d          -0.948  -1.703   2.329  0.00  0.00     0.163 HD
ENDROOT
BRANCH   6   8
ATOM      8  C5  <0> d           1.216   0.418   2.226  0.00  0.00    -0.052 C 
ATOM      9  H6  <0> d           0.388   1.029   2.587  0.00  0.00     0.030 H 
ATOM     10  H7  <0> d           1.686  -0.091   3.067  0.00  0.00     0.030 H 
ATOM     11  H8  <0> d           1.948   1.055   1.730  0.00  0.00     0.030 H 
ENDBRANCH   6   8
BRANCH   6  12
ATOM     12  C6  <0> d           1.720  -1.695   0.888  0.00  0.00    -0.052 C 
ATOM     13  H9  <0> d           2.501  -1.262   0.263  0.00  0.00     0.030 H 
ATOM     14  H10 <0> d           2.162  -2.083   1.806  0.00  0.00     0.030 H 
ATOM     15  H11 <0> d           1.232  -2.507   0.349  0.00  0.00     0.030 H 
ENDBRANCH   6  12
BRANCH   1  16
ATOM     16  C1  <0> d          -0.019   1.526   0.010  0.00  0.00    -0.062 C 
ATOM     17  H2  <0> d           1.004   1.903   0.003  0.00  0.00     0.028 H 
ATOM     18  H3  <0> d          -0.546   1.887  -0.873  0.00  0.00     0.028 H 
ATOM     19  H4  <0> d          -0.529   1.877   0.907  0.00  0.00     0.028 H 
ENDBRANCH   1  16
TORSDOF 3
