REMARK  3 active torsions:
REMARK  status: ('A' for Active; 'I' for Inactive)
REMARK    1  A    between atoms: C1_1  and  C2_2 
REMARK    2  A    between atoms: C2_2  and  N1_3 
REMARK    3  A    between atoms: C5_7  and  C6_8 
ROOT
ATOM      1  N1  <0> d           1.305   1.769  -0.001  0.00  0.00    -0.335 N 
ATOM      2  C3  <0> d           2.059   0.656  -0.014  0.00  0.00     0.066 A 
ATOM      3  N2  <0> d           1.277  -0.394  -0.012  0.00  0.00    -0.253 NA
ATOM      4  C4  <0> d           0.002  -0.004   0.002  0.00  0.00     0.036 A 
ATOM      5  C5  <0> d          -0.017   1.363   0.009  0.00  0.00     0.130 A 
ATOM      6  H6  <0> d           3.138   0.631  -0.024  0.00  0.00     0.143 H 
ATOM      7  H7  <0> d          -0.862  -0.652   0.007  0.00  0.00     0.118 H 
ENDROOT
BRANCH   1   8
ATOM      8  C2  <0> d           1.791   3.151   0.002  0.00  0.00    -0.002 C 
ATOM      9  H4  <0> d           2.786   3.186  -0.442  0.00  0.00     0.064 H 
ATOM     10  H5  <0> d           1.113   3.776  -0.578  0.00  0.00     0.064 H 
BRANCH   8  11
ATOM     11  C1  <0> d           1.856   3.666   1.441  0.00  0.00    -0.061 C 
ATOM     12  H1  <0> d           2.218   4.694   1.443  0.00  0.00     0.029 H 
ATOM     13  H2  <0> d           0.861   3.630   1.885  0.00  0.00     0.029 H 
ATOM     14  H3  <0> d           2.535   3.040   2.021  0.00  0.00     0.029 H 
ENDBRANCH   8  11
ENDBRANCH   1   8
BRANCH   5  15
ATOM     15  C6  <0> d          -1.201   2.227   0.020  0.00  0.00     0.228 C 
ATOM     16  O1  <0> d          -2.313   1.733   0.023  0.00  0.00    -0.643 OA
ATOM     17  O2  <0> d          -1.058   3.568   0.026  0.00  0.00    -0.643 OA
ENDBRANCH   5  15
TORSDOF 3
