REMARK  3 active torsions:
REMARK  status: ('A' for Active; 'I' for Inactive)
REMARK    1  A    between atoms: C1_1  and  C2_2 
REMARK    2  A    between atoms: C2_2  and  C3_3 
REMARK    3  A    between atoms: N1_11  and  C9_12 
ROOT
ATOM      1  C3  <0> d          -0.753   1.593  -1.232  0.00  0.00     0.014 C 
ATOM      2  H1  <0> d          -1.774   1.212  -1.229  0.00  0.00     0.072 H 
ATOM      3  C4  <0> d          -0.027   1.118  -2.492  0.00  0.00    -0.046 C 
ATOM      4  C5  <0> d           1.471   1.050  -2.261  0.00  0.00    -0.063 C 
ATOM      5  C6  <0> d           2.121   2.404  -2.046  0.00  0.00    -0.057 C 
ATOM      6  C7  <0> d           1.646   3.032  -0.733  0.00  0.00     0.009 C 
ATOM      7  C8  <0> d           0.342   3.756  -0.991  0.00  0.00     0.219 C 
ATOM      8  O1  <0> d           0.312   4.968  -0.984  0.00  0.00    -0.273 OA
ATOM      9  N1  <0> d          -0.774   3.064  -1.226  0.00  0.00    -0.352 N 
ATOM     10  H7  <0> d          -0.394   0.129  -2.765  0.00  0.00     0.036 H 
ATOM     11  H8  <0> d          -0.233   1.813  -3.307  0.00  0.00     0.036 H 
ATOM     12  H9  <0> d           1.935   0.574  -3.125  0.00  0.00     0.033 H 
ATOM     13  H10 <0> d           1.660   0.430  -1.384  0.00  0.00     0.033 H 
ATOM     14  H11 <0> d           1.859   3.063  -2.874  0.00  0.00     0.033 H 
ATOM     15  H12 <0> d           3.204   2.282  -2.015  0.00  0.00     0.033 H 
ATOM     16  H13 <0> d           2.393   3.740  -0.374  0.00  0.00     0.047 H 
ATOM     17  H14 <0> d           1.491   2.250   0.011  0.00  0.00     0.047 H 
ENDROOT
BRANCH   1  18
ATOM     18  C2  <0> d          -0.013   1.086   0.008  0.00  0.00    -0.049 C 
ATOM     19  H5  <0> d           1.046   0.969  -0.223  0.00  0.00     0.035 H 
ATOM     20  H6  <0> d          -0.130   1.804   0.820  0.00  0.00     0.035 H 
BRANCH  18  21
ATOM     21  C1  <0> d          -0.594  -0.264   0.433  0.00  0.00    -0.075 C 
ATOM     22  H2  <0> d          -1.653  -0.147   0.664  0.00  0.00     0.027 H 
ATOM     23  H3  <0> d          -0.477  -0.982  -0.379  0.00  0.00     0.027 H 
ATOM     24  H4  <0> d          -0.067  -0.625   1.316  0.00  0.00     0.027 H 
ENDBRANCH  18  21
ENDBRANCH   1  18
BRANCH   9  25
ATOM     25  C9  <0> d          -2.030   3.775  -1.481  0.00  0.00    -0.016 C 
ATOM     26  H15 <0> d          -2.549   3.944  -0.537  0.00  0.00     0.056 H 
ATOM     27  H16 <0> d          -1.816   4.732  -1.955  0.00  0.00     0.056 H 
ATOM     28  H17 <0> d          -2.659   3.176  -2.139  0.00  0.00     0.056 H 
ENDBRANCH   9  25
TORSDOF 3
