REMARK  3 active torsions:
REMARK  status: ('A' for Active; 'I' for Inactive)
REMARK    1  A    between atoms: C1_1  and  C2_2 
REMARK    2  A    between atoms: C2_2  and  C3_3 
REMARK    3  A    between atoms: C4_4  and  C8_12 
ROOT
ATOM      1  C3  <0> d           0.000   1.080   2.488  0.00  0.00     0.002 A 
ATOM      2  C4  <0> d          -0.277  -0.189   2.997  0.00  0.00    -0.046 A 
ATOM      3  C5  <0> d           0.397  -0.628   4.104  0.00  0.00    -0.011 A 
ATOM      4  C6  <0> d           1.344   0.206   4.711  0.00  0.00     0.247 A 
ATOM      5  O1  <0> d           1.947  -0.176   5.702  0.00  0.00    -0.268 OA
ATOM      6  N1  <0> d           1.591   1.429   4.204  0.00  0.00    -0.301 N 
ATOM      7  H1  <0> d           2.336   2.082   4.683  0.00  0.00     0.171 HD
ATOM      8  C7  <0> d           0.928   1.871   3.101  0.00  0.00     0.188 A 
ATOM      9  O2  <0> d           1.192   3.102   2.609  0.00  0.00    -0.172 OA
ATOM     10  H7  <0> d           0.197  -1.609   4.509  0.00  0.00     0.092 H 
ENDROOT
BRANCH   1  11
ATOM     11  C2  <0> d          -0.729   1.579   1.267  0.00  0.00    -0.040 C 
ATOM     12  H5  <0> d          -0.744   2.679   1.273  0.00  0.00     0.039 H 
ATOM     13  H6  <0> d          -1.761   1.198   1.275  0.00  0.00     0.039 H 
BRANCH  11  14
ATOM     14  C1  <0> d          -0.013   1.086   0.008  0.00  0.00    -0.072 C 
ATOM     15  H2  <0> d          -0.545   1.450  -0.883  0.00  0.00     0.028 H 
ATOM     16  H3  <0> d           0.002  -0.014   0.002  0.00  0.00     0.028 H 
ATOM     17  H4  <0> d           1.019   1.466   0.000  0.00  0.00     0.028 H 
ENDBRANCH  11  14
ENDBRANCH   1  11
BRANCH   2  18
ATOM     18  C8  <0> d          -1.304  -1.069   2.332  0.00  0.00    -0.050 C 
ATOM     19  H8  <0> d          -1.378  -2.022   2.877  0.00  0.00     0.033 H 
ATOM     20  H9  <0> d          -1.002  -1.264   1.293  0.00  0.00     0.033 H 
ATOM     21  H10 <0> d          -2.281  -0.563   2.342  0.00  0.00     0.033 H 
ENDBRANCH   2  18
TORSDOF 3
