REMARK  5 active torsions:
REMARK  status: ('A' for Active; 'I' for Inactive)
REMARK    1  A    between atoms: C1_1  and  C2_2 
REMARK    2  A    between atoms: C1_1  and  C5_7 
REMARK    3  A    between atoms: C2_2  and  C3_3 
REMARK    4  A    between atoms: C3_3  and  C4_4 
REMARK       I    between atoms: C4_4  and  N1_6 
REMARK    5  A    between atoms: C5_7  and  C6_8 
REMARK       I    between atoms: C6_8  and  N2_10 
ROOT
ATOM      1  C1  <0> d          -0.019   1.526   0.010  0.00  0.00    -0.057 C 
ATOM      2  H1  <0> d          -0.546   1.887  -0.873  0.00  0.00     0.033 H 
ATOM      3  H2  <0> d          -0.529   1.877   0.907  0.00  0.00     0.033 H 
ENDROOT
BRANCH   1   4
ATOM      4  C2  <0> d           0.002  -0.004   0.002  0.00  0.00    -0.057 C 
ATOM      5  H3  <0> d           0.512  -0.356  -0.895  0.00  0.00     0.033 H 
ATOM      6  H4  <0> d           0.529  -0.365   0.885  0.00  0.00     0.033 H 
BRANCH   4   7
ATOM      7  C3  <0> d          -1.433  -0.534   0.013  0.00  0.00     0.009 C 
ATOM      8  H5  <0> d          -1.944  -0.182   0.910  0.00  0.00     0.047 H 
ATOM      9  H6  <0> d          -1.960  -0.173  -0.870  0.00  0.00     0.047 H 
BRANCH   7  10
ATOM     10  C4  <0> d          -1.413  -2.041   0.005  0.00  0.00     0.215 C 
ATOM     11  O1  <0> d          -0.354  -2.632  -0.009  0.00  0.00    -0.274 OA
ATOM     12  N1  <0> d          -2.571  -2.730   0.012  0.00  0.00    -0.370 N 
ATOM     13  H7  <0> d          -3.417  -2.257   0.023  0.00  0.00     0.159 HD
ATOM     14  H8  <0> d          -2.558  -3.700   0.007  0.00  0.00     0.159 HD
ENDBRANCH   7  10
ENDBRANCH   4   7
ENDBRANCH   1   4
BRANCH   1  15
ATOM     15  C5  <0> d           1.417   2.055  -0.000  0.00  0.00     0.009 C 
ATOM     16  H9  <0> d           1.944   1.694   0.883  0.00  0.00     0.047 H 
ATOM     17  H10 <0> d           1.927   1.704  -0.897  0.00  0.00     0.047 H 
BRANCH  15  18
ATOM     18  C6  <0> d           1.396   3.562   0.008  0.00  0.00     0.215 C 
ATOM     19  O2  <0> d           0.338   4.154   0.021  0.00  0.00    -0.274 OA
ATOM     20  N2  <0> d           2.554   4.252   0.001  0.00  0.00    -0.370 N 
ATOM     21  H11 <0> d           3.401   3.778  -0.010  0.00  0.00     0.159 HD
ATOM     22  H12 <0> d           2.541   5.222   0.006  0.00  0.00     0.159 HD
ENDBRANCH  15  18
ENDBRANCH   1  15
TORSDOF 5
