REMARK  1 active torsions:
REMARK  status: ('A' for Active; 'I' for Inactive)
REMARK    1  A    between atoms: C6_9  and  O1_11 
ROOT
ATOM      1  C1  <0> d          -0.018   1.461   0.010  0.00  0.00    -0.038 A 
ATOM      2  C2  <0> d           1.260   1.873   0.000  0.00  0.00    -0.020 A 
ATOM      3  N1  <0> d           2.099   0.793  -0.014  0.00  0.00    -0.364 N 
ATOM      4  H1  <0> d           3.068   0.839  -0.022  0.00  0.00     0.165 HD
ATOM      5  C3  <0> d           1.361  -0.370  -0.013  0.00  0.00     0.063 A 
ATOM      6  C4  <0> d           0.002  -0.004   0.002  0.00  0.00     0.084 A 
ATOM      7  N2  <0> d          -0.947  -0.935   0.006  0.00  0.00    -0.256 NA
ATOM      8  C5  <0> d          -0.652  -2.217  -0.004  0.00  0.00     0.035 A 
ATOM      9  C6  <0> d           0.669  -2.652  -0.019  0.00  0.00     0.085 A 
ATOM     10  C7  <0> d           1.697  -1.720  -0.023  0.00  0.00    -0.022 A 
ATOM     11  H2  <0> d          -0.895   2.091   0.026  0.00  0.00     0.089 H 
ATOM     12  H3  <0> d           1.579   2.905   0.002  0.00  0.00     0.111 H 
ATOM     13  H4  <0> d          -1.450  -2.945  -0.001  0.00  0.00     0.119 H 
ATOM     14  H5  <0> d           2.730  -2.034  -0.035  0.00  0.00     0.091 H 
ENDROOT
BRANCH   9  15
ATOM     15  O1  <0> d           0.952  -3.982  -0.030  0.00  0.00    -0.359 OA
ATOM     16  H6  <0> d           1.025  -4.362  -0.916  0.00  0.00     0.217 HD
ENDBRANCH   9  15
TORSDOF 1
