REMARK  3 active torsions:
REMARK  status: ('A' for Active; 'I' for Inactive)
REMARK    1  A    between atoms: C1_1  and  O1_2 
REMARK    2  A    between atoms: O1_2  and  C2_3 
REMARK    3  A    between atoms: C4_5  and  N2_9 
ROOT
ATOM      1  C2  <0> d           0.605  -0.606  -1.054  0.00  0.00     0.188 A 
ATOM      2  C3  <0> d           0.650  -1.991  -1.121  0.00  0.00     0.113 A 
ATOM      3  C4  <0> d           1.272  -2.595  -2.211  0.00  0.00     0.053 A 
ATOM      4  C5  <0> d           1.826  -1.775  -3.196  0.00  0.00    -0.039 A 
ATOM      5  C6  <0> d           1.740  -0.406  -3.058  0.00  0.00     0.007 A 
ATOM      6  N1  <0> d           1.139   0.134  -2.013  0.00  0.00    -0.236 NA
ATOM      7 Cl1  <0> d          -0.057  -2.957   0.137  0.00  0.00    -0.077 Cl
ATOM      8  H4  <0> d           2.316  -2.208  -4.055  0.00  0.00     0.089 H 
ATOM      9  H5  <0> d           2.167   0.233  -3.816  0.00  0.00     0.115 H 
ENDROOT
BRANCH   1  10
ATOM     10  O1  <0> d           0.002  -0.004   0.002  0.00  0.00    -0.338 OA
BRANCH  10  11
ATOM     11  C1  <0> d          -0.017   1.425   0.010  0.00  0.00     0.012 C 
ATOM     12  H1  <0> d           1.005   1.802   0.002  0.00  0.00     0.067 H 
ATOM     13  H2  <0> d          -0.544   1.786  -0.873  0.00  0.00     0.067 H 
ATOM     14  H3  <0> d          -0.527   1.776   0.907  0.00  0.00     0.067 H 
ENDBRANCH  10  11
ENDBRANCH   1  10
BRANCH   3  15
ATOM     15  N2  <0> d           1.340  -3.982  -2.316  0.00  0.00    -0.398 N 
ATOM     16  H6  <0> d           0.951  -4.540  -1.624  0.00  0.00     0.156 HD
ATOM     17  H7  <0> d           1.775  -4.390  -3.080  0.00  0.00     0.156 HD
ENDBRANCH   3  15
TORSDOF 3
