REMARK  3 active torsions:
REMARK  status: ('A' for Active; 'I' for Inactive)
REMARK    1  A    between atoms: C3_3  and  C4_4 
REMARK    2  A    between atoms: C4_4  and  S1_5 
REMARK    3  A    between atoms: S1_5  and  N1_8 
ROOT
ATOM      1  C4  <0> d          -0.384  -0.723   1.296  0.00  0.00     0.049 C 
ATOM      2  H6  <0> d           0.352  -0.500   2.069  0.00  0.00     0.059 H 
ATOM      3  H7  <0> d          -1.367  -0.383   1.621  0.00  0.00     0.059 H 
ENDROOT
BRANCH   1   4
ATOM      4  C3  <0> d           0.002  -0.004   0.002  0.00  0.00    -0.040 A 
ATOM      5  C1  <0> d          -0.019   1.526   0.010  0.00  0.00    -0.060 A 
ATOM      6  C2  <0> d           1.317   0.779  -0.006  0.00  0.00    -0.060 A 
ATOM      7  H1  <0> d          -0.307   2.020   0.938  0.00  0.00     0.033 H 
ATOM      8  H2  <0> d          -0.325   2.030  -0.906  0.00  0.00     0.033 H 
ATOM      9  H3  <0> d           1.889   0.792  -0.934  0.00  0.00     0.033 H 
ATOM     10  H4  <0> d           1.906   0.782   0.910  0.00  0.00     0.033 H 
ATOM     11  H5  <0> d          -0.290  -0.506  -0.920  0.00  0.00     0.041 H 
ENDBRANCH   1   4
BRANCH   1  12
ATOM     12  S1  <0> d          -0.429  -2.513   1.004  0.00  0.00     0.224 S 
ATOM     13  O1  <0> d          -1.503  -2.839   0.132  0.00  0.00    -0.206 OA
ATOM     14  O2  <0> d           0.881  -3.001   0.753  0.00  0.00    -0.206 OA
BRANCH  12  15
ATOM     15  N1  <0> d          -0.854  -3.172   2.462  0.00  0.00    -0.328 N 
ATOM     16  H8  <0> d          -1.353  -4.003   2.492  0.00  0.00     0.168 HD
ATOM     17  H9  <0> d          -0.603  -2.727   3.287  0.00  0.00     0.168 HD
ENDBRANCH  12  15
ENDBRANCH   1  12
TORSDOF 3
