REMARK  5 active torsions:
REMARK  status: ('A' for Active; 'I' for Inactive)
REMARK    1  A    between atoms: C1_1  and  C2_2 
REMARK    2  A    between atoms: C5_7  and  C8_12 
REMARK    3  A    between atoms: C7_9  and  O1_11 
REMARK    4  A    between atoms: C8_12  and  C9_13 
REMARK    5  A    between atoms: C8_12  and  C10_14 
ROOT
ATOM      1  C2  <0> d           2.312   0.719  -0.016  0.00  0.00    -0.028 C 
ATOM      2  H1  <0> d           3.201   0.851   0.601  0.00  0.00     0.043 H 
ATOM      3  C3  <0> d           1.450   1.998  -0.001  0.00  0.00    -0.040 A 
ATOM      4  H2  <0> d           1.778   2.832  -0.622  0.00  0.00     0.042 H 
ATOM      5  C4  <0> d           0.570   2.263   1.223  0.00  0.00    -0.053 A 
ATOM      6  C5  <0> d          -0.019   1.538   0.011  0.00  0.00    -0.031 A 
ATOM      7  C6  <0> d           0.002  -0.004   0.002  0.00  0.00    -0.033 C 
ATOM      8  C7  <0> d           1.389  -0.368   0.588  0.00  0.00     0.040 C 
ATOM      9  H3  <0> d           1.697  -1.362   0.262  0.00  0.00     0.083 H 
ATOM     10  H7  <0> d           0.250   3.290   1.399  0.00  0.00     0.034 H 
ATOM     11  H8  <0> d           0.762   1.671   2.117  0.00  0.00     0.034 H 
ATOM     12  H9  <0> d          -0.794  -0.400   0.632  0.00  0.00     0.037 H 
ATOM     13  H10 <0> d          -0.093  -0.381  -1.016  0.00  0.00     0.037 H 
ENDROOT
BRANCH   6  14
ATOM     14  C8  <0> d          -1.077   2.233  -0.849  0.00  0.00    -0.053 C 
ATOM     15  H12 <0> d          -0.791   2.170  -1.899  0.00  0.00     0.040 H 
BRANCH  14  16
ATOM     16  C9  <0> d          -2.429   1.548  -0.646  0.00  0.00    -0.072 C 
ATOM     17  H13 <0> d          -3.183   2.043  -1.259  0.00  0.00     0.028 H 
ATOM     18  H14 <0> d          -2.354   0.501  -0.939  0.00  0.00     0.028 H 
ATOM     19  H15 <0> d          -2.715   1.611   0.404  0.00  0.00     0.028 H 
ENDBRANCH  14  16
BRANCH  14  20
ATOM     20  C10 <0> d          -1.183   3.703  -0.438  0.00  0.00    -0.072 C 
ATOM     21  H16 <0> d          -0.220   4.191  -0.582  0.00  0.00     0.028 H 
ATOM     22  H17 <0> d          -1.937   4.198  -1.050  0.00  0.00     0.028 H 
ATOM     23  H18 <0> d          -1.469   3.767   0.612  0.00  0.00     0.028 H 
ENDBRANCH  14  20
ENDBRANCH   6  14
BRANCH   1  24
ATOM     24  C1  <0> d           2.705   0.351  -1.448  0.00  0.00    -0.070 C 
ATOM     25  H4  <0> d           1.806   0.243  -2.055  0.00  0.00     0.028 H 
ATOM     26  H5  <0> d           3.332   1.139  -1.866  0.00  0.00     0.028 H 
ATOM     27  H6  <0> d           3.256  -0.589  -1.444  0.00  0.00     0.028 H 
ENDBRANCH   1  24
BRANCH   8  28
ATOM     28  O1  <0> d           1.372  -0.288   2.015  0.00  0.00    -0.395 OA
ATOM     29  H11 <0> d           0.749  -0.896   2.436  0.00  0.00     0.210 HD
ENDBRANCH   8  28
TORSDOF 5
