REMARK  7 active torsions:
REMARK  status: ('A' for Active; 'I' for Inactive)
REMARK    1  A    between atoms: C1_1  and  C2_2 
REMARK    2  A    between atoms: C2_2  and  C3_3 
REMARK    3  A    between atoms: C3_3  and  C4_4 
REMARK    4  A    between atoms: C4_4  and  C5_6 
REMARK    5  A    between atoms: C4_4  and  C6_7 
REMARK    6  A    between atoms: C6_7  and  O2_9 
REMARK    7  A    between atoms: O2_9  and  C7_10 
ROOT
ATOM      1  C4  <0> d          -1.244  -2.135   0.003  0.00  0.00     0.027 C 
ATOM      2  H1  <0> d          -0.736  -2.523   0.886  0.00  0.00     0.054 H 
ENDROOT
BRANCH   1   3
ATOM      3  C3  <0> d          -2.705  -2.589   0.014  0.00  0.00    -0.054 C 
ATOM      4  H7  <0> d          -3.219  -2.139   0.863  0.00  0.00     0.034 H 
ATOM      5  H8  <0> d          -3.190  -2.277  -0.911  0.00  0.00     0.034 H 
BRANCH   3   6
ATOM      6  C2  <0> d          -2.765  -4.114   0.132  0.00  0.00    -0.068 C 
ATOM      7  H5  <0> d          -2.251  -4.564  -0.717  0.00  0.00     0.032 H 
ATOM      8  H6  <0> d          -2.280  -4.426   1.057  0.00  0.00     0.032 H 
BRANCH   6   9
ATOM      9  C1  <0> d          -4.226  -4.567   0.144  0.00  0.00    -0.076 C 
ATOM     10  H2  <0> d          -4.269  -5.653   0.228  0.00  0.00     0.027 H 
ATOM     11  H3  <0> d          -4.740  -4.117   0.993  0.00  0.00     0.027 H 
ATOM     12  H4  <0> d          -4.711  -4.255  -0.781  0.00  0.00     0.027 H 
ENDBRANCH   6   9
ENDBRANCH   3   6
ENDBRANCH   1   3
BRANCH   1  13
ATOM     13  C5  <0> d          -0.555  -2.666  -1.256  0.00  0.00    -0.064 C 
ATOM     14  H9  <0> d          -0.597  -3.756  -1.262  0.00  0.00     0.028 H 
ATOM     15  H10 <0> d          -1.063  -2.279  -2.139  0.00  0.00     0.028 H 
ATOM     16  H11 <0> d           0.486  -2.343  -1.264  0.00  0.00     0.028 H 
ENDBRANCH   1  13
BRANCH   1  17
ATOM     17  C6  <0> d          -1.185  -0.630   0.010  0.00  0.00     0.262 C 
ATOM     18  O1  <0> d          -2.208   0.015   0.023  0.00  0.00    -0.265 OA
BRANCH  17  19
ATOM     19  O2  <0> d           0.002  -0.004   0.002  0.00  0.00    -0.326 OA
BRANCH  19  20
ATOM     20  C7  <0> d          -0.018   1.448   0.010  0.00  0.00     0.013 C 
ATOM     21  H12 <0> d           1.005   1.825   0.002  0.00  0.00     0.067 H 
ATOM     22  H13 <0> d          -0.545   1.809  -0.873  0.00  0.00     0.067 H 
ATOM     23  H14 <0> d          -0.528   1.799   0.907  0.00  0.00     0.067 H 
ENDBRANCH  19  20
ENDBRANCH  17  19
ENDBRANCH   1  17
TORSDOF 7
