REMARK  5 active torsions:
REMARK  status: ('A' for Active; 'I' for Inactive)
REMARK    1  A    between atoms: C3_3  and  C7_9 
REMARK    2  A    between atoms: C4_4  and  O2_8 
REMARK    3  A    between atoms: C6_6  and  O1_7 
REMARK    4  A    between atoms: C7_9  and  C8_10 
REMARK    5  A    between atoms: C8_10  and  O3_11 
ROOT
ATOM      1  C1  <0> d           1.862   1.822   1.195  0.00  0.00    -0.050 A 
ATOM      2  C2  <0> d           3.119   2.396   1.187  0.00  0.00    -0.071 A 
ATOM      3  C3  <0> d           3.738   2.693  -0.012  0.00  0.00    -0.023 A 
ATOM      4  C4  <0> d           3.100   2.411  -1.212  0.00  0.00     0.074 A 
ATOM      5  C5  <0> d           1.841   1.830  -1.206  0.00  0.00    -0.019 A 
ATOM      6  C6  <0> d           1.223   1.532  -0.001  0.00  0.00     0.068 A 
ATOM      7  H1  <0> d           1.379   1.595   2.134  0.00  0.00     0.087 H 
ATOM      8  H2  <0> d           3.617   2.617   2.120  0.00  0.00     0.084 H 
ATOM      9  H3  <0> d           1.343   1.609  -2.139  0.00  0.00     0.092 H 
ENDROOT
BRANCH   3  10
ATOM     10  C7  <0> d           5.106   3.324  -0.017  0.00  0.00    -0.019 C 
ATOM     11  H6  <0> d           5.624   3.076   0.909  0.00  0.00     0.043 H 
ATOM     12  H7  <0> d           5.677   2.947  -0.866  0.00  0.00     0.043 H 
BRANCH  10  13
ATOM     13  C8  <0> d           4.967   4.844  -0.132  0.00  0.00     0.021 C 
ATOM     14  H8  <0> d           4.449   5.092  -1.059  0.00  0.00     0.074 H 
ATOM     15  H9  <0> d           4.396   5.221   0.716  0.00  0.00     0.074 H 
BRANCH  13  16
ATOM     16  O3  <0> d           6.264   5.442  -0.138  0.00  0.00    -0.401 OA
ATOM     17  H10 <0> d           6.253   6.406  -0.208  0.00  0.00     0.209 HD
ENDBRANCH  13  16
ENDBRANCH  10  13
ENDBRANCH   3  10
BRANCH   4  18
ATOM     18  O2  <0> d           3.709   2.703  -2.391  0.00  0.00    -0.360 OA
ATOM     19  H5  <0> d           3.515   3.589  -2.725  0.00  0.00     0.217 HD
ENDBRANCH   4  18
BRANCH   6  20
ATOM     20  O1  <0> d          -0.011   0.963   0.007  0.00  0.00    -0.361 OA
ATOM     21  H4  <0> d           0.002  -0.004   0.002  0.00  0.00     0.217 HD
ENDBRANCH   6  20
TORSDOF 5
