REMARK  3 active torsions:
REMARK  status: ('A' for Active; 'I' for Inactive)
REMARK    1  A    between atoms: C1_1  and  N1_2 
REMARK       I    between atoms: N1_2  and  C2_3 
REMARK    2  A    between atoms: C2_3  and  C3_5 
REMARK    3  A    between atoms: C3_5  and  C4_6 
ROOT
ATOM      1  C4  <0> d           1.311  -2.657  -2.266  0.00  0.00    -0.050 A 
ATOM      2  C5  <0> d           0.593  -2.886  -3.425  0.00  0.00    -0.076 A 
ATOM      3  C6  <0> d           1.240  -3.332  -4.562  0.00  0.00    -0.082 A 
ATOM      4  C7  <0> d           2.605  -3.549  -4.541  0.00  0.00    -0.083 A 
ATOM      5  C8  <0> d           3.323  -3.319  -3.382  0.00  0.00    -0.082 A 
ATOM      6  C9  <0> d           2.677  -2.869  -2.246  0.00  0.00    -0.076 A 
ATOM      7  H7  <0> d          -0.473  -2.716  -3.442  0.00  0.00     0.084 H 
ATOM      8  H8  <0> d           0.679  -3.511  -5.468  0.00  0.00     0.083 H 
ATOM      9  H9  <0> d           3.110  -3.897  -5.429  0.00  0.00     0.083 H 
ATOM     10  H10 <0> d           4.389  -3.489  -3.365  0.00  0.00     0.083 H 
ATOM     11  H11 <0> d           3.238  -2.687  -1.342  0.00  0.00     0.084 H 
ENDROOT
BRANCH   1  12
ATOM     12  C3  <0> d           0.606  -2.171  -1.026  0.00  0.00     0.033 C 
ATOM     13  H5  <0> d           1.133  -2.532  -0.143  0.00  0.00     0.054 H 
ATOM     14  H6  <0> d          -0.417  -2.549  -1.018  0.00  0.00     0.054 H 
BRANCH  12  15
ATOM     15  C2  <0> d           0.585  -0.664  -1.018  0.00  0.00     0.221 C 
ATOM     16  N1  <0> d           0.002  -0.004   0.002  0.00  0.00    -0.365 N 
ATOM     17  H4  <0> d          -0.404  -0.499   0.731  0.00  0.00     0.161 HD
ATOM     18  O1  <0> d           1.093  -0.046  -1.929  0.00  0.00    -0.273 OA
BRANCH  16  19
ATOM     19  C1  <0> d          -0.018   1.461   0.010  0.00  0.00    -0.018 C 
ATOM     20  H1  <0> d           1.005   1.838   0.002  0.00  0.00     0.056 H 
ATOM     21  H2  <0> d          -0.545   1.822  -0.873  0.00  0.00     0.056 H 
ATOM     22  H3  <0> d          -0.528   1.812   0.907  0.00  0.00     0.056 H 
ENDBRANCH  16  19
ENDBRANCH  12  15
ENDBRANCH   1  12
TORSDOF 3
