REMARK  7 active torsions:
REMARK  status: ('A' for Active; 'I' for Inactive)
REMARK    1  A    between atoms: C1_1  and  C2_2 
REMARK    2  A    between atoms: C2_2  and  C3_3 
REMARK    3  A    between atoms: C2_2  and  C4_4 
REMARK    4  A    between atoms: C4_4  and  C5_5 
REMARK    5  A    between atoms: C4_4  and  C6_6 
REMARK    6  A    between atoms: C4_4  and  O1_9 
REMARK    7  A    between atoms: C6_6  and  C8_8 
ROOT
ATOM      1  C4  <0> d           0.002  -0.004   0.002  0.00  0.00     0.079 C 
ENDROOT
BRANCH   1   2
ATOM      2  C2  <0> d           0.718  -0.497  -1.257  0.00  0.00    -0.028 C 
ATOM      3  H4  <0> d           0.191  -0.136  -2.140  0.00  0.00     0.043 H 
BRANCH   2   4
ATOM      4  C1  <0> d           2.154   0.032  -1.268  0.00  0.00    -0.070 C 
ATOM      5  H1  <0> d           2.681  -0.329  -0.385  0.00  0.00     0.028 H 
ATOM      6  H2  <0> d           2.664  -0.319  -2.164  0.00  0.00     0.028 H 
ATOM      7  H3  <0> d           2.139   1.122  -1.262  0.00  0.00     0.028 H 
ENDBRANCH   2   4
BRANCH   2   8
ATOM      8  C3  <0> d           0.739  -2.027  -1.265  0.00  0.00    -0.070 C 
ATOM      9  H5  <0> d           1.266  -2.388  -0.382  0.00  0.00     0.028 H 
ATOM     10  H6  <0> d          -0.284  -2.405  -1.258  0.00  0.00     0.028 H 
ATOM     11  H7  <0> d           1.249  -2.379  -2.162  0.00  0.00     0.028 H 
ENDBRANCH   2   8
ENDBRANCH   1   2
BRANCH   1  12
ATOM     12  C5  <0> d          -0.019   1.526   0.010  0.00  0.00    -0.044 C 
ATOM     13  H8  <0> d           1.004   1.903   0.003  0.00  0.00     0.032 H 
ATOM     14  H9  <0> d          -0.546   1.887  -0.873  0.00  0.00     0.032 H 
ATOM     15  H10 <0> d          -0.529   1.877   0.907  0.00  0.00     0.032 H 
ENDBRANCH   1  12
BRANCH   1  16
ATOM     16  C6  <0> d          -1.412  -0.526   0.013  0.00  0.00    -0.059 C 
ATOM     17  C7  <0> d          -1.821  -1.290   0.995  0.00  0.00    -0.117 C 
ATOM     18  H11 <0> d          -1.144  -1.546   1.797  0.00  0.00     0.067 H 
ATOM     19  H12 <0> d          -2.834  -1.664   1.003  0.00  0.00     0.067 H 
BRANCH  16  20
ATOM     20  C8  <0> d          -2.355  -0.168  -1.107  0.00  0.00    -0.052 C 
ATOM     21  H13 <0> d          -2.280  -0.914  -1.898  0.00  0.00     0.033 H 
ATOM     22  H14 <0> d          -3.377  -0.143  -0.727  0.00  0.00     0.033 H 
ATOM     23  H15 <0> d          -2.092   0.812  -1.505  0.00  0.00     0.033 H 
ENDBRANCH  16  20
ENDBRANCH   1  16
BRANCH   1  24
ATOM     24  O1  <0> d           0.693  -0.477   1.160  0.00  0.00    -0.385 OA
ATOM     25  H16 <0> d           0.745  -1.441   1.220  0.00  0.00     0.211 HD
ENDBRANCH   1  24
TORSDOF 7
