REMARK  5 active torsions:
REMARK  status: ('A' for Active; 'I' for Inactive)
REMARK    1  A    between atoms: C1_1  and  C2_2 
REMARK    2  A    between atoms: C2_2  and  C3_3 
REMARK    3  A    between atoms: C3_3  and  C4_4 
REMARK    4  A    between atoms: C4_4  and  C5_6 
REMARK    5  A    between atoms: C4_4  and  O1_12 
ROOT
ATOM      1  C4  <0> d           1.151   3.592   0.010  0.00  0.00     0.061 C 
ATOM      2  H1  <0> d           0.177   3.944  -0.331  0.00  0.00     0.090 H 
ENDROOT
BRANCH   1   3
ATOM      3  C3  <0> d           1.407   4.098   1.431  0.00  0.00    -0.037 C 
ATOM      4  H7  <0> d           0.684   3.651   2.112  0.00  0.00     0.037 H 
ATOM      5  H8  <0> d           2.416   3.822   1.738  0.00  0.00     0.037 H 
BRANCH   3   6
ATOM      6  C2  <0> d           1.263   5.621   1.464  0.00  0.00    -0.066 C 
ATOM      7  H5  <0> d           1.986   6.069   0.782  0.00  0.00     0.032 H 
ATOM      8  H6  <0> d           0.255   5.898   1.156  0.00  0.00     0.032 H 
BRANCH   6   9
ATOM      9  C1  <0> d           1.520   6.128   2.884  0.00  0.00    -0.076 C 
ATOM     10  H2  <0> d           1.418   7.212   2.908  0.00  0.00     0.027 H 
ATOM     11  H3  <0> d           0.797   5.679   3.566  0.00  0.00     0.027 H 
ATOM     12  H4  <0> d           2.529   5.851   3.192  0.00  0.00     0.027 H 
ENDBRANCH   6   9
ENDBRANCH   3   6
ENDBRANCH   1   3
BRANCH   1  13
ATOM     13  C5  <0> d           1.171   2.086   0.002  0.00  0.00    -0.030 A 
ATOM     14  C10 <0> d           2.377   1.411  -0.014  0.00  0.00    -0.074 A 
ATOM     15  C9  <0> d           2.396   0.029  -0.021  0.00  0.00    -0.082 A 
ATOM     16  H13 <0> d           3.305   1.963  -0.019  0.00  0.00     0.084 H 
ATOM     17  C8  <0> d           1.208  -0.679  -0.014  0.00  0.00    -0.083 A 
ATOM     18  H12 <0> d           3.339  -0.499  -0.033  0.00  0.00     0.083 H 
ATOM     19  C7  <0> d           0.002  -0.004   0.002  0.00  0.00    -0.082 A 
ATOM     20  H11 <0> d           1.223  -1.759  -0.020  0.00  0.00     0.083 H 
ATOM     21  C6  <0> d          -0.017   1.378   0.010  0.00  0.00    -0.074 A 
ATOM     22  H10 <0> d          -0.926  -0.557   0.008  0.00  0.00     0.083 H 
ATOM     23  H9  <0> d          -0.959   1.905   0.017  0.00  0.00     0.084 H 
ENDBRANCH   1  13
BRANCH   1  24
ATOM     24  O1  <0> d           2.168   4.087  -0.863  0.00  0.00    -0.391 OA
ATOM     25  H14 <0> d           3.063   3.813  -0.620  0.00  0.00     0.210 HD
ENDBRANCH   1  24
TORSDOF 5
