REMARK  0 active torsions:
REMARK  status: ('A' for Active; 'I' for Inactive)
ROOT
ATOM      1  C1  <0> d           1.175   1.793   0.001  0.00  0.00    -0.081 A 
ATOM      2  C2  <0> d          -0.013   1.076   0.008  0.00  0.00    -0.082 A 
ATOM      3  C3  <0> d          -1.215   1.758   0.017  0.00  0.00    -0.064 A 
ATOM      4  C4  <0> d          -1.212   3.131   0.029  0.00  0.00     0.038 A 
ATOM      5  C5  <0> d          -0.019   3.890   0.022  0.00  0.00     0.077 A 
ATOM      6  C6  <0> d           1.188   3.153   0.007  0.00  0.00    -0.054 A 
ATOM      7  N1  <0> d          -0.180   5.231   0.030  0.00  0.00    -0.213 NA
ATOM      8  C7  <0> d          -1.357   5.800   0.044  0.00  0.00     0.253 A 
ATOM      9  S1  <0> d          -2.461   4.394   0.048  0.00  0.00    -0.038 SA
ATOM     10  F1  <0> d          -1.662   7.116   0.053  0.00  0.00    -0.176 F 
ATOM     11  H1  <0> d           2.113   1.258  -0.011  0.00  0.00     0.083 H 
ATOM     12  H2  <0> d           0.002  -0.004   0.002  0.00  0.00     0.083 H 
ATOM     13  H3  <0> d          -2.149   1.216   0.019  0.00  0.00     0.085 H 
ATOM     14  H4  <0> d           2.132   3.677   0.001  0.00  0.00     0.087 H 
ENDROOT
TORSDOF 0
