REMARK  1 active torsions:
REMARK  status: ('A' for Active; 'I' for Inactive)
REMARK    1  A    between atoms: C1_1  and  C2_2 
ROOT
ATOM      1  C2  <0> d          -0.729   1.579   1.267  0.00  0.00    -0.047 C 
ATOM      2  H1  <0> d          -1.752   1.203   1.276  0.00  0.00     0.040 H 
ATOM      3  C3  <0> d           0.013   1.077   2.509  0.00  0.00    -0.041 C 
ATOM      4  C4  <0> d          -0.704   1.578   3.766  0.00  0.00     0.029 C 
ATOM      5  O1  <0> d          -0.762   3.032   3.736  0.00  0.00    -0.321 OA
ATOM      6  C5  <0> d          -1.287   3.572   2.616  0.00  0.00     0.259 C 
ATOM      7  O2  <0> d          -2.166   4.399   2.678  0.00  0.00    -0.265 OA
ATOM      8  C6  <0> d          -0.746   3.113   1.280  0.00  0.00     0.019 C 
ATOM      9  H5  <0> d           0.028  -0.013   2.509  0.00  0.00     0.036 H 
ATOM     10  H6  <0> d           1.036   1.455   2.499  0.00  0.00     0.036 H 
ATOM     11  H7  <0> d          -1.715   1.173   3.793  0.00  0.00     0.075 H 
ATOM     12  H8  <0> d          -0.157   1.254   4.651  0.00  0.00     0.075 H 
ATOM     13  H9  <0> d           0.267   3.492   1.145  0.00  0.00     0.048 H 
ATOM     14  H10 <0> d          -1.386   3.479   0.477  0.00  0.00     0.048 H 
ENDROOT
BRANCH   1  15
ATOM     15  C1  <0> d          -0.013   1.086   0.008  0.00  0.00    -0.072 C 
ATOM     16  H2  <0> d           0.002  -0.004   0.002  0.00  0.00     0.028 H 
ATOM     17  H3  <0> d           1.010   1.463   0.000  0.00  0.00     0.028 H 
ATOM     18  H4  <0> d          -0.540   1.447  -0.875  0.00  0.00     0.028 H 
ENDBRANCH   1  15
TORSDOF 1
