REMARK  3 active torsions:
REMARK  status: ('A' for Active; 'I' for Inactive)
REMARK    1  A    between atoms: N1_3  and  C4_6 
REMARK    2  A    between atoms: C4_6  and  C5_7 
REMARK    3  A    between atoms: C5_7  and  C6_8 
REMARK       I    between atoms: C6_8  and  N3_10 
ROOT
ATOM      1  C4  <0> d          -0.729   1.579   1.267  0.00  0.00     0.008 C 
ATOM      2  H4  <0> d          -0.744   2.669   1.273  0.00  0.00     0.065 H 
ATOM      3  H5  <0> d          -1.751   1.202   1.275  0.00  0.00     0.065 H 
ENDROOT
BRANCH   1   4
ATOM      4  N1  <0> d          -0.020   1.094   2.454  0.00  0.00    -0.350 N 
ATOM      5  C2  <0> d          -0.255  -0.081   3.116  0.00  0.00    -0.003 A 
ATOM      6  C1  <0> d           0.618  -0.132   4.140  0.00  0.00     0.018 A 
ATOM      7  H2  <0> d          -0.996  -0.825   2.864  0.00  0.00     0.113 H 
ATOM      8  N2  <0> d           1.359   0.986   4.110  0.00  0.00    -0.255 NA
ATOM      9  H1  <0> d           0.703  -0.930   4.862  0.00  0.00     0.117 H 
ATOM     10  C3  <0> d           0.982   1.725   3.102  0.00  0.00     0.065 A 
ATOM     11  H3  <0> d           1.403   2.682   2.831  0.00  0.00     0.143 H 
ENDBRANCH   1   4
BRANCH   1  12
ATOM     12  C5  <0> d          -0.013   1.086   0.008  0.00  0.00     0.024 C 
ATOM     13  H6  <0> d           0.002  -0.004   0.002  0.00  0.00     0.049 H 
ATOM     14  H7  <0> d           1.010   1.463   0.000  0.00  0.00     0.049 H 
BRANCH  12  15
ATOM     15  C6  <0> d          -0.742   1.585  -1.213  0.00  0.00     0.216 C 
ATOM     16  O1  <0> d          -1.736   2.268  -1.088  0.00  0.00    -0.274 OA
ATOM     17  N3  <0> d          -0.288   1.272  -2.443  0.00  0.00    -0.370 N 
ATOM     18  H8  <0> d           0.507   0.726  -2.543  0.00  0.00     0.159 HD
ATOM     19  H9  <0> d          -0.758   1.594  -3.229  0.00  0.00     0.159 HD
ENDBRANCH  12  15
ENDBRANCH   1  12
TORSDOF 3
