REMARK  3 active torsions:
REMARK  status: ('A' for Active; 'I' for Inactive)
REMARK    1  A    between atoms: C1_1  and  C2_2 
REMARK    2  A    between atoms: C5_5  and  C6_7 
REMARK    3  A    between atoms: C6_7  and  C7_9 
ROOT
ATOM      1  C2  <0> d           1.240   1.808  -0.000  0.00  0.00     0.050 A 
ATOM      2  C3  <0> d           2.096   0.761  -0.014  0.00  0.00    -0.052 A 
ATOM      3  C4  <0> d           1.322  -0.407  -0.013  0.00  0.00    -0.044 A 
ATOM      4  C5  <0> d           0.002  -0.004   0.002  0.00  0.00     0.121 A 
ATOM      5  O1  <0> d          -0.016   1.346   0.009  0.00  0.00    -0.312 OA
ATOM      6  H4  <0> d           3.175   0.815  -0.024  0.00  0.00     0.087 H 
ATOM      7  H5  <0> d           1.687  -1.424  -0.021  0.00  0.00     0.088 H 
ENDROOT
BRANCH   4   8
ATOM      8  C6  <0> d          -1.128  -0.853   0.009  0.00  0.00     0.179 C 
ATOM      9  O2  <0> d          -0.982  -2.058   0.001  0.00  0.00    -0.291 OA
BRANCH   8  10
ATOM     10  C7  <0> d          -2.514  -0.261   0.025  0.00  0.00    -0.015 C 
ATOM     11  H6  <0> d          -2.830  -0.126  -0.914  0.00  0.00     0.038 H 
ATOM     12  H7  <0> d          -3.192  -0.940   0.542  0.00  0.00     0.038 H 
ATOM     13  H8  <0> d          -2.494   0.697   0.543  0.00  0.00     0.038 H 
ENDBRANCH   8  10
ENDBRANCH   4   8
BRANCH   1  14
ATOM     14  C1  <0> d           1.636   3.262   0.004  0.00  0.00    -0.031 C 
ATOM     15  H1  <0> d           0.741   3.883   0.015  0.00  0.00     0.036 H 
ATOM     16  H2  <0> d           2.236   3.473   0.889  0.00  0.00     0.036 H 
ATOM     17  H3  <0> d           2.219   3.482  -0.891  0.00  0.00     0.036 H 
ENDBRANCH   1  14
TORSDOF 3
