REMARK  2 active torsions:
REMARK  status: ('A' for Active; 'I' for Inactive)
REMARK    1  A    between atoms: C1_1  and  C2_2 
REMARK    2  A    between atoms: N2_10  and  N3_11 
ROOT
ATOM      1  C2  <0> d           2.128   4.144   0.003  0.00  0.00     0.058 A 
ATOM      2  C3  <0> d           1.154   3.164   0.008  0.00  0.00     0.020 A 
ATOM      3  C4  <0> d           1.163   1.752   0.000  0.00  0.00    -0.069 A 
ATOM      4  C5  <0> d          -0.013   1.076   0.008  0.00  0.00    -0.082 A 
ATOM      5  C6  <0> d          -1.242   1.739   0.018  0.00  0.00    -0.081 A 
ATOM      6  C7  <0> d          -1.323   3.093   0.031  0.00  0.00    -0.053 A 
ATOM      7  C8  <0> d          -0.140   3.863   0.024  0.00  0.00     0.090 A 
ATOM      8  N1  <0> d           0.126   5.157   0.028  0.00  0.00    -0.156 NA
ATOM      9  N2  <0> d           1.514   5.335   0.015  0.00  0.00    -0.202 N 
ATOM     10  H4  <0> d           2.100   1.215  -0.011  0.00  0.00     0.085 H 
ATOM     11  H5  <0> d           0.002  -0.004   0.002  0.00  0.00     0.083 H 
ATOM     12  H6  <0> d          -2.152   1.158   0.019  0.00  0.00     0.083 H 
ATOM     13  H7  <0> d          -2.288   3.579   0.043  0.00  0.00     0.087 H 
ENDROOT
BRANCH   1  14
ATOM     14  C1  <0> d           3.617   3.915  -0.012  0.00  0.00    -0.034 C 
ATOM     15  H1  <0> d           3.967   3.865  -1.043  0.00  0.00     0.035 H 
ATOM     16  H2  <0> d           4.117   4.737   0.501  0.00  0.00     0.035 H 
ATOM     17  H3  <0> d           3.846   2.978   0.495  0.00  0.00     0.035 H 
ENDBRANCH   1  14
BRANCH   9  18
ATOM     18  N3  <0> d           2.148   6.545   0.015  0.00  0.00    -0.226 NA
ATOM     19  H8  <0> d           2.325   6.860   0.957  0.00  0.00     0.145 HD
ATOM     20  H9  <0> d           3.003   6.505  -0.519  0.00  0.00     0.145 HD
ENDBRANCH   9  18
TORSDOF 2
