REMARK  5 active torsions:
REMARK  status: ('A' for Active; 'I' for Inactive)
REMARK    1  A    between atoms: C1_1  and  C2_2 
REMARK    2  A    between atoms: C2_2  and  O1_3 
REMARK    3  A    between atoms: O1_3  and  C3_4 
REMARK    4  A    between atoms: C3_4  and  C4_6 
REMARK    5  A    between atoms: N1_9  and  C7_11 
ROOT
ATOM      1  C4  <0> d           1.102   1.948   0.002  0.00  0.00     0.153 A 
ATOM      2  C5  <0> d          -0.013   1.076   0.008  0.00  0.00    -0.031 A 
ATOM      3  C6  <0> d          -1.101   1.880   0.017  0.00  0.00     0.000 A 
ATOM      4  N1  <0> d          -0.656   3.155   0.025  0.00  0.00    -0.285 N 
ATOM      5  N2  <0> d           0.628   3.178   0.013  0.00  0.00    -0.167 NA
ATOM      6  H6  <0> d           0.002  -0.004   0.002  0.00  0.00     0.089 H 
ATOM      7  H7  <0> d          -2.133   1.562   0.019  0.00  0.00     0.114 H 
ENDROOT
BRANCH   1   8
ATOM      8  C3  <0> d           2.525   1.555  -0.013  0.00  0.00     0.313 C 
ATOM      9  O2  <0> d           2.830   0.379  -0.022  0.00  0.00    -0.257 OA
BRANCH   8  10
ATOM     10  O1  <0> d           3.485   2.500  -0.017  0.00  0.00    -0.317 OA
BRANCH  10  11
ATOM     11  C2  <0> d           4.862   2.041  -0.033  0.00  0.00     0.026 C 
ATOM     12  H4  <0> d           5.053   1.434   0.853  0.00  0.00     0.074 H 
ATOM     13  H5  <0> d           5.036   1.443  -0.927  0.00  0.00     0.074 H 
BRANCH  11  14
ATOM     14  C1  <0> d           5.803   3.248  -0.035  0.00  0.00    -0.056 C 
ATOM     15  H1  <0> d           6.836   2.903  -0.047  0.00  0.00     0.030 H 
ATOM     16  H2  <0> d           5.612   3.854  -0.920  0.00  0.00     0.030 H 
ATOM     17  H3  <0> d           5.629   3.845   0.860  0.00  0.00     0.030 H 
ENDBRANCH  11  14
ENDBRANCH  10  11
ENDBRANCH   8  10
ENDBRANCH   1   8
BRANCH   4  18
ATOM     18  C7  <0> d          -1.515   4.342   0.038  0.00  0.00     0.002 C 
ATOM     19  H8  <0> d          -1.737   4.642  -0.986  0.00  0.00     0.059 H 
ATOM     20  H9  <0> d          -2.444   4.112   0.559  0.00  0.00     0.059 H 
ATOM     21  H10 <0> d          -1.002   5.156   0.551  0.00  0.00     0.059 H 
ENDBRANCH   4  18
TORSDOF 5
