REMARK  8 active torsions:
REMARK  status: ('A' for Active; 'I' for Inactive)
REMARK    1  A    between atoms: C1_1  and  C2_2 
REMARK    2  A    between atoms: C1_1  and  C3_4 
REMARK    3  A    between atoms: C2_2  and  O1_3 
REMARK    4  A    between atoms: C3_4  and  O2_5 
REMARK    5  A    between atoms: O2_5  and  C4_6 
REMARK    6  A    between atoms: C4_6  and  C5_7 
REMARK    7  A    between atoms: C5_7  and  C6_8 
REMARK    8  A    between atoms: C6_8  and  O3_9 
ROOT
ATOM      1  O2  <0> d           2.402   5.149   0.007  0.00  0.00    -0.391 OA
ENDROOT
BRANCH   1   2
ATOM      2  C3  <0> d           2.534   3.726  -0.002  0.00  0.00     0.021 C 
ATOM      3  H6  <0> d           3.088   3.407   0.881  0.00  0.00     0.074 H 
ATOM      4  H7  <0> d           3.071   3.417  -0.899  0.00  0.00     0.074 H 
BRANCH   2   5
ATOM      5  C1  <0> d           1.145   3.085   0.008  0.00  0.00    -0.026 C 
ATOM      6  H1  <0> d           0.591   3.404  -0.875  0.00  0.00     0.039 H 
ATOM      7  H2  <0> d           0.608   3.395   0.904  0.00  0.00     0.039 H 
BRANCH   5   8
ATOM      8  C2  <0> d           1.286   1.562  -0.002  0.00  0.00     0.019 C 
ATOM      9  H3  <0> d           1.840   1.243   0.881  0.00  0.00     0.074 H 
ATOM     10  H4  <0> d           1.823   1.252  -0.899  0.00  0.00     0.074 H 
BRANCH   8  11
ATOM     11  O1  <0> d          -0.011   0.963   0.007  0.00  0.00    -0.401 OA
ATOM     12  H5  <0> d           0.002  -0.004   0.002  0.00  0.00     0.209 HD
ENDBRANCH   8  11
ENDBRANCH   5   8
ENDBRANCH   2   5
ENDBRANCH   1   2
BRANCH   1  13
ATOM     13  C4  <0> d           3.648   5.849  -0.001  0.00  0.00     0.021 C 
ATOM     14  H8  <0> d           4.225   5.574   0.882  0.00  0.00     0.074 H 
ATOM     15  H9  <0> d           4.208   5.583  -0.898  0.00  0.00     0.074 H 
BRANCH  13  16
ATOM     16  C5  <0> d           3.387   7.356   0.009  0.00  0.00    -0.026 C 
ATOM     17  H10 <0> d           2.810   7.631  -0.874  0.00  0.00     0.039 H 
ATOM     18  H11 <0> d           2.827   7.622   0.906  0.00  0.00     0.039 H 
BRANCH  16  19
ATOM     19  C6  <0> d           4.721   8.105   0.001  0.00  0.00     0.019 C 
ATOM     20  H12 <0> d           5.298   7.830   0.884  0.00  0.00     0.074 H 
ATOM     21  H13 <0> d           5.280   7.840  -0.896  0.00  0.00     0.074 H 
BRANCH  19  22
ATOM     22  O3  <0> d           4.477   9.513   0.010  0.00  0.00    -0.401 OA
ATOM     23  H14 <0> d           5.280  10.052   0.006  0.00  0.00     0.209 HD
ENDBRANCH  19  22
ENDBRANCH  16  19
ENDBRANCH  13  16
ENDBRANCH   1  13
TORSDOF 8
