REMARK  4 active torsions:
REMARK  status: ('A' for Active; 'I' for Inactive)
REMARK    1  A    between atoms: C1_1  and  O1_2 
REMARK    2  A    between atoms: O1_2  and  C2_3 
REMARK    3  A    between atoms: C2_3  and  C3_5 
REMARK    4  A    between atoms: C4_6  and  N3_11 
ROOT
ATOM      1  C3  <0> d           2.346   1.291  -0.005  0.00  0.00     0.176 A 
ATOM      2  C4  <0> d           2.216  -0.108  -0.001  0.00  0.00     0.156 A 
ATOM      3  N1  <0> d           1.006  -0.656  -0.001  0.00  0.00    -0.240 NA
ATOM      4  C5  <0> d          -0.067   0.115  -0.004  0.00  0.00     0.021 A 
ATOM      5  C6  <0> d           0.062   1.496  -0.008  0.00  0.00     0.020 A 
ATOM      6  N2  <0> d           1.256   2.053  -0.008  0.00  0.00    -0.250 NA
ATOM      7  H4  <0> d          -1.050  -0.333  -0.004  0.00  0.00     0.117 H 
ATOM      8  H5  <0> d          -0.821   2.118  -0.015  0.00  0.00     0.117 H 
ENDROOT
BRANCH   1   9
ATOM      9  C2  <0> d           3.685   1.911  -0.005  0.00  0.00     0.315 C 
ATOM     10  O2  <0> d           4.676   1.216  -0.104  0.00  0.00    -0.257 OA
BRANCH   9  11
ATOM     11  O1  <0> d           3.808   3.249   0.105  0.00  0.00    -0.321 OA
BRANCH  11  12
ATOM     12  C1  <0> d           5.155   3.789   0.098  0.00  0.00     0.013 C 
ATOM     13  H1  <0> d           5.648   3.526  -0.838  0.00  0.00     0.067 H 
ATOM     14  H2  <0> d           5.112   4.875   0.193  0.00  0.00     0.067 H 
ATOM     15  H3  <0> d           5.718   3.374   0.934  0.00  0.00     0.067 H 
ENDBRANCH  11  12
ENDBRANCH   9  11
ENDBRANCH   1   9
BRANCH   2  16
ATOM     16  N3  <0> d           3.341  -0.910   0.003  0.00  0.00    -0.382 N 
ATOM     17  H6  <0> d           3.251  -1.873   0.084  0.00  0.00     0.157 HD
ATOM     18  H7  <0> d           4.222  -0.511  -0.077  0.00  0.00     0.157 HD
ENDBRANCH   2  16
TORSDOF 4
