REMARK  3 active torsions:
REMARK  status: ('A' for Active; 'I' for Inactive)
REMARK    1  A    between atoms: C1_1  and  C2_2 
REMARK    2  A    between atoms: C3_3  and  C5_9 
REMARK    3  A    between atoms: C4_4  and  N3_8 
REMARK       I    between atoms: C5_9  and  N4_11 
ROOT
ATOM      1  C2  <0> d           0.002  -0.004   0.002  0.00  0.00     0.070 A 
ATOM      2  C3  <0> d           0.008  -0.828  -1.149  0.00  0.00     0.102 A 
ATOM      3  C4  <0> d           0.029  -2.147  -0.704  0.00  0.00     0.133 A 
ATOM      4  N1  <0> d           0.034  -2.112   0.644  0.00  0.00    -0.262 N 
ATOM      5  H1  <0> d           0.048  -2.883   1.232  0.00  0.00     0.191 HD
ATOM      6  N2  <0> d           0.023  -0.774   1.053  0.00  0.00    -0.177 NA
ENDROOT
BRANCH   2   7
ATOM      7  C5  <0> d          -0.005  -0.377  -2.545  0.00  0.00     0.255 C 
ATOM      8  O1  <0> d           1.043  -0.175  -3.130  0.00  0.00    -0.268 OA
ATOM      9  N4  <0> d          -1.178  -0.186  -3.181  0.00  0.00    -0.366 N 
ATOM     10  H7  <0> d          -2.014  -0.347  -2.715  0.00  0.00     0.159 HD
ATOM     11  H8  <0> d          -1.187   0.112  -4.104  0.00  0.00     0.159 HD
ENDBRANCH   2   7
BRANCH   1  12
ATOM     12  C1  <0> d          -0.018   1.503   0.010  0.00  0.00    -0.033 C 
ATOM     13  H2  <0> d           1.004   1.880   0.003  0.00  0.00     0.035 H 
ATOM     14  H3  <0> d          -0.545   1.864  -0.873  0.00  0.00     0.035 H 
ATOM     15  H4  <0> d          -0.529   1.854   0.907  0.00  0.00     0.035 H 
ENDBRANCH   1  12
BRANCH   3  16
ATOM     16  N3  <0> d           0.041  -3.279  -1.494  0.00  0.00    -0.384 N 
ATOM     17  H5  <0> d           0.035  -3.196  -2.460  0.00  0.00     0.157 HD
ATOM     18  H6  <0> d           0.055  -4.157  -1.083  0.00  0.00     0.157 HD
ENDBRANCH   3  16
TORSDOF 3
