REMARK  5 active torsions:
REMARK  status: ('A' for Active; 'I' for Inactive)
REMARK    1  A    between atoms: C1_1  and  C2_2 
REMARK    2  A    between atoms: C4_4  and  O2_10 
REMARK    3  A    between atoms: C7_7  and  C8_8 
REMARK    4  A    between atoms: C8_8  and  O1_9 
REMARK    5  A    between atoms: O2_10  and  C9_11 
ROOT
ATOM      1  C2  <0> d          -0.203   1.222   4.776  0.00  0.00    -0.051 A 
ATOM      2  C3  <0> d          -0.747   1.594   3.561  0.00  0.00    -0.044 A 
ATOM      3  C4  <0> d          -0.149   1.182   2.380  0.00  0.00     0.068 A 
ATOM      4  C5  <0> d           0.991   0.392   2.421  0.00  0.00    -0.050 A 
ATOM      5  C6  <0> d           1.534   0.028   3.637  0.00  0.00    -0.072 A 
ATOM      6  C7  <0> d           0.936   0.440   4.814  0.00  0.00    -0.029 A 
ATOM      7  H4  <0> d          -1.637   2.205   3.532  0.00  0.00     0.088 H 
ATOM      8  H5  <0> d           1.456   0.066   1.502  0.00  0.00     0.087 H 
ATOM      9  H6  <0> d           2.424  -0.583   3.670  0.00  0.00     0.084 H 
ENDROOT
BRANCH   3  10
ATOM     10  O2  <0> d          -0.682   1.547   1.184  0.00  0.00    -0.356 OA
BRANCH  10  11
ATOM     11  C9  <0> d          -0.013   1.086   0.008  0.00  0.00     0.010 C 
ATOM     12  H10 <0> d           0.002  -0.004   0.002  0.00  0.00     0.066 H 
ATOM     13  H11 <0> d           1.010   1.463   0.000  0.00  0.00     0.066 H 
ATOM     14  H12 <0> d          -0.540   1.447  -0.875  0.00  0.00     0.066 H 
ENDBRANCH  10  11
ENDBRANCH   3  10
BRANCH   1  15
ATOM     15  C1  <0> d          -0.852   1.671   6.060  0.00  0.00    -0.051 C 
ATOM     16  H1  <0> d          -1.591   0.932   6.371  0.00  0.00     0.033 H 
ATOM     17  H2  <0> d          -0.092   1.773   6.835  0.00  0.00     0.033 H 
ATOM     18  H3  <0> d          -1.343   2.631   5.903  0.00  0.00     0.033 H 
ENDBRANCH   1  15
BRANCH   6  19
ATOM     19  C8  <0> d           1.527   0.036   6.140  0.00  0.00     0.041 C 
ATOM     20  H7  <0> d           1.800   0.928   6.703  0.00  0.00     0.081 H 
ATOM     21  H8  <0> d           0.793  -0.539   6.705  0.00  0.00     0.081 H 
BRANCH  19  22
ATOM     22  O1  <0> d           2.690  -0.764   5.919  0.00  0.00    -0.396 OA
ATOM     23  H9  <0> d           3.123  -1.060   6.731  0.00  0.00     0.209 HD
ENDBRANCH  19  22
ENDBRANCH   6  19
TORSDOF 5
