REMARK  4 active torsions:
REMARK  status: ('A' for Active; 'I' for Inactive)
REMARK    1  A    between atoms: C1_1  and  C2_2 
REMARK    2  A    between atoms: C2_2  and  C3_4 
REMARK    3  A    between atoms: C6_7  and  N2_11 
REMARK    4  A    between atoms: C7_8  and  N1_10 
ROOT
ATOM      1  C3  <0> d           0.042  -2.780  -0.010  0.00  0.00     0.011 A 
ATOM      2  C4  <0> d           1.242  -2.058  -0.007  0.00  0.00    -0.067 A 
ATOM      3  C5  <0> d           1.217  -0.682   0.001  0.00  0.00    -0.055 A 
ATOM      4  C6  <0> d           0.003  -0.004   0.008  0.00  0.00     0.052 A 
ATOM      5  C7  <0> d          -1.200  -0.718   0.010  0.00  0.00     0.053 A 
ATOM      6  C8  <0> d          -1.183  -2.099  -0.004  0.00  0.00    -0.042 A 
ATOM      7  H4  <0> d           2.187  -2.581  -0.012  0.00  0.00     0.085 H 
ATOM      8  H5  <0> d           2.144  -0.127   0.004  0.00  0.00     0.087 H 
ATOM      9  H6  <0> d          -2.110  -2.652  -0.006  0.00  0.00     0.088 H 
ENDROOT
BRANCH   1  10
ATOM     10  C2  <0> d           0.067  -4.247  -0.019  0.00  0.00     0.155 C 
ATOM     11  O1  <0> d           1.123  -4.835  -0.126  0.00  0.00    -0.293 OA
BRANCH  10  12
ATOM     12  C1  <0> d          -1.219  -5.024   0.103  0.00  0.00    -0.017 C 
ATOM     13  H1  <0> d          -1.993  -4.390   0.099  0.00  0.00     0.038 H 
ATOM     14  H2  <0> d          -1.309  -5.713  -0.736  0.00  0.00     0.038 H 
ATOM     15  H3  <0> d          -1.216  -5.586   1.037  0.00  0.00     0.038 H 
ENDBRANCH  10  12
ENDBRANCH   1  10
BRANCH   5  16
ATOM     16  N1  <0> d          -2.421  -0.033   0.022  0.00  0.00    -0.397 N 
ATOM     17  H7  <0> d          -2.433   0.937   0.029  0.00  0.00     0.156 HD
ATOM     18  H8  <0> d          -3.255  -0.528   0.024  0.00  0.00     0.156 HD
ENDBRANCH   5  16
BRANCH   4  19
ATOM     19  N2  <0> d          -0.016   1.387   0.017  0.00  0.00    -0.397 N 
ATOM     20  H9  <0> d           0.817   1.884   0.019  0.00  0.00     0.156 HD
ATOM     21  H10 <0> d          -0.863   1.861   0.017  0.00  0.00     0.156 HD
ENDBRANCH   4  19
TORSDOF 4
