REMARK  3 active torsions:
REMARK  status: ('A' for Active; 'I' for Inactive)
REMARK    1  A    between atoms: C1_1  and  C2_2 
REMARK    2  A    between atoms: C4_5  and  O2_11 
REMARK    3  A    between atoms: C6_7  and  C7_10 
ROOT
ATOM      1  C2  <0> d           0.002  -0.004   0.002  0.00  0.00     0.038 C 
ATOM      2  H1  <0> d           0.512  -0.356  -0.895  0.00  0.00     0.082 H 
ATOM      3  C3  <0> d          -1.434  -0.534   0.013  0.00  0.00    -0.017 C 
ATOM      4  C4  <0> d          -1.405  -2.065   0.066  0.00  0.00     0.040 C 
ATOM      5  C5  <0> d          -0.612  -2.507   1.299  0.00  0.00    -0.017 C 
ATOM      6  C6  <0> d           0.793  -1.901   1.238  0.00  0.00     0.038 C 
ATOM      7  H2  <0> d           1.313  -2.278   0.358  0.00  0.00     0.082 H 
ATOM      8  O1  <0> d           0.693  -0.478   1.160  0.00  0.00    -0.381 OA
ATOM      9  H6  <0> d          -1.957  -0.150   0.889  0.00  0.00     0.040 H 
ATOM     10  H7  <0> d          -1.949  -0.210  -0.891  0.00  0.00     0.040 H 
ATOM     11  H8  <0> d          -2.423  -2.447   0.131  0.00  0.00     0.083 H 
ATOM     12  H9  <0> d          -1.118  -2.163   2.201  0.00  0.00     0.040 H 
ATOM     13  H10 <0> d          -0.539  -3.595   1.315  0.00  0.00     0.040 H 
ENDROOT
BRANCH   1  14
ATOM     14  C1  <0> d          -0.019   1.526   0.010  0.00  0.00    -0.052 C 
ATOM     15  H3  <0> d           1.004   1.903   0.003  0.00  0.00     0.030 H 
ATOM     16  H4  <0> d          -0.546   1.887  -0.873  0.00  0.00     0.030 H 
ATOM     17  H5  <0> d          -0.529   1.877   0.907  0.00  0.00     0.030 H 
ENDBRANCH   1  14
BRANCH   6  18
ATOM     18  C7  <0> d           1.571  -2.290   2.497  0.00  0.00    -0.052 C 
ATOM     19  H11 <0> d           1.647  -3.375   2.556  0.00  0.00     0.030 H 
ATOM     20  H12 <0> d           2.571  -1.858   2.453  0.00  0.00     0.030 H 
ATOM     21  H13 <0> d           1.051  -1.913   3.377  0.00  0.00     0.030 H 
ENDBRANCH   6  18
BRANCH   4  22
ATOM     22  O2  <0> d          -0.776  -2.571  -1.113  0.00  0.00    -0.395 OA
ATOM     23  H14 <0> d          -0.723  -3.536  -1.147  0.00  0.00     0.210 HD
ENDBRANCH   4  22
TORSDOF 3
