REMARK  5 active torsions:
REMARK  status: ('A' for Active; 'I' for Inactive)
REMARK    1  A    between atoms: C1_1  and  C2_2 
REMARK    2  A    between atoms: C3_3  and  C4_4 
REMARK    3  A    between atoms: C4_4  and  C5_5 
REMARK    4  A    between atoms: C4_4  and  C6_6 
REMARK    5  A    between atoms: C4_4  and  C7_7 
ROOT
ATOM      1  C4  <0> d           0.038  -2.650  -0.013  0.00  0.00     0.013 C 
ENDROOT
BRANCH   1   2
ATOM      2  C3  <0> d           0.018  -1.178  -0.004  0.00  0.00    -0.098 C 
ATOM      3  C2  <0> d           0.002  -0.004   0.002  0.00  0.00    -0.110 C 
BRANCH   3   4
ATOM      4  C1  <0> d          -0.018   1.468   0.010  0.00  0.00    -0.021 C 
ATOM      5  H1  <0> d           1.005   1.845   0.002  0.00  0.00     0.044 H 
ATOM      6  H2  <0> d          -0.545   1.829  -0.873  0.00  0.00     0.044 H 
ATOM      7  H3  <0> d          -0.528   1.819   0.907  0.00  0.00     0.044 H 
ENDBRANCH   3   4
ENDBRANCH   1   2
BRANCH   1   8
ATOM      8  C5  <0> d          -1.397  -3.179  -0.002  0.00  0.00    -0.059 C 
ATOM      9  H4  <0> d          -1.925  -2.818  -0.885  0.00  0.00     0.029 H 
ATOM     10  H5  <0> d          -1.383  -4.269  -0.008  0.00  0.00     0.029 H 
ATOM     11  H6  <0> d          -1.908  -2.828   0.895  0.00  0.00     0.029 H 
ENDBRANCH   1   8
BRANCH   1  12
ATOM     12  C6  <0> d           0.754  -3.143  -1.271  0.00  0.00    -0.059 C 
ATOM     13  H7  <0> d           1.777  -2.766  -1.279  0.00  0.00     0.029 H 
ATOM     14  H8  <0> d           0.769  -4.233  -1.277  0.00  0.00     0.029 H 
ATOM     15  H9  <0> d           0.227  -2.782  -2.154  0.00  0.00     0.029 H 
ENDBRANCH   1  12
BRANCH   1  16
ATOM     16  C7  <0> d           0.778  -3.157   1.227  0.00  0.00    -0.059 C 
ATOM     17  H10 <0> d           0.268  -2.805   2.124  0.00  0.00     0.029 H 
ATOM     18  H11 <0> d           0.793  -4.247   1.221  0.00  0.00     0.029 H 
ATOM     19  H12 <0> d           1.800  -2.779   1.219  0.00  0.00     0.029 H 
ENDBRANCH   1  16
TORSDOF 5
