REMARK  2 active torsions:
REMARK  status: ('A' for Active; 'I' for Inactive)
REMARK    1  A    between atoms: C2_2  and  C4_7 
REMARK    2  A    between atoms: C3_4  and  N2_6 
REMARK       I    between atoms: C4_7  and  N3_9 
ROOT
ATOM      1  C1  <0> d          -3.655   1.530   0.028  0.00  0.00    -0.008 A 
ATOM      2  C2  <0> d          -2.452   0.871   0.018  0.00  0.00     0.133 A 
ATOM      3  N1  <0> d          -2.445  -0.464   0.006  0.00  0.00    -0.219 NA
ATOM      4  C3  <0> d          -3.569  -1.152   0.013  0.00  0.00     0.165 A 
ATOM      5  S1  <0> d          -4.792   0.151   0.026  0.00  0.00    -0.062 SA
ATOM      6  H1  <0> d          -3.859   2.591   0.035  0.00  0.00     0.099 H 
ENDROOT
BRANCH   2   7
ATOM      7  C4  <0> d          -1.187   1.624   0.017  0.00  0.00     0.268 C 
ATOM      8  O1  <0> d          -1.204   2.840   0.023  0.00  0.00    -0.266 OA
ATOM      9  N3  <0> d          -0.011   0.966   0.007  0.00  0.00    -0.365 N 
ATOM     10  H4  <0> d           0.934   1.529   0.006  0.00  0.00     0.159 HD
ATOM     11  H5  <0> d           0.004  -0.134   0.001  0.00  0.00     0.159 HD
ENDBRANCH   2   7
BRANCH   4  12
ATOM     12  N2  <0> d          -3.754  -2.525   0.006  0.00  0.00    -0.378 N 
ATOM     13  H2  <0> d          -4.771  -2.943   0.013  0.00  0.00     0.158 HD
ATOM     14  H3  <0> d          -2.883  -3.197  -0.008  0.00  0.00     0.158 HD
ENDBRANCH   4  12
TORSDOF 2
