REMARK  5 active torsions:
REMARK  status: ('A' for Active; 'I' for Inactive)
REMARK    1  A    between atoms: C1_1  and  C2_2 
REMARK    2  A    between atoms: C1_1  and  C4_5 
REMARK    3  A    between atoms: C2_2  and  C3_3 
REMARK    4  A    between atoms: C3_3  and  O1_4 
REMARK    5  A    between atoms: C4_5  and  C5_6 
ROOT
ATOM      1  C1  <0> d           2.696   3.548  -0.005  0.00  0.00    -0.054 C 
ATOM      2  H1  <0> d           3.204   3.160   0.878  0.00  0.00     0.033 H 
ATOM      3  H2  <0> d           3.187   3.170  -0.901  0.00  0.00     0.033 H 
ENDROOT
BRANCH   1   4
ATOM      4  C2  <0> d           2.755   5.077   0.003  0.00  0.00    -0.045 C 
ATOM      5  H3  <0> d           2.248   5.465  -0.880  0.00  0.00     0.036 H 
ATOM      6  H4  <0> d           2.265   5.455   0.900  0.00  0.00     0.036 H 
BRANCH   4   7
ATOM      7  C3  <0> d           4.217   5.531  -0.009  0.00  0.00     0.017 C 
ATOM      8  H5  <0> d           4.724   5.143   0.875  0.00  0.00     0.073 H 
ATOM      9  H6  <0> d           4.707   5.152  -0.905  0.00  0.00     0.073 H 
BRANCH   7  10
ATOM     10  O1  <0> d           4.272   6.958  -0.001  0.00  0.00    -0.401 OA
ATOM     11  H7  <0> d           5.170   7.317  -0.008  0.00  0.00     0.209 HD
ENDBRANCH   7  10
ENDBRANCH   4   7
ENDBRANCH   1   4
BRANCH   1  12
ATOM     12  C4  <0> d           1.235   3.094   0.007  0.00  0.00     0.016 C 
ATOM     13  H8  <0> d           0.727   3.482  -0.876  0.00  0.00     0.049 H 
ATOM     14  H9  <0> d           0.744   3.473   0.904  0.00  0.00     0.049 H 
BRANCH  12  15
ATOM     15  C5  <0> d           1.177   1.588  -0.001  0.00  0.00     0.172 C 
ATOM     16  O2  <0> d           2.199   0.944  -0.014  0.00  0.00    -0.648 OA
ATOM     17  O3  <0> d          -0.011   0.963   0.007  0.00  0.00    -0.648 OA
ENDBRANCH  12  15
ENDBRANCH   1  12
TORSDOF 5
