REMARK  2 active torsions:
REMARK  status: ('A' for Active; 'I' for Inactive)
REMARK    1  A    between atoms: C1_1  and  C2_2 
REMARK    2  A    between atoms: C2_2  and  O1_12 
ROOT
ATOM      1  C2  <0> d           1.231   1.542  -1.523  0.00  0.00     0.062 C 
ATOM      2  C3  <0> d           1.295   1.970   0.000  0.00  0.00    -0.020 C 
ATOM      3  H1  <0> d           2.160   1.646   0.596  0.00  0.00     0.045 H 
ATOM      4  C4  <0> d           0.714   3.381   0.319  0.00  0.00    -0.055 C 
ATOM      5  C5  <0> d          -0.859   3.289   0.418  0.00  0.00    -0.053 C 
ATOM      6  C6  <0> d          -0.927   1.834   1.044  0.00  0.00    -0.057 C 
ATOM      7  C7  <0> d          -0.013   1.096   0.008  0.00  0.00    -0.041 C 
ATOM      8  C8  <0> d          -0.142   1.981  -1.261  0.00  0.00    -0.020 C 
ATOM      9  H2  <0> d           0.402   2.877  -1.344  0.00  0.00     0.045 H 
ATOM     10  C9  <0> d          -1.309   2.871  -1.065  0.00  0.00    -0.055 C 
ATOM     11  H6  <0> d           1.103   3.711   1.293  0.00  0.00     0.034 H 
ATOM     12  H7  <0> d           1.011   4.118  -0.420  0.00  0.00     0.034 H 
ATOM     13  H8  <0> d          -1.397   4.097   0.922  0.00  0.00     0.040 H 
ATOM     14  H9  <0> d          -1.943   1.444   1.031  0.00  0.00     0.034 H 
ATOM     15  H10 <0> d          -0.499   1.812   2.044  0.00  0.00     0.034 H 
ATOM     16  H11 <0> d           0.002  -0.004   0.002  0.00  0.00     0.041 H 
ATOM     17  H12 <0> d          -1.309   3.709  -1.763  0.00  0.00     0.034 H 
ATOM     18  H13 <0> d          -2.252   2.322  -1.086  0.00  0.00     0.034 H 
ENDROOT
BRANCH   1  19
ATOM     19  C1  <0> d           2.006   2.433  -2.498  0.00  0.00    -0.047 C 
ATOM     20  H3  <0> d           3.061   2.437  -2.227  0.00  0.00     0.031 H 
ATOM     21  H4  <0> d           1.892   2.048  -3.511  0.00  0.00     0.031 H 
ATOM     22  H5  <0> d           1.615   3.450  -2.450  0.00  0.00     0.031 H 
ENDBRANCH   1  19
BRANCH   1  23
ATOM     23  O1  <0> d           1.371   0.145  -1.788  0.00  0.00    -0.389 OA
ATOM     24  H14 <0> d           1.327  -0.084  -2.727  0.00  0.00     0.210 HD
ENDBRANCH   1  23
TORSDOF 2
