REMARK  7 active torsions:
REMARK  status: ('A' for Active; 'I' for Inactive)
REMARK    1  A    between atoms: C1_1  and  C2_2 
REMARK    2  A    between atoms: C2_2  and  C3_3 
REMARK    3  A    between atoms: C3_3  and  C4_4 
REMARK    4  A    between atoms: C4_4  and  C5_5 
REMARK    5  A    between atoms: C6_6  and  C7_7 
REMARK    6  A    between atoms: C7_7  and  C8_8 
REMARK    7  A    between atoms: C8_8  and  O1_9 
ROOT
ATOM      1  C4  <0> d           4.884   4.811  -0.019  0.00  0.00    -0.009 C 
ATOM      2  H8  <0> d           4.783   5.896  -0.012  0.00  0.00     0.051 H 
ATOM      3  H9  <0> d           5.437   4.492   0.864  0.00  0.00     0.051 H 
ENDROOT
BRANCH   1   4
ATOM      4  C3  <0> d           5.637   4.377  -1.278  0.00  0.00    -0.056 C 
ATOM      5  H6  <0> d           5.738   3.292  -1.284  0.00  0.00     0.034 H 
ATOM      6  H7  <0> d           5.083   4.696  -2.161  0.00  0.00     0.034 H 
BRANCH   4   7
ATOM      7  C2  <0> d           7.026   5.018  -1.287  0.00  0.00    -0.068 C 
ATOM      8  H4  <0> d           6.925   6.103  -1.281  0.00  0.00     0.032 H 
ATOM      9  H5  <0> d           7.580   4.699  -0.404  0.00  0.00     0.032 H 
BRANCH   7  10
ATOM     10  C1  <0> d           7.779   4.584  -2.546  0.00  0.00    -0.076 C 
ATOM     11  H1  <0> d           7.880   3.498  -2.553  0.00  0.00     0.027 H 
ATOM     12  H2  <0> d           7.226   4.903  -3.429  0.00  0.00     0.027 H 
ATOM     13  H3  <0> d           8.769   5.040  -2.553  0.00  0.00     0.027 H 
ENDBRANCH   7  10
ENDBRANCH   4   7
ENDBRANCH   1   4
BRANCH   1  14
ATOM     14  C5  <0> d           3.547   4.194  -0.009  0.00  0.00    -0.107 C 
ATOM     15  C6  <0> d           2.481   3.702  -0.002  0.00  0.00    -0.104 C 
BRANCH  15  16
ATOM     16  C7  <0> d           1.145   3.085   0.008  0.00  0.00     0.010 C 
ATOM     17  H10 <0> d           0.591   3.404  -0.875  0.00  0.00     0.055 H 
ATOM     18  H11 <0> d           0.608   3.395   0.904  0.00  0.00     0.055 H 
BRANCH  16  19
ATOM     19  C8  <0> d           1.286   1.562  -0.002  0.00  0.00     0.026 C 
ATOM     20  H12 <0> d           1.840   1.243   0.881  0.00  0.00     0.075 H 
ATOM     21  H13 <0> d           1.823   1.252  -0.899  0.00  0.00     0.075 H 
BRANCH  19  22
ATOM     22  O1  <0> d          -0.011   0.963   0.007  0.00  0.00    -0.400 OA
ATOM     23  H14 <0> d           0.002  -0.004   0.002  0.00  0.00     0.209 HD
ENDBRANCH  19  22
ENDBRANCH  16  19
ENDBRANCH  15  16
ENDBRANCH   1  14
TORSDOF 7
