REMARK  2 active torsions:
REMARK  status: ('A' for Active; 'I' for Inactive)
REMARK    1  A    between atoms: C1_1  and  C2_2 
REMARK    2  A    between atoms: C2_2  and  C3_3 
ROOT
ATOM      1  C3  <0> d          -2.164   1.050   1.278  0.00  0.00    -0.031 C 
ATOM      2  H1  <0> d          -2.181  -0.028   1.116  0.00  0.00     0.043 H 
ATOM      3  C4  <0> d          -3.032   1.781   0.227  0.00  0.00     0.014 C 
ATOM      4  C5  <0> d          -4.383   1.918   0.893  0.00  0.00     0.217 C 
ATOM      5  O1  <0> d          -5.418   2.180   0.317  0.00  0.00    -0.274 OA
ATOM      6  N1  <0> d          -4.271   1.708   2.216  0.00  0.00    -0.361 N 
ATOM      7  C6  <0> d          -2.881   1.423   2.594  0.00  0.00    -0.001 C 
ATOM      8  H7  <0> d          -2.615   2.763   0.005  0.00  0.00     0.047 H 
ATOM      9  H8  <0> d          -3.113   1.185  -0.682  0.00  0.00     0.047 H 
ATOM     10  H9  <0> d          -5.012   1.739   2.840  0.00  0.00     0.162 HD
ATOM     11  H10 <0> d          -2.844   0.588   3.294  0.00  0.00     0.064 H 
ATOM     12  H11 <0> d          -2.421   2.307   3.037  0.00  0.00     0.064 H 
ENDROOT
BRANCH   1  13
ATOM     13  C2  <0> d          -0.729   1.579   1.267  0.00  0.00    -0.063 C 
ATOM     14  H5  <0> d          -0.202   1.218   2.150  0.00  0.00     0.033 H 
ATOM     15  H6  <0> d          -0.744   2.669   1.273  0.00  0.00     0.033 H 
BRANCH  13  16
ATOM     16  C1  <0> d          -0.013   1.086   0.008  0.00  0.00    -0.076 C 
ATOM     17  H2  <0> d           0.002  -0.004   0.002  0.00  0.00     0.027 H 
ATOM     18  H3  <0> d           1.010   1.463   0.000  0.00  0.00     0.027 H 
ATOM     19  H4  <0> d          -0.540   1.447  -0.875  0.00  0.00     0.027 H 
ENDBRANCH  13  16
ENDBRANCH   1  13
TORSDOF 2
