REMARK  4 active torsions:
REMARK  status: ('A' for Active; 'I' for Inactive)
REMARK    1  A    between atoms: C1_1  and  C2_2 
REMARK    2  A    between atoms: C2_2  and  C3_4 
REMARK    3  A    between atoms: C2_2  and  N1_7 
REMARK    4  A    between atoms: C3_4  and  C4_5 
ROOT
ATOM      1  C2  <0> d          -2.508   1.377   0.020  0.00  0.00     0.023 C 
ATOM      2  H1  <0> d          -3.182   2.234   0.027  0.00  0.00     0.073 H 
ENDROOT
BRANCH   1   3
ATOM      3  C1  <0> d          -2.754   0.524   1.266  0.00  0.00    -0.056 C 
ATOM      4  H2  <0> d          -2.571   1.123   2.158  0.00  0.00     0.030 H 
ATOM      5  H3  <0> d          -3.787   0.174   1.268  0.00  0.00     0.030 H 
ATOM      6  H4  <0> d          -2.080  -0.332   1.259  0.00  0.00     0.030 H 
ENDBRANCH   1   3
BRANCH   1   7
ATOM      7  C3  <0> d          -2.764   0.537  -1.232  0.00  0.00     0.035 C 
ATOM      8  H5  <0> d          -2.504   1.116  -2.118  0.00  0.00     0.052 H 
ATOM      9  H6  <0> d          -2.154  -0.365  -1.196  0.00  0.00     0.052 H 
BRANCH   7  10
ATOM     10  C4  <0> d          -4.221   0.156  -1.292  0.00  0.00     0.174 C 
ATOM     11  O1  <0> d          -4.977   0.519  -0.422  0.00  0.00    -0.648 OA
ATOM     12  O2  <0> d          -4.679  -0.588  -2.311  0.00  0.00    -0.648 OA
ENDBRANCH   7  10
ENDBRANCH   1   7
BRANCH   1  13
ATOM     13  N1  <0> d          -1.121   1.848   0.017  0.00  0.00    -0.345 N 
ATOM     14  C7  <0> d          -0.013   1.076   0.008  0.00  0.00     0.066 A 
ATOM     15  N2  <0> d           1.037   1.851   0.002  0.00  0.00    -0.255 NA
ATOM     16  H9  <0> d           0.002  -0.004   0.002  0.00  0.00     0.143 H 
ATOM     17  C6  <0> d           0.641   3.132   0.013  0.00  0.00     0.018 A 
ATOM     18  C5  <0> d          -0.705   3.152   0.026  0.00  0.00    -0.002 A 
ATOM     19  H8  <0> d           1.289   3.997   0.011  0.00  0.00     0.117 H 
ATOM     20  H7  <0> d          -1.336   4.029   0.036  0.00  0.00     0.113 H 
ENDBRANCH   1  13
TORSDOF 4
