REMARK  1 active torsions:
REMARK  status: ('A' for Active; 'I' for Inactive)
REMARK    1  A    between atoms: C8_9  and  N2_11 
ROOT
ATOM      1  C1  <0> d          -0.017   1.387   0.010  0.00  0.00    -0.080 A 
ATOM      2  C2  <0> d           1.141   2.104   0.003  0.00  0.00    -0.071 A 
ATOM      3  C3  <0> d           2.377   1.438  -0.013  0.00  0.00    -0.005 A 
ATOM      4  C4  <0> d           3.592   2.150  -0.020  0.00  0.00    -0.069 A 
ATOM      5  C5  <0> d           4.757   1.437  -0.035  0.00  0.00    -0.065 A 
ATOM      6  C6  <0> d           4.719   0.044  -0.042  0.00  0.00     0.003 A 
ATOM      7  N1  <0> d           3.586  -0.615  -0.035  0.00  0.00    -0.258 NA
ATOM      8  C7  <0> d           2.412   0.022  -0.021  0.00  0.00     0.092 A 
ATOM      9  C8  <0> d           1.195  -0.694  -0.013  0.00  0.00     0.055 A 
ATOM     10  C9  <0> d           0.002  -0.004   0.002  0.00  0.00    -0.055 A 
ATOM     11  H1  <0> d          -0.964   1.907   0.026  0.00  0.00     0.083 H 
ATOM     12  H2  <0> d           1.109   3.184   0.008  0.00  0.00     0.084 H 
ATOM     13  H3  <0> d           3.603   3.230  -0.015  0.00  0.00     0.085 H 
ATOM     14  H4  <0> d           5.706   1.952  -0.041  0.00  0.00     0.085 H 
ATOM     15  H5  <0> d           5.648  -0.507  -0.054  0.00  0.00     0.114 H 
ATOM     16  H6  <0> d          -0.930  -0.550   0.008  0.00  0.00     0.087 H 
ENDROOT
BRANCH   9  17
ATOM     17  N2  <0> d           1.200  -2.088  -0.022  0.00  0.00    -0.397 N 
ATOM     18  H7  <0> d           2.042  -2.570  -0.033  0.00  0.00     0.156 HD
ATOM     19  H8  <0> d           0.361  -2.576  -0.017  0.00  0.00     0.156 HD
ENDBRANCH   9  17
TORSDOF 1
