REMARK  8 active torsions:
REMARK  status: ('A' for Active; 'I' for Inactive)
REMARK    1  A    between atoms: C1_1  and  C2_2 
REMARK    2  A    between atoms: C2_2  and  C3_3 
REMARK    3  A    between atoms: C3_3  and  C4_4 
REMARK    4  A    between atoms: C4_4  and  O1_5 
REMARK    5  A    between atoms: O1_5  and  C5_6 
REMARK    6  A    between atoms: C5_6  and  C6_8 
REMARK    7  A    between atoms: C6_8  and  C7_10 
REMARK    8  A    between atoms: C6_8  and  O3_11 
ROOT
ATOM      1  C4  <0> d           2.367   1.117  -0.015  0.00  0.00     0.029 C 
ATOM      2  H9  <0> d           2.409   0.484   0.872  0.00  0.00     0.075 H 
ATOM      3  H10 <0> d           2.392   0.493  -0.908  0.00  0.00     0.075 H 
ENDROOT
BRANCH   1   4
ATOM      4  C3  <0> d           3.568   2.065  -0.021  0.00  0.00    -0.045 C 
ATOM      5  H7  <0> d           3.526   2.698  -0.907  0.00  0.00     0.036 H 
ATOM      6  H8  <0> d           3.543   2.689   0.873  0.00  0.00     0.036 H 
BRANCH   4   7
ATOM      7  C2  <0> d           4.862   1.250  -0.038  0.00  0.00    -0.067 C 
ATOM      8  H5  <0> d           4.904   0.616   0.849  0.00  0.00     0.032 H 
ATOM      9  H6  <0> d           4.887   0.626  -0.931  0.00  0.00     0.032 H 
BRANCH   7  10
ATOM     10  C1  <0> d           6.063   2.198  -0.044  0.00  0.00    -0.076 C 
ATOM     11  H2  <0> d           6.038   2.822   0.850  0.00  0.00     0.027 H 
ATOM     12  H3  <0> d           6.985   1.617  -0.056  0.00  0.00     0.027 H 
ATOM     13  H4  <0> d           6.021   2.831  -0.930  0.00  0.00     0.027 H 
ENDBRANCH   7  10
ENDBRANCH   4   7
ENDBRANCH   1   4
BRANCH   1  14
ATOM     14  O1  <0> d           1.139   1.891   0.001  0.00  0.00    -0.319 OA
BRANCH  14  15
ATOM     15  C5  <0> d          -0.014   1.204   0.009  0.00  0.00     0.287 C 
ATOM     16  O2  <0> d           0.002  -0.004   0.002  0.00  0.00    -0.262 OA
BRANCH  15  17
ATOM     17  C6  <0> d          -1.329   1.940   0.019  0.00  0.00     0.115 C 
ATOM     18  H1  <0> d          -1.355   2.627   0.865  0.00  0.00     0.098 H 
BRANCH  17  19
ATOM     19  C7  <0> d          -1.483   2.728  -1.284  0.00  0.00    -0.044 C 
ATOM     20  H11 <0> d          -1.458   2.041  -2.129  0.00  0.00     0.031 H 
ATOM     21  H12 <0> d          -2.434   3.260  -1.276  0.00  0.00     0.031 H 
ATOM     22  H13 <0> d          -0.667   3.444  -1.373  0.00  0.00     0.031 H 
ENDBRANCH  17  19
BRANCH  17  23
ATOM     23  O3  <0> d          -2.400   1.000   0.136  0.00  0.00    -0.386 OA
ATOM     24  H14 <0> d          -2.439   0.356  -0.584  0.00  0.00     0.210 HD
ENDBRANCH  17  23
ENDBRANCH  15  17
ENDBRANCH  14  15
ENDBRANCH   1  14
TORSDOF 8
