REMARK  2 active torsions:
REMARK  status: ('A' for Active; 'I' for Inactive)
REMARK    1  A    between atoms: C1_1  and  C2_2 
REMARK    2  A    between atoms: C4_4  and  C5_7 
ROOT
ATOM      1  C2  <0> d           0.002  -0.004   0.002  0.00  0.00     0.082 A 
ATOM      2  C3  <0> d           0.008  -0.824  -1.141  0.00  0.00     0.091 A 
ATOM      3  C4  <0> d           0.027  -2.109  -0.735  0.00  0.00     0.098 A 
ATOM      4  O1  <0> d           0.034  -2.119   0.607  0.00  0.00    -0.216 OA
ATOM      5  N1  <0> d           0.023  -0.775   1.052  0.00  0.00    -0.132 NA
ATOM      6 Cl1  <0> d          -0.007  -0.276  -2.789  0.00  0.00    -0.079 Cl
ENDROOT
BRANCH   1   7
ATOM      7  C1  <0> d          -0.018   1.503   0.010  0.00  0.00    -0.032 C 
ATOM      8  H1  <0> d           1.004   1.880   0.003  0.00  0.00     0.035 H 
ATOM      9  H2  <0> d          -0.545   1.864  -0.873  0.00  0.00     0.035 H 
ATOM     10  H3  <0> d          -0.529   1.854   0.907  0.00  0.00     0.035 H 
ENDBRANCH   1   7
BRANCH   3  11
ATOM     11  C5  <0> d           0.040  -3.321  -1.631  0.00  0.00    -0.028 C 
ATOM     12  H4  <0> d           1.070  -3.599  -1.851  0.00  0.00     0.036 H 
ATOM     13  H5  <0> d          -0.461  -4.149  -1.129  0.00  0.00     0.036 H 
ATOM     14  H6  <0> d          -0.481  -3.091  -2.560  0.00  0.00     0.036 H 
ENDBRANCH   3  11
TORSDOF 2
