REMARK  3 active torsions:
REMARK  status: ('A' for Active; 'I' for Inactive)
REMARK    1  A    between atoms: C1_1  and  C2_2 
REMARK    2  A    between atoms: C2_2  and  C3_4 
REMARK    3  A    between atoms: C2_2  and  N2_7 
ROOT
ATOM      1  C3  <0> d          -0.018   1.468   0.010  0.00  0.00     0.035 C 
ATOM      2  C4  <0> d           0.002  -0.004   0.002  0.00  0.00     0.061 C 
ATOM      3  N1  <0> d           0.018  -1.140  -0.004  0.00  0.00    -0.197 NA
ATOM      4  H5  <0> d           1.005   1.845   0.002  0.00  0.00     0.058 H 
ATOM      5  H6  <0> d          -0.545   1.829  -0.873  0.00  0.00     0.058 H 
ENDROOT
BRANCH   1   6
ATOM      6  C2  <0> d          -0.734   1.961   1.269  0.00  0.00     0.042 C 
ATOM      7  H1  <0> d          -1.726   1.513   1.322  0.00  0.00     0.076 H 
BRANCH   6   8
ATOM      8  C1  <0> d           0.073   1.560   2.505  0.00  0.00    -0.054 C 
ATOM      9  H2  <0> d           1.065   2.009   2.452  0.00  0.00     0.030 H 
ATOM     10  H3  <0> d          -0.437   1.912   3.402  0.00  0.00     0.030 H 
ATOM     11  H4  <0> d           0.167   0.475   2.542  0.00  0.00     0.030 H 
ENDBRANCH   6   8
BRANCH   6  12
ATOM     12  N2  <0> d          -0.860   3.420   1.219  0.00  0.00    -0.276 N 
ATOM     13  N3  <0> d          -1.970   4.136   0.754  0.00  0.00    -0.185 NA
ATOM     14  C7  <0> d          -1.709   5.413   0.867  0.00  0.00     0.023 A 
ATOM     15  C6  <0> d          -0.426   5.551   1.406  0.00  0.00    -0.048 A 
ATOM     16  H9  <0> d          -2.370   6.222   0.591  0.00  0.00     0.117 H 
ATOM     17  C5  <0> d           0.072   4.311   1.619  0.00  0.00     0.000 A 
ATOM     18  H8  <0> d           0.077   6.483   1.619  0.00  0.00     0.087 H 
ATOM     19  H7  <0> d           1.042   4.076   2.032  0.00  0.00     0.114 H 
ENDBRANCH   6  12
ENDBRANCH   1   6
TORSDOF 3
