REMARK  2 active torsions:
REMARK  status: ('A' for Active; 'I' for Inactive)
REMARK    1  A    between atoms: C1_1  and  C2_2 
REMARK    2  A    between atoms: C6_6  and  O1_8 
ROOT
ATOM      1  C2  <0> d           1.134  -0.681  -0.012  0.00  0.00     0.033 A 
ATOM      2  C3  <0> d           2.350  -0.026  -0.021  0.00  0.00    -0.059 A 
ATOM      3  C4  <0> d           2.374   1.361  -0.014  0.00  0.00    -0.077 A 
ATOM      4  C5  <0> d           1.169   2.042   0.002  0.00  0.00    -0.032 A 
ATOM      5  C6  <0> d          -0.016   1.319   0.009  0.00  0.00     0.162 A 
ATOM      6  N1  <0> d           0.002  -0.004   0.002  0.00  0.00    -0.230 NA
ATOM      7  H4  <0> d           3.273  -0.588  -0.033  0.00  0.00     0.086 H 
ATOM      8  H5  <0> d           3.312   1.897  -0.020  0.00  0.00     0.083 H 
ATOM      9  H6  <0> d           1.151   3.122   0.007  0.00  0.00     0.090 H 
ENDROOT
BRANCH   1  10
ATOM     10  C1  <0> d           1.101  -2.188  -0.020  0.00  0.00    -0.035 C 
ATOM     11  H1  <0> d           1.083  -2.545  -1.050  0.00  0.00     0.035 H 
ATOM     12  H2  <0> d           1.987  -2.574   0.483  0.00  0.00     0.035 H 
ATOM     13  H3  <0> d           0.208  -2.534   0.500  0.00  0.00     0.035 H 
ENDBRANCH   1  10
BRANCH   5  14
ATOM     14  O1  <0> d          -1.204   1.974   0.018  0.00  0.00    -0.345 OA
ATOM     15  H7  <0> d          -1.544   2.160   0.904  0.00  0.00     0.219 HD
ENDBRANCH   5  14
TORSDOF 2
