REMARK  0 active torsions:
REMARK  status: ('A' for Active; 'I' for Inactive)
ROOT
ATOM      1  C1  <0> d          -0.017   1.379   0.010  0.00  0.00    -0.082 A 
ATOM      2  C2  <0> d           1.170   2.091   0.002  0.00  0.00    -0.082 A 
ATOM      3  C3  <0> d           2.376   1.426  -0.013  0.00  0.00    -0.069 A 
ATOM      4  C4  <0> d           2.405   0.023  -0.021  0.00  0.00     0.016 A 
ATOM      5  C5  <0> d           1.204  -0.686  -0.013  0.00  0.00    -0.044 A 
ATOM      6  C6  <0> d           0.002  -0.004   0.002  0.00  0.00    -0.076 A 
ATOM      7  C7  <0> d           1.491  -2.168  -0.024  0.00  0.00    -0.034 A 
ATOM      8  C8  <0> d           3.019  -2.312  -0.039  0.00  0.00    -0.001 A 
ATOM      9  C9  <0> d           3.553  -0.900  -0.037  0.00  0.00     0.160 A 
ATOM     10  O1  <0> d           4.722  -0.581  -0.046  0.00  0.00    -0.292 OA
ATOM     11  H1  <0> d          -0.960   1.904   0.026  0.00  0.00     0.083 H 
ATOM     12  H2  <0> d           1.150   3.171   0.008  0.00  0.00     0.083 H 
ATOM     13  H3  <0> d           3.300   1.986  -0.019  0.00  0.00     0.085 H 
ATOM     14  H4  <0> d          -0.927  -0.554   0.008  0.00  0.00     0.084 H 
ATOM     15  H5  <0> d           1.080  -2.635   0.871  0.00  0.00     0.040 H 
ATOM     16  H6  <0> d           1.063  -2.626  -0.916  0.00  0.00     0.040 H 
ATOM     17  H7  <0> d           3.357  -2.845   0.849  0.00  0.00     0.045 H 
ATOM     18  H8  <0> d           3.340  -2.835  -0.940  0.00  0.00     0.045 H 
ENDROOT
TORSDOF 0
