REMARK  1 active torsions:
REMARK  status: ('A' for Active; 'I' for Inactive)
REMARK    1  A    between atoms: C2_2  and  C4_7 
REMARK       I    between atoms: C4_7  and  N1_9 
ROOT
ATOM      1  C1  <0> d          -0.013   1.086   0.008  0.00  0.00    -0.017 A 
ATOM      2  C2  <0> d          -1.150   1.781  -0.743  0.00  0.00     0.060 A 
ATOM      3  H1  <0> d          -1.883   1.149  -1.243  0.00  0.00     0.059 H 
ATOM      4  C3  <0> d          -1.136   1.773   0.788  0.00  0.00     0.126 A 
ATOM      5 Cl1  <0> d          -2.333   0.718   1.627  0.00  0.00    -0.101 Cl
ATOM      6 Cl2  <0> d          -0.742   3.321   1.625  0.00  0.00    -0.101 Cl
ATOM      7  H2  <0> d           0.002  -0.004   0.002  0.00  0.00     0.039 H 
ATOM      8  H3  <0> d           0.964   1.569   0.001  0.00  0.00     0.039 H 
ENDROOT
BRANCH   2   9
ATOM      9  C4  <0> d          -0.834   3.082  -1.435  0.00  0.00     0.222 C 
ATOM     10  O1  <0> d           0.288   3.540  -1.383  0.00  0.00    -0.273 OA
ATOM     11  N1  <0> d          -1.799   3.737  -2.111  0.00  0.00    -0.370 N 
ATOM     12  H4  <0> d          -2.696   3.371  -2.152  0.00  0.00     0.159 HD
ATOM     13  H5  <0> d          -1.595   4.575  -2.556  0.00  0.00     0.159 HD
ENDBRANCH   2   9
TORSDOF 1
