REMARK  1 active torsions:
REMARK  status: ('A' for Active; 'I' for Inactive)
REMARK    1  A    between atoms: C3_3  and  C5_7 
ROOT
ATOM      1  C5  <0> d          -1.275   0.455  -2.073  0.00  0.00     0.039 C 
ATOM      2  C6  <0> d          -1.928   0.980  -3.283  0.00  0.00     0.061 C 
ATOM      3  N1  <0> d          -2.433   1.385  -4.216  0.00  0.00    -0.197 NA
ATOM      4  H8  <0> d          -0.415  -0.151  -2.358  0.00  0.00     0.058 H 
ATOM      5  H9  <0> d          -1.982  -0.157  -1.514  0.00  0.00     0.058 H 
ENDROOT
BRANCH   1   6
ATOM      6  C3  <0> d          -0.808   1.621  -1.198  0.00  0.00     0.050 C 
ATOM      7  C2  <0> d          -0.013   1.086   0.008  0.00  0.00    -0.038 C 
ATOM      8  C1  <0> d          -0.788   1.610   1.241  0.00  0.00    -0.043 C 
ATOM      9  H4  <0> d           0.002  -0.004   0.002  0.00  0.00     0.036 H 
ATOM     10  H5  <0> d           1.003   1.480   0.000  0.00  0.00     0.036 H 
ATOM     11  C4  <0> d          -1.587   2.797   0.638  0.00  0.00     0.020 C 
ATOM     12  H2  <0> d          -1.462   0.847   1.631  0.00  0.00     0.036 H 
ATOM     13  H3  <0> d          -0.102   1.954   2.015  0.00  0.00     0.036 H 
ATOM     14  O1  <0> d          -1.946   2.329  -0.680  0.00  0.00    -0.385 OA
ATOM     15  H6  <0> d          -0.959   3.686   0.572  0.00  0.00     0.074 H 
ATOM     16  H7  <0> d          -2.480   3.002   1.229  0.00  0.00     0.074 H 
ATOM     17  H1  <0> d          -0.185   2.299  -1.782  0.00  0.00     0.084 H 
ENDBRANCH   1   6
TORSDOF 1
