REMARK  3 active torsions:
REMARK  status: ('A' for Active; 'I' for Inactive)
REMARK    1  A    between atoms: C1_1  and  C2_2 
REMARK    2  A    between atoms: C3_3  and  C7_10 
REMARK    3  A    between atoms: C4_5  and  C6_9 
ROOT
ATOM      1  C2  <0> d           0.002  -0.004   0.002  0.00  0.00     0.003 A 
ATOM      2  C3  <0> d           0.006  -0.707  -1.192  0.00  0.00     0.042 A 
ATOM      3  N1  <0> d           0.024  -2.030  -1.160  0.00  0.00    -0.238 NA
ATOM      4  C4  <0> d           0.038  -2.679  -0.013  0.00  0.00     0.124 A 
ATOM      5  N2  <0> d           0.035  -2.045   1.143  0.00  0.00    -0.221 NA
ATOM      6  C5  <0> d           0.023  -0.721   1.190  0.00  0.00     0.136 A 
ATOM      7 Cl1  <0> d           0.026   0.105   2.717  0.00  0.00    -0.062 Cl
ENDROOT
BRANCH   1   8
ATOM      8  C1  <0> d          -0.018   1.503   0.010  0.00  0.00    -0.046 C 
ATOM      9  H1  <0> d           1.004   1.880   0.003  0.00  0.00     0.033 H 
ATOM     10  H2  <0> d          -0.545   1.864  -0.873  0.00  0.00     0.033 H 
ATOM     11  H3  <0> d          -0.529   1.854   0.907  0.00  0.00     0.033 H 
ENDBRANCH   1   8
BRANCH   2  12
ATOM     12  C7  <0> d          -0.010   0.025  -2.509  0.00  0.00    -0.035 C 
ATOM     13  H7  <0> d           1.013   0.216  -2.831  0.00  0.00     0.035 H 
ATOM     14  H8  <0> d          -0.519  -0.583  -3.256  0.00  0.00     0.035 H 
ATOM     15  H9  <0> d          -0.537   0.972  -2.391  0.00  0.00     0.035 H 
ENDBRANCH   2  12
BRANCH   4  16
ATOM     16  C6  <0> d           0.059  -4.186  -0.022  0.00  0.00    -0.019 C 
ATOM     17  H4  <0> d           1.091  -4.535  -0.029  0.00  0.00     0.037 H 
ATOM     18  H5  <0> d          -0.446  -4.561   0.868  0.00  0.00     0.037 H 
ATOM     19  H6  <0> d          -0.454  -4.550  -0.912  0.00  0.00     0.037 H 
ENDBRANCH   4  16
TORSDOF 3
