REMARK  5 active torsions:
REMARK  status: ('A' for Active; 'I' for Inactive)
REMARK    1  A    between atoms: C1_1  and  C2_2 
REMARK    2  A    between atoms: C4_4  and  C7_8 
REMARK    3  A    between atoms: C5_6  and  C6_7 
REMARK    4  A    between atoms: C7_8  and  O3_10 
REMARK    5  A    between atoms: O3_10  and  C8_11 
ROOT
ATOM      1  C2  <0> d           0.002  -0.004   0.002  0.00  0.00    -0.030 A 
ATOM      2  C3  <0> d           0.009  -0.831  -1.131  0.00  0.00    -0.036 A 
ATOM      3  C4  <0> d           0.028  -2.120  -0.677  0.00  0.00     0.151 A 
ATOM      4  O1  <0> d           0.033  -2.086   0.672  0.00  0.00    -0.309 OA
ATOM      5  C5  <0> d           0.023  -0.813   1.085  0.00  0.00     0.056 A 
ATOM      6  H4  <0> d           0.000  -0.511  -2.163  0.00  0.00     0.089 H 
ENDROOT
BRANCH   3   7
ATOM      7  C7  <0> d           0.041  -3.325  -1.508  0.00  0.00     0.317 C 
ATOM      8  O2  <0> d           0.034  -3.228  -2.721  0.00  0.00    -0.257 OA
BRANCH   7   9
ATOM      9  O3  <0> d           0.060  -4.544  -0.930  0.00  0.00    -0.321 OA
BRANCH   9  10
ATOM     10  C8  <0> d           0.071  -5.676  -1.801  0.00  0.00     0.013 C 
ATOM     11  H8  <0> d          -0.822  -5.663  -2.426  0.00  0.00     0.067 H 
ATOM     12  H9  <0> d           0.958  -5.639  -2.434  0.00  0.00     0.067 H 
ATOM     13  H10 <0> d           0.086  -6.591  -1.208  0.00  0.00     0.067 H 
ENDBRANCH   9  10
ENDBRANCH   7   9
ENDBRANCH   3   7
BRANCH   1  14
ATOM     14  C1  <0> d          -0.018   1.503   0.010  0.00  0.00    -0.049 C 
ATOM     15  H1  <0> d           1.004   1.880   0.003  0.00  0.00     0.033 H 
ATOM     16  H2  <0> d          -0.545   1.864  -0.873  0.00  0.00     0.033 H 
ATOM     17  H3  <0> d          -0.529   1.854   0.907  0.00  0.00     0.033 H 
ENDBRANCH   1  14
BRANCH   5  18
ATOM     18  C6  <0> d           0.032  -0.356   2.521  0.00  0.00    -0.031 C 
ATOM     19  H5  <0> d          -0.994  -0.259   2.877  0.00  0.00     0.036 H 
ATOM     20  H6  <0> d           0.561  -1.087   3.132  0.00  0.00     0.036 H 
ATOM     21  H7  <0> d           0.533   0.609   2.593  0.00  0.00     0.036 H 
ENDBRANCH   5  18
TORSDOF 5
