REMARK  1 active torsions:
REMARK  status: ('A' for Active; 'I' for Inactive)
REMARK    1  A    between atoms: C4_4  and  O1_8 
ROOT
ATOM      1  C1  <0> d          -1.220   1.750   0.017  0.00  0.00    -0.044 A 
ATOM      2  C2  <0> d          -0.013   1.076   0.008  0.00  0.00    -0.056 A 
ATOM      3  C3  <0> d           1.175   1.782   0.000  0.00  0.00     0.067 A 
ATOM      4  C4  <0> d           1.157   3.171   0.008  0.00  0.00     0.090 A 
ATOM      5  C5  <0> d          -0.054   3.846   0.022  0.00  0.00    -0.012 A 
ATOM      6  C6  <0> d          -1.241   3.134   0.030  0.00  0.00     0.119 A 
ATOM      7  F1  <0> d          -2.422   3.791   0.044  0.00  0.00    -0.206 F 
ATOM      8 Cl1  <0> d           2.690   0.934  -0.019  0.00  0.00    -0.081 Cl
ATOM      9  H1  <0> d          -2.147   1.196   0.019  0.00  0.00     0.088 H 
ATOM     10  H2  <0> d           0.002  -0.004   0.002  0.00  0.00     0.086 H 
ATOM     11  H3  <0> d          -0.071   4.926   0.028  0.00  0.00     0.092 H 
ENDROOT
BRANCH   4  12
ATOM     12  O1  <0> d           2.324   3.867   0.001  0.00  0.00    -0.359 OA
ATOM     13  H4  <0> d           2.654   4.073  -0.885  0.00  0.00     0.217 HD
ENDBRANCH   4  12
TORSDOF 1
