REMARK  5 active torsions:
REMARK  status: ('A' for Active; 'I' for Inactive)
REMARK    1  A    between atoms: C1_1  and  C2_2 
REMARK    2  A    between atoms: C1_1  and  C6_7 
REMARK    3  A    between atoms: C2_2  and  C3_3 
REMARK    4  A    between atoms: C3_3  and  C4_4 
REMARK    5  A    between atoms: C6_7  and  C7_8 
ROOT
ATOM      1  C4  <0> d          -0.018   1.468   0.010  0.00  0.00     0.015 C 
ATOM      2  C5  <0> d           0.002  -0.004   0.002  0.00  0.00     0.059 C 
ATOM      3  N1  <0> d           0.018  -1.140  -0.004  0.00  0.00    -0.197 NA
ATOM      4  H7  <0> d           1.005   1.845   0.002  0.00  0.00     0.054 H 
ATOM      5  H8  <0> d          -0.545   1.829  -0.873  0.00  0.00     0.054 H 
ENDROOT
BRANCH   1   6
ATOM      6  C3  <0> d          -0.734   1.961   1.269  0.00  0.00    -0.054 C 
ATOM      7  H5  <0> d          -1.757   1.584   1.277  0.00  0.00     0.034 H 
ATOM      8  H6  <0> d          -0.207   1.600   2.152  0.00  0.00     0.034 H 
BRANCH   6   9
ATOM      9  C2  <0> d          -0.755   3.491   1.277  0.00  0.00    -0.064 C 
ATOM     10  H3  <0> d           0.268   3.868   1.270  0.00  0.00     0.033 H 
ATOM     11  H4  <0> d          -1.282   3.852   0.394  0.00  0.00     0.033 H 
BRANCH   9  12
ATOM     12  C1  <0> d          -1.471   3.984   2.536  0.00  0.00    -0.064 C 
ATOM     13  H1  <0> d          -2.494   3.607   2.544  0.00  0.00     0.033 H 
ATOM     14  H2  <0> d          -0.944   3.623   3.419  0.00  0.00     0.033 H 
BRANCH  12  15
ATOM     15  C6  <0> d          -1.492   5.514   2.545  0.00  0.00    -0.054 C 
ATOM     16  H9  <0> d          -0.469   5.892   2.537  0.00  0.00     0.034 H 
ATOM     17  H10 <0> d          -2.019   5.875   1.661  0.00  0.00     0.034 H 
BRANCH  15  18
ATOM     18  C7  <0> d          -2.208   6.008   3.803  0.00  0.00     0.015 C 
ATOM     19  C8  <0> d          -2.228   7.479   3.811  0.00  0.00     0.059 C 
ATOM     20  N2  <0> d          -2.243   8.615   3.818  0.00  0.00    -0.197 NA
ATOM     21  H11 <0> d          -3.230   5.630   3.811  0.00  0.00     0.054 H 
ATOM     22  H12 <0> d          -1.681   5.647   4.686  0.00  0.00     0.054 H 
ENDBRANCH  15  18
ENDBRANCH  12  15
ENDBRANCH   9  12
ENDBRANCH   6   9
ENDBRANCH   1   6
TORSDOF 5
