REMARK  4 active torsions:
REMARK  status: ('A' for Active; 'I' for Inactive)
REMARK    1  A    between atoms: C1_1  and  C2_2 
REMARK    2  A    between atoms: C3_3  and  C4_4 
REMARK    3  A    between atoms: C6_7  and  C8_10 
REMARK    4  A    between atoms: C6_7  and  C9_11 
ROOT
ATOM      1  C4  <0> d          -1.328   1.812   0.018  0.00  0.00     0.148 C 
ATOM      2  O1  <0> d          -2.067   1.450   1.187  0.00  0.00    -0.357 OA
ATOM      3  C5  <0> d          -3.350   2.078   1.276  0.00  0.00     0.031 C 
ATOM      4  C6  <0> d          -4.168   1.717   0.031  0.00  0.00    -0.004 C 
ATOM      5  C7  <0> d          -3.361   2.091  -1.217  0.00  0.00     0.031 C 
ATOM      6  O2  <0> d          -2.078   1.462  -1.147  0.00  0.00    -0.357 OA
ATOM      7  H6  <0> d          -1.143   2.886   0.023  0.00  0.00     0.136 H 
ATOM      8  H7  <0> d          -3.223   3.159   1.328  0.00  0.00     0.075 H 
ATOM      9  H8  <0> d          -3.869   1.727   2.168  0.00  0.00     0.075 H 
ATOM     10  H9  <0> d          -3.236   3.173  -1.259  0.00  0.00     0.075 H 
ATOM     11  H10 <0> d          -3.888   1.749  -2.108  0.00  0.00     0.075 H 
ENDROOT
BRANCH   1  12
ATOM     12  C3  <0> d          -0.013   1.076   0.008  0.00  0.00    -0.055 C 
ATOM     13  C2  <0> d           1.113   1.746   0.001  0.00  0.00    -0.106 C 
ATOM     14  H4  <0> d           1.098   2.826   0.007  0.00  0.00     0.075 H 
ATOM     15  H5  <0> d           0.002  -0.004   0.002  0.00  0.00     0.083 H 
BRANCH  13  16
ATOM     16  C1  <0> d           2.428   1.010  -0.016  0.00  0.00    -0.060 C 
ATOM     17  H1  <0> d           2.503   0.380   0.870  0.00  0.00     0.032 H 
ATOM     18  H2  <0> d           2.486   0.390  -0.910  0.00  0.00     0.032 H 
ATOM     19  H3  <0> d           3.247   1.730  -0.020  0.00  0.00     0.032 H 
ENDBRANCH  13  16
ENDBRANCH   1  12
BRANCH   4  20
ATOM     20  C8  <0> d          -5.487   2.493   0.042  0.00  0.00    -0.065 C 
ATOM     21  H11 <0> d          -6.062   2.243  -0.850  0.00  0.00     0.028 H 
ATOM     22  H12 <0> d          -6.059   2.225   0.930  0.00  0.00     0.028 H 
ATOM     23  H13 <0> d          -5.279   3.562   0.052  0.00  0.00     0.028 H 
ENDBRANCH   4  20
BRANCH   4  24
ATOM     24  C9  <0> d          -4.457   0.214   0.023  0.00  0.00    -0.065 C 
ATOM     25  H14 <0> d          -3.516  -0.337   0.020  0.00  0.00     0.028 H 
ATOM     26  H15 <0> d          -5.030  -0.050   0.911  0.00  0.00     0.028 H 
ATOM     27  H16 <0> d          -5.030  -0.040  -0.869  0.00  0.00     0.028 H 
ENDBRANCH   4  24
TORSDOF 4
