REMARK  4 active torsions:
REMARK  status: ('A' for Active; 'I' for Inactive)
REMARK    1  A    between atoms: C3_3  and  C6_10 
REMARK    2  A    between atoms: C4_6  and  C5_8 
REMARK    3  A    between atoms: C5_8  and  O2_9 
REMARK    4  A    between atoms: C6_10  and  O3_11 
ROOT
ATOM      1  C1  <0> d           2.536   3.741  -0.129  0.00  0.00    -0.036 C 
ATOM      2  C2  <0> d           2.427   4.949   0.841  0.00  0.00    -0.036 C 
ATOM      3  C3  <0> d           1.518   4.358   1.947  0.00  0.00     0.059 C 
ATOM      4  H1  <0> d           2.110   3.771   2.650  0.00  0.00     0.086 H 
ATOM      5  O1  <0> d           0.585   3.513   1.254  0.00  0.00    -0.376 OA
ATOM      6  C4  <0> d           1.145   3.085   0.008  0.00  0.00     0.059 C 
ATOM      7  H2  <0> d           0.504   3.402  -0.815  0.00  0.00     0.086 H 
ATOM      8  H3  <0> d           3.321   3.056   0.192  0.00  0.00     0.036 H 
ATOM      9  H4  <0> d           2.707   4.078  -1.151  0.00  0.00     0.036 H 
ATOM     10  H5  <0> d           3.404   5.223   1.240  0.00  0.00     0.036 H 
ATOM     11  H6  <0> d           1.951   5.801   0.355  0.00  0.00     0.036 H 
ENDROOT
BRANCH   3  12
ATOM     12  C6  <0> d           0.777   5.477   2.681  0.00  0.00     0.041 C 
ATOM     13  H10 <0> d           1.498   6.201   3.063  0.00  0.00     0.077 H 
ATOM     14  H11 <0> d           0.094   5.974   1.992  0.00  0.00     0.077 H 
BRANCH  12  15
ATOM     15  O3  <0> d           0.036   4.924   3.770  0.00  0.00    -0.398 OA
ATOM     16  H12 <0> d          -0.460   5.578   4.282  0.00  0.00     0.209 HD
ENDBRANCH  12  15
ENDBRANCH   3  12
BRANCH   6  17
ATOM     17  C5  <0> d           1.286   1.562  -0.002  0.00  0.00     0.041 C 
ATOM     18  H7  <0> d           1.840   1.243   0.881  0.00  0.00     0.077 H 
ATOM     19  H8  <0> d           1.823   1.252  -0.899  0.00  0.00     0.077 H 
BRANCH  17  20
ATOM     20  O2  <0> d          -0.011   0.963   0.007  0.00  0.00    -0.398 OA
ATOM     21  H9  <0> d           0.002  -0.004   0.002  0.00  0.00     0.209 HD
ENDBRANCH  17  20
ENDBRANCH   6  17
TORSDOF 4
