REMARK  4 active torsions:
REMARK  status: ('A' for Active; 'I' for Inactive)
REMARK    1  A    between atoms: C1_1  and  C2_2 
REMARK    2  A    between atoms: C6_6  and  S1_9 
REMARK    3  A    between atoms: C7_7  and  N1_8 
REMARK    4  A    between atoms: S1_9  and  C8_10 
ROOT
ATOM      1  C2  <0> d           0.002  -0.004   0.002  0.00  0.00    -0.034 A 
ATOM      2  C3  <0> d           0.006  -0.689  -1.200  0.00  0.00    -0.075 A 
ATOM      3  C4  <0> d           0.024  -2.071  -1.212  0.00  0.00    -0.081 A 
ATOM      4  C5  <0> d           0.040  -2.777  -0.024  0.00  0.00    -0.065 A 
ATOM      5  C6  <0> d           0.036  -2.099   1.186  0.00  0.00     0.026 A 
ATOM      6  C7  <0> d           0.023  -0.703   1.198  0.00  0.00     0.048 A 
ATOM      7  H4  <0> d          -0.006  -0.142  -2.131  0.00  0.00     0.084 H 
ATOM      8  H5  <0> d           0.027  -2.601  -2.153  0.00  0.00     0.083 H 
ATOM      9  H6  <0> d           0.054  -3.857  -0.037  0.00  0.00     0.085 H 
ENDROOT
BRANCH   5  10
ATOM     10  S1  <0> d           0.055  -2.996   2.703  0.00  0.00    -0.132 SA
BRANCH  10  11
ATOM     11  C8  <0> d           0.077  -4.734   2.184  0.00  0.00    -0.030 C 
ATOM     12  H9  <0> d           0.966  -4.923   1.583  0.00  0.00     0.042 H 
ATOM     13  H10 <0> d           0.089  -5.376   3.065  0.00  0.00     0.042 H 
ATOM     14  H11 <0> d          -0.813  -4.948   1.592  0.00  0.00     0.042 H 
ENDBRANCH  10  11
ENDBRANCH   5  10
BRANCH   6  15
ATOM     15  N1  <0> d           0.025  -0.012   2.416  0.00  0.00    -0.398 N 
ATOM     16  H7  <0> d           0.013   0.958   2.423  0.00  0.00     0.156 HD
ATOM     17  H8  <0> d           0.040  -0.503   3.252  0.00  0.00     0.156 HD
ENDBRANCH   6  15
BRANCH   1  18
ATOM     18  C1  <0> d          -0.018   1.503   0.010  0.00  0.00    -0.049 C 
ATOM     19  H1  <0> d           1.004   1.880   0.003  0.00  0.00     0.033 H 
ATOM     20  H2  <0> d          -0.545   1.864  -0.873  0.00  0.00     0.033 H 
ATOM     21  H3  <0> d          -0.529   1.854   0.907  0.00  0.00     0.033 H 
ENDBRANCH   1  18
TORSDOF 4
