REMARK  4 active torsions:
REMARK  status: ('A' for Active; 'I' for Inactive)
REMARK    1  A    between atoms: C1_1  and  C2_2 
REMARK    2  A    between atoms: C6_7  and  C10_13 
REMARK    3  A    between atoms: N1_9  and  C7_10 
REMARK    4  A    between atoms: C7_10  and  C8_11 
ROOT
ATOM      1  C8  <0> d           0.086  -0.034   0.147  0.00  0.00    -0.087 C 
ATOM      2  C9  <0> d           0.129  -1.200   0.284  0.00  0.00    -0.152 C 
ATOM      3  H14 <0> d           0.170  -2.291   0.412  0.00  0.00     0.166 H 
ENDROOT
BRANCH   1   4
ATOM      4  C7  <0> d           0.032   1.427  -0.024  0.00  0.00     0.167 C 
ATOM      5  H12 <0> d          -0.542   1.872   0.802  0.00  0.00     0.099 H 
ATOM      6  H13 <0> d          -0.456   1.666  -0.981  0.00  0.00     0.099 H 
BRANCH   4   7
ATOM      7  N1  <0> d           1.396   1.971  -0.021  0.00  0.00     0.107 N 
ATOM      8  C2  <0> d           2.059   1.722   1.265  0.00  0.00     0.133 C 
ATOM      9  H1  <0> d           1.998   0.641   1.459  0.00  0.00     0.087 H 
ATOM     10  C3  <0> d           3.520   2.170   1.183  0.00  0.00    -0.036 C 
ATOM     11  C4  <0> d           3.572   3.662   0.841  0.00  0.00    -0.061 C 
ATOM     12  H6  <0> d           4.012   1.996   2.151  0.00  0.00     0.036 H 
ATOM     13  H7  <0> d           4.037   1.595   0.401  0.00  0.00     0.036 H 
ATOM     14  C5  <0> d           2.833   3.901  -0.478  0.00  0.00    -0.036 C 
ATOM     15  H8  <0> d           3.091   4.239   1.644  0.00  0.00     0.033 H 
ATOM     16  H9  <0> d           4.621   3.978   0.740  0.00  0.00     0.033 H 
ATOM     17  C6  <0> d           1.392   3.403  -0.348  0.00  0.00     0.133 C 
ATOM     18  H10 <0> d           2.832   4.977  -0.707  0.00  0.00     0.036 H 
ATOM     19  H11 <0> d           3.340   3.355  -1.287  0.00  0.00     0.036 H 
ATOM     20  H2  <0> d           0.877   3.923   0.473  0.00  0.00     0.087 H 
BRANCH   8  21
ATOM     21  C1  <0> d           1.346   2.507   2.367  0.00  0.00    -0.047 C 
ATOM     22  H3  <0> d           1.843   2.321   3.331  0.00  0.00     0.030 H 
ATOM     23  H4  <0> d           0.296   2.185   2.427  0.00  0.00     0.030 H 
ATOM     24  H5  <0> d           1.387   3.582   2.136  0.00  0.00     0.030 H 
ENDBRANCH   8  21
BRANCH  17  25
ATOM     25  C10 <0> d           0.655   3.622  -1.671  0.00  0.00    -0.047 C 
ATOM     26  H15 <0> d          -0.381   3.263  -1.577  0.00  0.00     0.030 H 
ATOM     27  H16 <0> d           1.165   3.065  -2.471  0.00  0.00     0.030 H 
ATOM     28  H17 <0> d           0.651   4.694  -1.915  0.00  0.00     0.030 H 
ENDBRANCH  17  25
ENDBRANCH   4   7
ENDBRANCH   1   4
TORSDOF 4
