REMARK  2 active torsions:
REMARK  status: ('A' for Active; 'I' for Inactive)
REMARK    1  A    between atoms: C1_1  and  C2_2 
REMARK    2  A    between atoms: N1_5  and  N4_11 
ROOT
ATOM      1  C2  <0> d          -1.288   1.938   0.019  0.00  0.00     0.120 A 
ATOM      2  C3  <0> d          -0.014   1.213   0.009  0.00  0.00     0.292 A 
ATOM      3  O1  <0> d           0.002  -0.004   0.002  0.00  0.00    -0.264 OA
ATOM      4  N1  <0> d           1.140   1.912   0.001  0.00  0.00    -0.191 N 
ATOM      5  C4  <0> d           1.112   3.258   0.009  0.00  0.00     0.360 A 
ATOM      6  O2  <0> d           2.158   3.878   0.002  0.00  0.00    -0.243 OA
ATOM      7  N2  <0> d          -0.054   3.927   0.023  0.00  0.00    -0.227 N 
ATOM      8  H1  <0> d          -0.050   4.897   0.028  0.00  0.00     0.194 HD
ATOM      9  N3  <0> d          -1.275   3.242   0.032  0.00  0.00    -0.170 NA
ENDROOT
BRANCH   1  10
ATOM     10  C1  <0> d          -2.595   1.187   0.021  0.00  0.00    -0.029 C 
ATOM     11  H2  <0> d          -2.905   1.000   1.049  0.00  0.00     0.036 H 
ATOM     12  H3  <0> d          -3.356   1.780  -0.486  0.00  0.00     0.036 H 
ATOM     13  H4  <0> d          -2.469   0.237  -0.499  0.00  0.00     0.036 H 
ENDBRANCH   1  10
BRANCH   4  14
ATOM     14  N4  <0> d           2.336   1.253  -0.014  0.00  0.00    -0.236 NA
ATOM     15  H5  <0> d           3.107   1.904  -0.017  0.00  0.00     0.144 HD
ATOM     16  H6  <0> d           2.407   0.614   0.764  0.00  0.00     0.144 HD
ENDBRANCH   4  14
TORSDOF 2
