REMARK  5 active torsions:
REMARK  status: ('A' for Active; 'I' for Inactive)
REMARK    1  A    between atoms: C1_1  and  C2_2 
REMARK    2  A    between atoms: C2_2  and  C3_3 
REMARK    3  A    between atoms: C2_2  and  C4_4 
REMARK    4  A    between atoms: C4_4  and  C5_6 
REMARK    5  A    between atoms: C4_4  and  O1_12 
ROOT
ATOM      1  C4  <0> d          -1.433  -0.534   0.013  0.00  0.00     0.080 C 
ATOM      2  H1  <0> d          -1.944  -0.182   0.910  0.00  0.00     0.093 H 
ENDROOT
BRANCH   1   3
ATOM      3  C2  <0> d           0.002  -0.004   0.002  0.00  0.00    -0.031 C 
ATOM      4  H5  <0> d           0.512  -0.356  -0.895  0.00  0.00     0.043 H 
BRANCH   3   5
ATOM      5  C1  <0> d          -0.019   1.526   0.010  0.00  0.00    -0.071 C 
ATOM      6  H2  <0> d           1.004   1.903   0.003  0.00  0.00     0.028 H 
ATOM      7  H3  <0> d          -0.546   1.887  -0.873  0.00  0.00     0.028 H 
ATOM      8  H4  <0> d          -0.529   1.877   0.907  0.00  0.00     0.028 H 
ENDBRANCH   3   5
BRANCH   3   9
ATOM      9  C3  <0> d           0.742  -0.511   1.242  0.00  0.00    -0.071 C 
ATOM     10  H6  <0> d           0.757  -1.601   1.236  0.00  0.00     0.028 H 
ATOM     11  H7  <0> d           1.765  -0.134   1.234  0.00  0.00     0.028 H 
ATOM     12  H8  <0> d           0.232  -0.159   2.138  0.00  0.00     0.028 H 
ENDBRANCH   3   9
ENDBRANCH   1   3
BRANCH   1  13
ATOM     13  C5  <0> d          -1.413  -2.041   0.005  0.00  0.00     0.063 A 
ATOM     14  N1  <0> d          -0.756  -2.678  -0.944  0.00  0.00    -0.263 NA
ATOM     15  C9  <0> d          -0.706  -3.995  -0.988  0.00  0.00     0.003 A 
ATOM     16  C8  <0> d          -1.357  -4.759  -0.038  0.00  0.00    -0.066 A 
ATOM     17  H12 <0> d          -0.153  -4.482  -1.778  0.00  0.00     0.114 H 
ATOM     18  C7  <0> d          -2.063  -4.124   0.972  0.00  0.00    -0.080 A 
ATOM     19  H11 <0> d          -1.315  -5.838  -0.082  0.00  0.00     0.085 H 
ATOM     20  C6  <0> d          -2.088  -2.738   0.988  0.00  0.00    -0.057 A 
ATOM     21  H10 <0> d          -2.581  -4.696   1.728  0.00  0.00     0.083 H 
ATOM     22  H9  <0> d          -2.628  -2.210   1.761  0.00  0.00     0.086 H 
ENDBRANCH   1  13
BRANCH   1  23
ATOM     23  O1  <0> d          -2.124  -0.060  -1.145  0.00  0.00    -0.389 OA
ATOM     24  H13 <0> d          -1.725  -0.336  -1.981  0.00  0.00     0.210 HD
ENDBRANCH   1  23
TORSDOF 5
