REMARK  4 active torsions:
REMARK  status: ('A' for Active; 'I' for Inactive)
REMARK    1  A    between atoms: C1_1  and  C2_2 
REMARK    2  A    between atoms: C2_2  and  C3_3 
REMARK    3  A    between atoms: C4_4  and  C7_11 
REMARK    4  A    between atoms: C6_8  and  N3_9 
ROOT
ATOM      1  C3  <0> d           1.196   2.019   0.007  0.00  0.00     0.009 A 
ATOM      2  C4  <0> d           2.370   1.292  -0.002  0.00  0.00     0.019 A 
ATOM      3  N1  <0> d           2.313  -0.032  -0.009  0.00  0.00    -0.322 N 
ATOM      4  C5  <0> d           1.149  -0.662  -0.012  0.00  0.00     0.280 A 
ATOM      5  N2  <0> d           0.002  -0.004   0.002  0.00  0.00    -0.189 NA
ATOM      6  C6  <0> d          -0.016   1.325   0.009  0.00  0.00     0.133 A 
ATOM      7  O1  <0> d           1.133  -2.017  -0.019  0.00  0.00    -0.149 OA
ATOM      8  H8  <0> d           3.250  -0.608  -0.012  0.00  0.00     0.169 HD
ENDROOT
BRANCH   1   9
ATOM      9  C2  <0> d           1.222   3.526   0.015  0.00  0.00    -0.039 C 
ATOM     10  H4  <0> d           0.328   3.910  -0.498  0.00  0.00     0.039 H 
ATOM     11  H5  <0> d           2.124   3.879  -0.506  0.00  0.00     0.039 H 
BRANCH   9  12
ATOM     12  C1  <0> d           1.237   4.028   1.460  0.00  0.00    -0.072 C 
ATOM     13  H1  <0> d           1.256   5.128   1.465  0.00  0.00     0.028 H 
ATOM     14  H2  <0> d           2.131   3.643   1.972  0.00  0.00     0.028 H 
ATOM     15  H3  <0> d           0.335   3.675   1.981  0.00  0.00     0.028 H 
ENDBRANCH   9  12
ENDBRANCH   1   9
BRANCH   6  16
ATOM     16  N3  <0> d          -1.219   2.012   0.019  0.00  0.00    -0.383 N 
ATOM     17  H7  <0> d          -2.169   1.457   0.021  0.00  0.00     0.157 HD
ATOM     18  H6  <0> d          -1.224   3.112   0.025  0.00  0.00     0.157 HD
ENDBRANCH   6  16
BRANCH   2  19
ATOM     19  C7  <0> d           3.702   1.996  -0.005  0.00  0.00    -0.037 C 
ATOM     20  H9  <0> d           4.511   1.251  -0.012  0.00  0.00     0.035 H 
ATOM     21  H10 <0> d           3.788   2.622   0.896  0.00  0.00     0.035 H 
ATOM     22  H11 <0> d           3.780   2.631  -0.900  0.00  0.00     0.035 H 
ENDBRANCH   2  19
TORSDOF 4
