REMARK  0 active torsions:
REMARK  status: ('A' for Active; 'I' for Inactive)
ROOT
ATOM      1  C1  <0> d          -0.013   1.086   0.008  0.00  0.00    -0.062 C 
ATOM      2  C2  <0> d          -0.802   1.617   1.230  0.00  0.00    -0.052 C 
ATOM      3  C3  <0> d          -1.269   3.024   0.797  0.00  0.00     0.043 A 
ATOM      4  H1  <0> d          -2.163   3.399   1.294  0.00  0.00     0.057 H 
ATOM      5  C4  <0> d          -1.264   3.040  -0.741  0.00  0.00     0.024 A 
ATOM      6  H2  <0> d          -2.190   3.383  -1.201  0.00  0.00     0.073 H 
ATOM      7  C5  <0> d          -0.826   1.631  -1.193  0.00  0.00    -0.045 C 
ATOM      8  N1  <0> d          -0.175   4.018  -0.752  0.00  0.00    -0.355 N 
ATOM      9  C6  <0> d          -0.132   4.016   0.593  0.00  0.00     0.224 A 
ATOM     10  O1  <0> d           0.573   4.611   1.380  0.00  0.00    -0.273 OA
ATOM     11  H3  <0> d           0.002  -0.004   0.002  0.00  0.00     0.033 H 
ATOM     12  H4  <0> d           1.002   1.484   0.001  0.00  0.00     0.033 H 
ATOM     13  H5  <0> d          -1.661   0.979   1.435  0.00  0.00     0.034 H 
ATOM     14  H6  <0> d          -0.155   1.680   2.104  0.00  0.00     0.034 H 
ATOM     15  H7  <0> d          -0.198   1.693  -2.082  0.00  0.00     0.036 H 
ATOM     16  H8  <0> d          -1.696   1.002  -1.382  0.00  0.00     0.036 H 
ATOM     17  H9  <0> d           0.317   4.481  -1.448  0.00  0.00     0.162 HD
ENDROOT
TORSDOF 0
