REMARK  4 active torsions:
REMARK  status: ('A' for Active; 'I' for Inactive)
REMARK    1  A    between atoms: C3_3  and  O4_14 
REMARK    2  A    between atoms: C4_5  and  O3_13 
REMARK    3  A    between atoms: C5_7  and  O2_12 
REMARK    4  A    between atoms: C6_9  and  O1_11 
ROOT
ATOM      1  C1  <0> d          -0.013   1.076   0.008  0.00  0.00    -0.074 C 
ATOM      2  C2  <0> d          -1.164   1.667   0.017  0.00  0.00    -0.074 C 
ATOM      3  C3  <0> d          -1.344   3.157   0.021  0.00  0.00     0.079 C 
ATOM      4  H1  <0> d          -1.632   3.486  -0.978  0.00  0.00     0.093 H 
ATOM      5  C4  <0> d          -0.039   3.846   0.425  0.00  0.00     0.091 C 
ATOM      6  H2  <0> d          -0.117   4.917   0.238  0.00  0.00     0.091 H 
ATOM      7  C5  <0> d           1.101   3.257  -0.415  0.00  0.00     0.091 C 
ATOM      8  H3  <0> d           2.018   3.819  -0.234  0.00  0.00     0.091 H 
ATOM      9  C6  <0> d           1.303   1.797  -0.001  0.00  0.00     0.079 C 
ATOM     10  H4  <0> d           1.741   1.762   0.997  0.00  0.00     0.093 H 
ATOM     11  H5  <0> d           0.002  -0.004   0.002  0.00  0.00     0.080 H 
ATOM     12  H6  <0> d          -2.050   1.050   0.026  0.00  0.00     0.080 H 
ENDROOT
BRANCH   3  13
ATOM     13  O4  <0> d          -2.372   3.508   0.949  0.00  0.00    -0.389 OA
ATOM     14  H10 <0> d          -3.231   3.107   0.755  0.00  0.00     0.210 HD
ENDBRANCH   3  13
BRANCH   5  15
ATOM     15  O3  <0> d           0.219   3.619   1.812  0.00  0.00    -0.390 OA
ATOM     16  H9  <0> d          -0.464   3.967   2.402  0.00  0.00     0.210 HD
ENDBRANCH   5  15
BRANCH   7  17
ATOM     17  O2  <0> d           0.759   3.320  -1.801  0.00  0.00    -0.390 OA
ATOM     18  H8  <0> d           1.431   2.948  -2.389  0.00  0.00     0.210 HD
ENDBRANCH   7  17
BRANCH   9  19
ATOM     19  O1  <0> d           2.187   1.161  -0.926  0.00  0.00    -0.389 OA
ATOM     20  H7  <0> d           2.370   0.234  -0.720  0.00  0.00     0.210 HD
ENDBRANCH   9  19
TORSDOF 4
