REMARK  0 active torsions:
REMARK  status: ('A' for Active; 'I' for Inactive)
ROOT
ATOM      1  C1  <0> d          -0.017   1.384   0.010  0.00  0.00    -0.064 A 
ATOM      2  C2  <0> d           1.175   2.084   0.002  0.00  0.00    -0.053 A 
ATOM      3  C3  <0> d           2.366   1.360  -0.013  0.00  0.00     0.062 A 
ATOM      4  C4  <0> d           2.311  -0.048  -0.020  0.00  0.00     0.086 A 
ATOM      5  C5  <0> d           3.651  -0.508  -0.036  0.00  0.00    -0.017 A 
ATOM      6  C6  <0> d           4.464   0.581  -0.039  0.00  0.00     0.116 A 
ATOM      7  N1  <0> d           3.692   1.723  -0.025  0.00  0.00    -0.346 N 
ATOM      8  C7  <0> d           5.896   0.547  -0.053  0.00  0.00     0.117 C 
ATOM      9  N2  <0> d           7.031   0.521  -0.064  0.00  0.00    -0.190 NA
ATOM     10  N3  <0> d           1.133  -0.672  -0.012  0.00  0.00    -0.259 NA
ATOM     11  C8  <0> d           0.002  -0.004   0.002  0.00  0.00     0.003 A 
ATOM     12  H1  <0> d          -0.958   1.914   0.026  0.00  0.00     0.085 H 
ATOM     13  H2  <0> d           1.184   3.164   0.007  0.00  0.00     0.087 H 
ATOM     14  H3  <0> d           3.969  -1.540  -0.044  0.00  0.00     0.091 H 
ATOM     15  H4  <0> d          -0.932  -0.546   0.008  0.00  0.00     0.114 H 
ATOM     16  H5  <0> d           4.029   2.633  -0.024  0.00  0.00     0.167 HD
ENDROOT
TORSDOF 0
