REMARK  2 active torsions:
REMARK  status: ('A' for Active; 'I' for Inactive)
REMARK    1  A    between atoms: C1_1  and  C2_2 
REMARK    2  A    between atoms: C4_4  and  C8_9 
REMARK       I    between atoms: C8_9  and  N1_11 
ROOT
ATOM      1  C2  <0> d           1.164   3.438   0.009  0.00  0.00    -0.058 A 
ATOM      2  C3  <0> d          -0.035   4.122   0.024  0.00  0.00    -0.062 A 
ATOM      3  C4  <0> d          -1.238   3.416   0.032  0.00  0.00     0.035 A 
ATOM      4  C5  <0> d          -1.223   2.020   0.019  0.00  0.00    -0.030 A 
ATOM      5  C6  <0> d          -0.016   1.347   0.009  0.00  0.00     0.117 A 
ATOM      6  C7  <0> d           1.175   2.055   0.002  0.00  0.00    -0.040 A 
ATOM      7  F1  <0> d           0.002  -0.004   0.002  0.00  0.00    -0.206 F 
ATOM      8  H4  <0> d          -0.041   5.202   0.029  0.00  0.00     0.085 H 
ATOM      9  H5  <0> d          -2.151   1.468   0.020  0.00  0.00     0.089 H 
ATOM     10  H6  <0> d           2.116   1.525  -0.010  0.00  0.00     0.089 H 
ENDROOT
BRANCH   3  11
ATOM     11  C8  <0> d          -2.525   4.144   0.048  0.00  0.00     0.249 C 
ATOM     12  O1  <0> d          -2.536   5.359   0.054  0.00  0.00    -0.268 OA
ATOM     13  N1  <0> d          -3.686   3.459   0.055  0.00  0.00    -0.366 N 
ATOM     14  H7  <0> d          -3.678   2.489   0.050  0.00  0.00     0.159 HD
ATOM     15  H8  <0> d          -4.531   3.936   0.065  0.00  0.00     0.159 HD
ENDBRANCH   3  11
BRANCH   1  16
ATOM     16  C1  <0> d           2.464   4.200   0.001  0.00  0.00    -0.051 C 
ATOM     17  H1  <0> d           2.768   4.389  -1.028  0.00  0.00     0.033 H 
ATOM     18  H2  <0> d           2.332   5.149   0.521  0.00  0.00     0.033 H 
ATOM     19  H3  <0> d           3.232   3.613   0.504  0.00  0.00     0.033 H 
ENDBRANCH   1  16
TORSDOF 2
