REMARK  0 active torsions:
REMARK  status: ('A' for Active; 'I' for Inactive)
ROOT
ATOM      1  C1  <0> d           1.248   1.805  -0.000  0.00  0.00    -0.045 A 
ATOM      2  C2  <0> d          -0.016   1.342   0.009  0.00  0.00     0.020 A 
ATOM      3  O1  <0> d           0.002  -0.004   0.002  0.00  0.00    -0.326 OA
ATOM      4  C3  <0> d           1.248  -0.463  -0.013  0.00  0.00     0.066 A 
ATOM      5  C4  <0> d           2.095   0.622  -0.014  0.00  0.00     0.041 A 
ATOM      6  C5  <0> d           3.554   0.475  -0.025  0.00  0.00     0.162 C 
ATOM      7  O2  <0> d           4.301   1.411  -0.224  0.00  0.00    -0.292 OA
ATOM      8  C6  <0> d           4.064  -0.936   0.232  0.00  0.00    -0.005 C 
ATOM      9  C7  <0> d           3.184  -1.915  -0.552  0.00  0.00    -0.053 C 
ATOM     10  C8  <0> d           1.744  -1.886  -0.030  0.00  0.00    -0.019 C 
ATOM     11  H1  <0> d           1.567   2.837   0.002  0.00  0.00     0.087 H 
ATOM     12  H2  <0> d          -0.905   1.955   0.017  0.00  0.00     0.123 H 
ATOM     13  H3  <0> d           5.014  -1.008  -0.070  0.00  0.00     0.044 H 
ATOM     14  H4  <0> d           4.004  -1.160   1.298  0.00  0.00     0.044 H 
ATOM     15  H5  <0> d           3.189  -1.636  -1.606  0.00  0.00     0.034 H 
ATOM     16  H6  <0> d           3.584  -2.923  -0.446  0.00  0.00     0.034 H 
ATOM     17  H7  <0> d           1.716  -2.293   0.980  0.00  0.00     0.043 H 
ATOM     18  H8  <0> d           1.109  -2.485  -0.683  0.00  0.00     0.043 H 
ENDROOT
TORSDOF 0
