REMARK  3 active torsions:
REMARK  status: ('A' for Active; 'I' for Inactive)
REMARK    1  A    between atoms: C4_5  and  C5_7 
REMARK    2  A    between atoms: C5_7  and  C6_8 
REMARK    3  A    between atoms: C6_8  and  C7_9 
ROOT
ATOM      1  C1  <0> d          -2.249   1.504   0.749  0.00  0.00    -0.040 C 
ATOM      2  C2  <0> d          -2.107   1.829  -0.754  0.00  0.00     0.020 C 
ATOM      3  O1  <0> d          -0.746   1.581  -1.124  0.00  0.00    -0.391 OA
ATOM      4  C3  <0> d          -0.013   1.086   0.008  0.00  0.00     0.023 C 
ATOM      5  C4  <0> d          -0.780   1.606   1.249  0.00  0.00    -0.031 C 
ATOM      6  H1  <0> d          -0.512   2.639   1.472  0.00  0.00     0.043 H 
ATOM      7  H2  <0> d          -2.881   2.240   1.246  0.00  0.00     0.036 H 
ATOM      8  H3  <0> d          -2.642   0.498   0.892  0.00  0.00     0.036 H 
ATOM      9  H4  <0> d          -2.354   2.876  -0.931  0.00  0.00     0.074 H 
ATOM     10  H5  <0> d          -2.771   1.188  -1.335  0.00  0.00     0.074 H 
ATOM     11  H6  <0> d           0.002  -0.004   0.002  0.00  0.00     0.074 H 
ATOM     12  H7  <0> d           1.004   1.477   0.000  0.00  0.00     0.074 H 
ENDROOT
BRANCH   5  13
ATOM     13  C5  <0> d          -0.544   0.704   2.462  0.00  0.00    -0.051 C 
ATOM     14  H8  <0> d          -1.183   1.026   3.284  0.00  0.00     0.034 H 
ATOM     15  H9  <0> d          -0.782  -0.327   2.200  0.00  0.00     0.034 H 
BRANCH  13  16
ATOM     16  C6  <0> d           0.922   0.796   2.889  0.00  0.00     0.016 C 
ATOM     17  H10 <0> d           1.561   0.473   2.066  0.00  0.00     0.049 H 
ATOM     18  H11 <0> d           1.160   1.827   3.151  0.00  0.00     0.049 H 
BRANCH  16  19
ATOM     19  C7  <0> d           1.155  -0.093   4.083  0.00  0.00     0.172 C 
ATOM     20  O2  <0> d           0.241  -0.734   4.546  0.00  0.00    -0.648 OA
ATOM     21  O3  <0> d           2.377  -0.172   4.633  0.00  0.00    -0.648 OA
ENDBRANCH  16  19
ENDBRANCH  13  16
ENDBRANCH   5  13
TORSDOF 3
