REMARK  8 active torsions:
REMARK  status: ('A' for Active; 'I' for Inactive)
REMARK    1  A    between atoms: C1_1  and  C2_2 
REMARK    2  A    between atoms: C2_2  and  C3_3 
REMARK    3  A    between atoms: C3_3  and  C4_4 
REMARK    4  A    between atoms: C3_3  and  C8_9 
REMARK    5  A    between atoms: C4_4  and  C5_5 
REMARK    6  A    between atoms: C5_5  and  O1_6 
REMARK    7  A    between atoms: O1_6  and  C6_7 
REMARK    8  A    between atoms: C6_7  and  C7_8 
ROOT
ATOM      1  C3  <0> d          -1.412  -0.526   0.013  0.00  0.00     0.028 C 
ENDROOT
BRANCH   1   2
ATOM      2  C2  <0> d           0.002  -0.004   0.002  0.00  0.00    -0.051 C 
ATOM      3  H4  <0> d           0.512  -0.356  -0.895  0.00  0.00     0.035 H 
ATOM      4  H5  <0> d           0.529  -0.365   0.885  0.00  0.00     0.035 H 
BRANCH   2   5
ATOM      5  C1  <0> d          -0.019   1.526   0.010  0.00  0.00    -0.075 C 
ATOM      6  H1  <0> d           1.004   1.903   0.003  0.00  0.00     0.027 H 
ATOM      7  H2  <0> d          -0.546   1.887  -0.873  0.00  0.00     0.027 H 
ATOM      8  H3  <0> d          -0.529   1.877   0.907  0.00  0.00     0.027 H 
ENDBRANCH   2   5
ENDBRANCH   1   2
BRANCH   1   9
ATOM      9  C4  <0> d          -2.001  -0.838  -1.111  0.00  0.00    -0.137 C 
BRANCH   9  10
ATOM     10  C5  <0> d          -2.591  -1.151  -2.235  0.00  0.00     0.120 C 
ATOM     11  H6  <0> d          -2.512  -2.155  -2.625  0.00  0.00     0.107 H 
BRANCH  10  12
ATOM     12  O1  <0> d          -3.301  -0.217  -2.909  0.00  0.00    -0.371 OA
BRANCH  12  13
ATOM     13  C6  <0> d          -3.919  -0.629  -4.130  0.00  0.00     0.018 C 
ATOM     14  H7  <0> d          -3.155  -0.974  -4.826  0.00  0.00     0.073 H 
ATOM     15  H8  <0> d          -4.619  -1.439  -3.928  0.00  0.00     0.073 H 
BRANCH  13  16
ATOM     16  C7  <0> d          -4.672   0.553  -4.744  0.00  0.00    -0.056 C 
ATOM     17  H9  <0> d          -5.143   0.240  -5.675  0.00  0.00     0.030 H 
ATOM     18  H10 <0> d          -5.436   0.899  -4.048  0.00  0.00     0.030 H 
ATOM     19  H11 <0> d          -3.972   1.364  -4.946  0.00  0.00     0.030 H 
ENDBRANCH  13  16
ENDBRANCH  12  13
ENDBRANCH  10  12
ENDBRANCH   9  10
ENDBRANCH   1   9
BRANCH   1  20
ATOM     20  C8  <0> d          -2.146  -0.687   1.319  0.00  0.00    -0.058 C 
ATOM     21  H12 <0> d          -2.678   0.235   1.553  0.00  0.00     0.029 H 
ATOM     22  H13 <0> d          -2.859  -1.507   1.236  0.00  0.00     0.029 H 
ATOM     23  H14 <0> d          -1.431  -0.905   2.113  0.00  0.00     0.029 H 
ENDBRANCH   1  20
TORSDOF 8
