REMARK  3 active torsions:
REMARK  status: ('A' for Active; 'I' for Inactive)
REMARK    1  A    between atoms: C1_1  and  N1_2 
REMARK    2  A    between atoms: C4_6  and  C6_9 
REMARK    3  A    between atoms: C6_9  and  O2_10 
ROOT
ATOM      1  N1  <0> d          -2.792  -2.569   0.063  0.00  0.00     0.088 N 
ATOM      2  C2  <0> d          -3.434  -2.168  -1.198  0.00  0.00     0.132 C 
ATOM      3  C3  <0> d          -3.433  -0.641  -1.302  0.00  0.00     0.045 C 
ATOM      4  O1  <0> d          -2.089  -0.162  -1.203  0.00  0.00    -0.380 OA
ATOM      5  C4  <0> d          -1.433  -0.534   0.013  0.00  0.00     0.084 C 
ATOM      6  H1  <0> d          -2.018  -0.076   0.825  0.00  0.00     0.089 H 
ATOM      7  C5  <0> d          -1.414  -2.060   0.130  0.00  0.00     0.138 C 
ATOM      8  H5  <0> d          -2.877  -2.596  -2.045  0.00  0.00     0.083 H 
ATOM      9  H6  <0> d          -4.470  -2.538  -1.216  0.00  0.00     0.083 H 
ATOM     10  H7  <0> d          -3.861  -0.339  -2.269  0.00  0.00     0.077 H 
ATOM     11  H8  <0> d          -4.036  -0.217  -0.485  0.00  0.00     0.077 H 
ATOM     12  H9  <0> d          -0.963  -2.350   1.091  0.00  0.00     0.084 H 
ATOM     13  H10 <0> d          -0.825  -2.486  -0.695  0.00  0.00     0.084 H 
ENDROOT
BRANCH   5  14
ATOM     14  C6  <0> d           0.002  -0.004   0.002  0.00  0.00     0.042 C 
ATOM     15  H11 <0> d           0.534  -0.369   0.893  0.00  0.00     0.077 H 
ATOM     16  H12 <0> d           0.517  -0.359  -0.903  0.00  0.00     0.077 H 
BRANCH  14  17
ATOM     17  O2  <0> d          -0.017   1.425   0.010  0.00  0.00    -0.398 OA
ATOM     18  H13 <0> d           0.928   1.988   0.004  0.00  0.00     0.209 HD
ENDBRANCH  14  17
ENDBRANCH   5  14
BRANCH   1  19
ATOM     19  C1  <0> d          -2.823  -4.028   0.229  0.00  0.00     0.095 C 
ATOM     20  H2  <0> d          -3.863  -4.381   0.174  0.00  0.00     0.071 H 
ATOM     21  H3  <0> d          -2.396  -4.295   1.207  0.00  0.00     0.071 H 
ATOM     22  H4  <0> d          -2.233  -4.501  -0.570  0.00  0.00     0.071 H 
ENDBRANCH   1  19
TORSDOF 3
