REMARK  3 active torsions:
REMARK  status: ('A' for Active; 'I' for Inactive)
REMARK    1  A    between atoms: C1_1  and  C2_2 
REMARK    2  A    between atoms: C4_5  and  C5_7 
REMARK    3  A    between atoms: C5_7  and  O1_8 
ROOT
ATOM      1  C2  <0> d           0.364   4.123   0.021  0.00  0.00    -0.002 A 
ATOM      2  C3  <0> d          -0.898   3.621   0.030  0.00  0.00     0.015 A 
ATOM      3  N1  <0> d          -1.051   2.314   0.019  0.00  0.00    -0.255 NA
ATOM      4  C4  <0> d          -0.018   1.503   0.010  0.00  0.00     0.098 A 
ATOM      5  S1  <0> d           1.318   2.612   0.004  0.00  0.00    -0.076 SA
ATOM      6  H4  <0> d          -1.754   4.279   0.042  0.00  0.00     0.116 H 
ENDROOT
BRANCH   4   7
ATOM      7  C5  <0> d           0.002  -0.004   0.002  0.00  0.00     0.063 C 
ATOM      8  H5  <0> d           0.910  -0.361   0.510  0.00  0.00     0.084 H 
ATOM      9  H6  <0> d          -0.886  -0.386   0.527  0.00  0.00     0.084 H 
BRANCH   7  10
ATOM     10  O1  <0> d          -0.004  -0.473  -1.348  0.00  0.00    -0.394 OA
ATOM     11  H7  <0> d           0.009  -1.553  -1.555  0.00  0.00     0.209 HD
ENDBRANCH   7  10
ENDBRANCH   4   7
BRANCH   1  12
ATOM     12  C1  <0> d           0.830   5.556   0.024  0.00  0.00    -0.044 C 
ATOM     13  H1  <0> d          -0.043   6.225   0.036  0.00  0.00     0.034 H 
ATOM     14  H2  <0> d           1.428   5.749  -0.879  0.00  0.00     0.034 H 
ATOM     15  H3  <0> d           1.445   5.739   0.917  0.00  0.00     0.034 H 
ENDBRANCH   1  12
TORSDOF 3
