REMARK  2 active torsions:
REMARK  status: ('A' for Active; 'I' for Inactive)
REMARK    1  A    between atoms: C1_1  and  C2_2 
REMARK    2  A    between atoms: C2_2  and  C5_7 
ROOT
ATOM      1  C2  <0> d           0.002  -0.004   0.002  0.00  0.00     0.034 A 
ATOM      2  C3  <0> d          -1.396  -0.622  -0.003  0.00  0.00     0.032 A 
ATOM      3  C4  <0> d          -0.958  -1.136   1.342  0.00  0.00     0.220 A 
ATOM      4  O1  <0> d          -1.521  -1.822   2.169  0.00  0.00    -0.274 OA
ATOM      5  N1  <0> d           0.268  -0.581   1.321  0.00  0.00    -0.352 N 
ATOM      6  H4  <0> d          -2.209   0.104   0.035  0.00  0.00     0.050 H 
ATOM      7  H5  <0> d          -1.543  -1.397  -0.755  0.00  0.00     0.050 H 
ATOM      8  H6  <0> d           1.021  -0.568   1.931  0.00  0.00     0.163 HD
ENDROOT
BRANCH   1   9
ATOM      9  C1  <0> d          -0.019   1.526   0.010  0.00  0.00    -0.053 C 
ATOM     10  H1  <0> d           1.004   1.903   0.003  0.00  0.00     0.030 H 
ATOM     11  H2  <0> d          -0.546   1.887  -0.873  0.00  0.00     0.030 H 
ATOM     12  H3  <0> d          -0.529   1.877   0.907  0.00  0.00     0.030 H 
ENDBRANCH   1   9
BRANCH   1  13
ATOM     13  C5  <0> d           0.909  -0.569  -1.093  0.00  0.00    -0.053 C 
ATOM     14  H7  <0> d           1.886  -0.088  -1.040  0.00  0.00     0.030 H 
ATOM     15  H8  <0> d           1.025  -1.644  -0.950  0.00  0.00     0.030 H 
ATOM     16  H9  <0> d           0.463  -0.378  -2.069  0.00  0.00     0.030 H 
ENDBRANCH   1  13
TORSDOF 2
