REMARK  0 active torsions:
REMARK  status: ('A' for Active; 'I' for Inactive)
ROOT
ATOM      1  C1  <0> d          -0.019   1.537   0.011  0.00  0.00     0.086 C 
ATOM      2  C2  <0> d           0.002  -0.004   0.002  0.00  0.00     0.330 C 
ATOM      3  C3  <0> d           1.506  -0.363  -0.067  0.00  0.00     0.330 C 
ATOM      4  C4  <0> d           2.126   0.942  -0.630  0.00  0.00     0.086 C 
ATOM      5  O1  <0> d           1.348   1.983  -0.000  0.00  0.00    -0.379 OA
ATOM      6  F1  <0> d           2.011  -0.647   1.206  0.00  0.00    -0.197 F 
ATOM      7  F2  <0> d           1.724  -1.435  -0.939  0.00  0.00    -0.197 F 
ATOM      8  F3  <0> d          -0.568  -0.508   1.176  0.00  0.00    -0.197 F 
ATOM      9  F4  <0> d          -0.671  -0.497  -1.121  0.00  0.00    -0.197 F 
ATOM     10  H1  <0> d          -0.536   1.905  -0.875  0.00  0.00     0.083 H 
ATOM     11  H2  <0> d          -0.519   1.896   0.910  0.00  0.00     0.083 H 
ATOM     12  H3  <0> d           3.175   1.022  -0.346  0.00  0.00     0.083 H 
ATOM     13  H4  <0> d           2.016   0.983  -1.713  0.00  0.00     0.083 H 
ENDROOT
TORSDOF 0
