REMARK  4 active torsions:
REMARK  status: ('A' for Active; 'I' for Inactive)
REMARK    1  A    between atoms: C1_1  and  C2_2 
REMARK    2  A    between atoms: C2_2  and  O1_13 
REMARK    3  A    between atoms: C8_10  and  C9_11 
REMARK    4  A    between atoms: C8_10  and  C10_12 
ROOT
ATOM      1  C2  <0> d          -0.503  -0.344   0.017  0.00  0.00     0.059 C 
ATOM      2  C3  <0> d          -1.777  -1.181   0.195  0.00  0.00    -0.036 C 
ATOM      3  C4  <0> d          -1.374  -2.611   0.582  0.00  0.00    -0.058 C 
ATOM      4  C5  <0> d          -0.311  -2.525   1.691  0.00  0.00    -0.046 C 
ATOM      5  H1  <0> d          -0.266  -3.400   2.340  0.00  0.00     0.041 H 
ATOM      6  C6  <0> d          -0.381  -1.164   2.415  0.00  0.00    -0.054 C 
ATOM      7  C7  <0> d           0.422  -0.619   1.216  0.00  0.00    -0.017 C 
ATOM      8  H2  <0> d           1.114   0.192   1.444  0.00  0.00     0.045 H 
ATOM      9  C8  <0> d           1.042  -2.046   1.129  0.00  0.00    -0.038 C 
ATOM     10  H6  <0> d          -2.392  -0.748   0.984  0.00  0.00     0.037 H 
ATOM     11  H7  <0> d          -2.337  -1.199  -0.741  0.00  0.00     0.037 H 
ATOM     12  H8  <0> d          -2.246  -3.153   0.950  0.00  0.00     0.033 H 
ATOM     13  H9  <0> d          -0.960  -3.125  -0.286  0.00  0.00     0.033 H 
ATOM     14  H10 <0> d          -1.390  -0.757   2.491  0.00  0.00     0.034 H 
ATOM     15  H11 <0> d           0.163  -1.138   3.359  0.00  0.00     0.034 H 
ENDROOT
BRANCH   9  16
ATOM     16  C9  <0> d           1.325  -2.527  -0.295  0.00  0.00    -0.069 C 
ATOM     17  H12 <0> d           0.404  -2.498  -0.878  0.00  0.00     0.028 H 
ATOM     18  H13 <0> d           2.068  -1.878  -0.757  0.00  0.00     0.028 H 
ATOM     19  H14 <0> d           1.704  -3.549  -0.265  0.00  0.00     0.028 H 
ENDBRANCH   9  16
BRANCH   9  20
ATOM     20  C10 <0> d           2.219  -2.265   2.082  0.00  0.00    -0.069 C 
ATOM     21  H15 <0> d           2.538  -3.306   2.031  0.00  0.00     0.028 H 
ATOM     22  H16 <0> d           3.046  -1.616   1.793  0.00  0.00     0.028 H 
ATOM     23  H17 <0> d           1.911  -2.029   3.101  0.00  0.00     0.028 H 
ENDBRANCH   9  20
BRANCH   1  24
ATOM     24  C1  <0> d          -0.863   1.143  -0.028  0.00  0.00    -0.048 C 
ATOM     25  H3  <0> d           0.047   1.734  -0.130  0.00  0.00     0.031 H 
ATOM     26  H4  <0> d          -1.518   1.333  -0.878  0.00  0.00     0.031 H 
ATOM     27  H5  <0> d          -1.375   1.420   0.894  0.00  0.00     0.031 H 
ENDBRANCH   1  24
BRANCH   1  28
ATOM     28  O1  <0> d           0.155  -0.717  -1.196  0.00  0.00    -0.390 OA
ATOM     29  H18 <0> d          -0.377  -0.579  -1.991  0.00  0.00     0.210 HD
ENDBRANCH   1  28
TORSDOF 4
