REMARK  3 active torsions:
REMARK  status: ('A' for Active; 'I' for Inactive)
REMARK    1  A    between atoms: C1_1  and  C2_2 
REMARK    2  A    between atoms: C2_2  and  C3_3 
REMARK    3  A    between atoms: C3_3  and  C4_5 
ROOT
ATOM      1  C4  <0> d          -0.829   1.632  -1.185  0.00  0.00     0.090 C 
ATOM      2  H1  <0> d          -0.365   2.411  -1.607  0.00  0.00     0.067 H 
ATOM      3  C5  <0> d          -0.013   1.086   0.008  0.00  0.00    -0.026 C 
ATOM      4  C6  <0> d          -0.806   1.619   1.223  0.00  0.00     0.030 C 
ATOM      5  O2  <0> d          -2.174   1.763   0.722  0.00  0.00    -0.321 OA
ATOM      6  C7  <0> d          -2.154   2.052  -0.587  0.00  0.00     0.270 C 
ATOM      7  O3  <0> d          -3.059   2.569  -1.198  0.00  0.00    -0.264 OA
ATOM      8  H7  <0> d           0.002  -0.004   0.002  0.00  0.00     0.038 H 
ATOM      9  H8  <0> d           1.001   1.486   0.001  0.00  0.00     0.038 H 
ATOM     10  H9  <0> d          -0.771   0.903   2.044  0.00  0.00     0.075 H 
ATOM     11  H10 <0> d          -0.412   2.584   1.541  0.00  0.00     0.075 H 
ENDROOT
BRANCH   1  12
ATOM     12  C3  <0> d          -1.037   0.552  -2.216  0.00  0.00     0.140 C 
ATOM     13  O1  <0> d          -1.099  -0.604  -1.875  0.00  0.00    -0.297 OA
BRANCH  12  14
ATOM     14  C2  <0> d          -1.167   0.917  -3.672  0.00  0.00    -0.012 C 
ATOM     15  H5  <0> d          -1.952   1.523  -3.796  0.00  0.00     0.043 H 
ATOM     16  H6  <0> d          -0.260   1.425  -4.002  0.00  0.00     0.043 H 
BRANCH  14  17
ATOM     17  C1  <0> d          -1.369  -0.354  -4.500  0.00  0.00    -0.070 C 
ATOM     18  H2  <0> d          -1.462  -0.091  -5.553  0.00  0.00     0.028 H 
ATOM     19  H3  <0> d          -0.512  -1.015  -4.366  0.00  0.00     0.028 H 
ATOM     20  H4  <0> d          -2.275  -0.862  -4.170  0.00  0.00     0.028 H 
ENDBRANCH  14  17
ENDBRANCH  12  14
ENDBRANCH   1  12
TORSDOF 3
