REMARK  3 active torsions:
REMARK  status: ('A' for Active; 'I' for Inactive)
REMARK    1  A    between atoms: C1_1  and  C2_2 
REMARK    2  A    between atoms: N1_5  and  C7_8 
REMARK    3  A    between atoms: C5_6  and  C6_7 
ROOT
ATOM      1  C2  <0> d           0.002  -0.004   0.002  0.00  0.00    -0.038 A 
ATOM      2  C3  <0> d          -0.004  -0.832  -1.139  0.00  0.00    -0.060 A 
ATOM      3  C4  <0> d           0.023  -2.111  -0.712  0.00  0.00    -0.015 A 
ATOM      4  N1  <0> d           0.036  -2.104   0.654  0.00  0.00    -0.337 N 
ATOM      5  C5  <0> d           0.023  -0.807   1.085  0.00  0.00     0.017 A 
ATOM      6  H4  <0> d          -0.024  -0.502  -2.167  0.00  0.00     0.086 H 
ATOM      7  H5  <0> d           0.028  -2.988  -1.341  0.00  0.00     0.112 H 
ENDROOT
BRANCH   4   8
ATOM      8  C7  <0> d           0.060  -3.233   1.473  0.00  0.00    -0.025 C 
ATOM      9  C8  <0> d           0.070  -4.437   0.936  0.00  0.00    -0.106 C 
ATOM     10  H10 <0> d           0.089  -5.311   1.570  0.00  0.00     0.068 H 
ATOM     11  H11 <0> d           0.061  -4.549  -0.138  0.00  0.00     0.068 H 
ATOM     12  H9  <0> d           0.069  -3.121   2.547  0.00  0.00     0.110 H 
ENDBRANCH   4   8
BRANCH   5  13
ATOM     13  C6  <0> d           0.032  -0.353   2.522  0.00  0.00    -0.036 C 
ATOM     14  H6  <0> d          -0.994  -0.258   2.878  0.00  0.00     0.035 H 
ATOM     15  H7  <0> d           0.561  -1.086   3.131  0.00  0.00     0.035 H 
ATOM     16  H8  <0> d           0.534   0.611   2.595  0.00  0.00     0.035 H 
ENDBRANCH   5  13
BRANCH   1  17
ATOM     17  C1  <0> d          -0.018   1.503   0.010  0.00  0.00    -0.049 C 
ATOM     18  H1  <0> d           1.004   1.880   0.003  0.00  0.00     0.033 H 
ATOM     19  H2  <0> d          -0.545   1.864  -0.873  0.00  0.00     0.033 H 
ATOM     20  H3  <0> d          -0.529   1.854   0.907  0.00  0.00     0.033 H 
ENDBRANCH   1  17
TORSDOF 3
