REMARK  1 active torsions:
REMARK  status: ('A' for Active; 'I' for Inactive)
REMARK    1  A    between atoms: C5_5  and  O1_9 
ROOT
ATOM      1  C1  <0> d           3.141   2.406   1.186  0.00  0.00    -0.057 A 
ATOM      2  C2  <0> d           3.746   2.697  -0.017  0.00  0.00    -0.041 A 
ATOM      3  C3  <0> d           3.100   2.411  -1.211  0.00  0.00     0.157 A 
ATOM      4  C4  <0> d           1.842   1.830  -1.205  0.00  0.00     0.189 A 
ATOM      5  C5  <0> d           1.222   1.532  -0.001  0.00  0.00     0.128 A 
ATOM      6  C6  <0> d           1.870   1.826   1.207  0.00  0.00     0.081 A 
ATOM      7  C7  <0> d           1.235   1.527   2.455  0.00  0.00     0.102 C 
ATOM      8  N1  <0> d           0.732   1.290   3.445  0.00  0.00    -0.191 NA
ATOM      9  F1  <0> d           1.220   1.554  -2.372  0.00  0.00    -0.200 F 
ATOM     10  F2  <0> d           3.701   2.701  -2.386  0.00  0.00    -0.203 F 
ATOM     11  H1  <0> d           3.648   2.630   2.114  0.00  0.00     0.086 H 
ATOM     12  H2  <0> d           4.726   3.150  -0.031  0.00  0.00     0.088 H 
ENDROOT
BRANCH   5  13
ATOM     13  O1  <0> d          -0.011   0.963   0.007  0.00  0.00    -0.356 OA
ATOM     14  H3  <0> d           0.002  -0.004   0.002  0.00  0.00     0.218 HD
ENDBRANCH   5  13
TORSDOF 1
