REMARK  4 active torsions:
REMARK  status: ('A' for Active; 'I' for Inactive)
REMARK    1  A    between atoms: C1_1  and  C2_2 
REMARK    2  A    between atoms: C2_2  and  C3_3 
REMARK    3  A    between atoms: C3_3  and  C4_4 
REMARK    4  A    between atoms: C4_4  and  N1_5 
ROOT
ATOM      1  C4  <0> d          -0.729   1.579   1.267  0.00  0.00     0.000 C 
ATOM      2  H8  <0> d          -0.744   2.669   1.273  0.00  0.00     0.064 H 
ATOM      3  H9  <0> d          -1.751   1.202   1.275  0.00  0.00     0.064 H 
ENDROOT
BRANCH   1   4
ATOM      4  C3  <0> d          -0.013   1.086   0.008  0.00  0.00    -0.050 C 
ATOM      5  H6  <0> d           0.002  -0.004   0.002  0.00  0.00     0.035 H 
ATOM      6  H7  <0> d           1.010   1.463   0.000  0.00  0.00     0.035 H 
BRANCH   4   7
ATOM      7  C2  <0> d          -0.753   1.593  -1.232  0.00  0.00    -0.067 C 
ATOM      8  H4  <0> d          -1.775   1.215  -1.224  0.00  0.00     0.032 H 
ATOM      9  H5  <0> d          -0.767   2.683  -1.226  0.00  0.00     0.032 H 
BRANCH   7  10
ATOM     10  C1  <0> d          -0.037   1.099  -2.490  0.00  0.00    -0.076 C 
ATOM     11  H1  <0> d          -0.564   1.460  -3.373  0.00  0.00     0.027 H 
ATOM     12  H2  <0> d           0.986   1.476  -2.498  0.00  0.00     0.027 H 
ATOM     13  H3  <0> d          -0.022   0.009  -2.496  0.00  0.00     0.027 H 
ENDBRANCH   7  10
ENDBRANCH   4   7
ENDBRANCH   1   4
BRANCH   1  14
ATOM     14  N1  <0> d          -0.020   1.094   2.454  0.00  0.00    -0.350 N 
ATOM     15  C7  <0> d           0.982   1.725   3.102  0.00  0.00     0.065 A 
ATOM     16  N2  <0> d           1.359   0.986   4.110  0.00  0.00    -0.255 NA
ATOM     17  H12 <0> d           1.403   2.682   2.831  0.00  0.00     0.143 H 
ATOM     18  C6  <0> d           0.618  -0.132   4.140  0.00  0.00     0.018 A 
ATOM     19  C5  <0> d          -0.255  -0.081   3.116  0.00  0.00    -0.003 A 
ATOM     20  H11 <0> d           0.703  -0.930   4.862  0.00  0.00     0.117 H 
ATOM     21  H10 <0> d          -0.996  -0.825   2.864  0.00  0.00     0.113 H 
ENDBRANCH   1  14
TORSDOF 4
