REMARK  4 active torsions:
REMARK  status: ('A' for Active; 'I' for Inactive)
REMARK    1  A    between atoms: C1_1  and  C2_2 
REMARK    2  A    between atoms: C2_2  and  C3_3 
REMARK    3  A    between atoms: C5_5  and  O2_10 
REMARK    4  A    between atoms: C8_8  and  O1_9 
ROOT
ATOM      1  C3  <0> d          -0.749   3.086   1.275  0.00  0.00    -0.023 A 
ATOM      2  C4  <0> d           0.225   3.786   1.961  0.00  0.00    -0.042 A 
ATOM      3  C5  <0> d           0.208   5.173   1.964  0.00  0.00     0.066 A 
ATOM      4  C6  <0> d          -0.792   5.857   1.289  0.00  0.00    -0.048 A 
ATOM      5  C7  <0> d          -1.768   5.157   0.608  0.00  0.00    -0.048 A 
ATOM      6  C8  <0> d          -1.749   3.770   0.599  0.00  0.00     0.072 A 
ATOM      7  H6  <0> d           1.000   3.254   2.490  0.00  0.00     0.088 H 
ATOM      8  H7  <0> d          -0.807   6.937   1.296  0.00  0.00     0.087 H 
ATOM      9  H8  <0> d          -2.547   5.689   0.082  0.00  0.00     0.087 H 
ENDROOT
BRANCH   1  10
ATOM     10  C2  <0> d          -0.729   1.579   1.267  0.00  0.00    -0.042 C 
ATOM     11  H4  <0> d          -1.751   1.202   1.275  0.00  0.00     0.039 H 
ATOM     12  H5  <0> d          -0.202   1.218   2.150  0.00  0.00     0.039 H 
BRANCH  10  13
ATOM     13  C1  <0> d          -0.013   1.086   0.008  0.00  0.00    -0.073 C 
ATOM     14  H1  <0> d           0.002  -0.004   0.002  0.00  0.00     0.028 H 
ATOM     15  H2  <0> d           1.010   1.463   0.000  0.00  0.00     0.028 H 
ATOM     16  H3  <0> d          -0.540   1.447  -0.875  0.00  0.00     0.028 H 
ENDBRANCH  10  13
ENDBRANCH   1  10
BRANCH   6  17
ATOM     17  O1  <0> d          -2.710   3.080  -0.071  0.00  0.00    -0.360 OA
ATOM     18  H9  <0> d          -3.488   2.870   0.463  0.00  0.00     0.217 HD
ENDBRANCH   6  17
BRANCH   3  19
ATOM     19  O2  <0> d           1.170   5.862   2.635  0.00  0.00    -0.361 OA
ATOM     20  H10 <0> d           0.948   6.050   3.557  0.00  0.00     0.217 HD
ENDBRANCH   3  19
TORSDOF 4
