REMARK  7 active torsions:
REMARK  status: ('A' for Active; 'I' for Inactive)
REMARK    1  A    between atoms: C1_1  and  C2_2 
REMARK    2  A    between atoms: C2_2  and  C3_4 
REMARK    3  A    between atoms: C2_2  and  O3_7 
REMARK    4  A    between atoms: O3_7  and  C4_8 
REMARK    5  A    between atoms: C4_8  and  C5_9 
REMARK    6  A    between atoms: C5_9  and  C6_10 
REMARK    7  A    between atoms: C5_9  and  C7_11 
ROOT
ATOM      1  C4  <0> d           2.099  -0.651   0.967  0.00  0.00     0.023 C 
ATOM      2  H5  <0> d           2.269  -1.376   0.172  0.00  0.00     0.074 H 
ATOM      3  H6  <0> d           2.548   0.303   0.692  0.00  0.00     0.074 H 
ENDROOT
BRANCH   1   4
ATOM      4  O3  <0> d           0.693  -0.477   1.160  0.00  0.00    -0.375 OA
BRANCH   4   5
ATOM      5  C2  <0> d           0.002  -0.004   0.002  0.00  0.00     0.118 C 
ATOM      6  H1  <0> d           0.512  -0.356  -0.895  0.00  0.00     0.099 H 
BRANCH   5   7
ATOM      7  C1  <0> d          -0.019   1.526   0.010  0.00  0.00    -0.043 C 
ATOM      8  H2  <0> d           1.004   1.903   0.003  0.00  0.00     0.031 H 
ATOM      9  H3  <0> d          -0.546   1.887  -0.873  0.00  0.00     0.031 H 
ATOM     10  H4  <0> d          -0.529   1.877   0.907  0.00  0.00     0.031 H 
ENDBRANCH   5   7
BRANCH   5  11
ATOM     11  C3  <0> d          -1.412  -0.526   0.013  0.00  0.00     0.202 C 
ATOM     12  O1  <0> d          -2.147  -0.313  -0.936  0.00  0.00    -0.646 OA
ATOM     13  O2  <0> d          -1.820  -1.161   0.970  0.00  0.00    -0.646 OA
ENDBRANCH   5  11
ENDBRANCH   4   5
ENDBRANCH   1   4
BRANCH   1  14
ATOM     14  C5  <0> d           2.732  -1.158   2.264  0.00  0.00    -0.040 C 
ATOM     15  H7  <0> d           2.222  -2.066   2.587  0.00  0.00     0.042 H 
BRANCH  14  16
ATOM     16  C6  <0> d           4.212  -1.463   2.024  0.00  0.00    -0.071 C 
ATOM     17  H8  <0> d           4.722  -0.555   1.701  0.00  0.00     0.028 H 
ATOM     18  H9  <0> d           4.664  -1.824   2.948  0.00  0.00     0.028 H 
ATOM     19  H10 <0> d           4.305  -2.226   1.251  0.00  0.00     0.028 H 
ENDBRANCH  14  16
BRANCH  14  20
ATOM     20  C7  <0> d           2.602  -0.087   3.349  0.00  0.00    -0.071 C 
ATOM     21  H11 <0> d           1.547   0.130   3.520  0.00  0.00     0.028 H 
ATOM     22  H12 <0> d           3.053  -0.448   4.273  0.00  0.00     0.028 H 
ATOM     23  H13 <0> d           3.111   0.821   3.026  0.00  0.00     0.028 H 
ENDBRANCH  14  20
ENDBRANCH   1  14
TORSDOF 7
