REMARK  6 active torsions:
REMARK  status: ('A' for Active; 'I' for Inactive)
REMARK    1  A    between atoms: C1_1  and  C2_2 
REMARK    2  A    between atoms: C3_4  and  C9_13 
REMARK    3  A    between atoms: C4_5  and  C8_12 
REMARK    4  A    between atoms: C5_7  and  C6_8 
REMARK    5  A    between atoms: C6_8  and  O2_10 
REMARK    6  A    between atoms: O2_10  and  C7_11 
ROOT
ATOM      1  C2  <0> d          -0.122  -0.065   0.015  0.00  0.00    -0.042 C 
ATOM      2  H1  <0> d           0.428  -0.451  -0.844  0.00  0.00     0.041 H 
ATOM      3  C3  <0> d          -1.446  -0.801   0.278  0.00  0.00    -0.050 C 
ATOM      4  C4  <0> d          -0.642  -1.768   1.163  0.00  0.00    -0.042 C 
ATOM      5  H2  <0> d          -1.161  -2.056   2.078  0.00  0.00     0.041 H 
ATOM      6  C5  <0> d           0.368  -0.623   1.362  0.00  0.00     0.037 C 
ATOM      7  H6  <0> d          -2.174  -0.206   0.830  0.00  0.00     0.040 H 
ATOM      8  H7  <0> d           1.407  -0.949   1.347  0.00  0.00     0.056 H 
ENDROOT
BRANCH   6   9
ATOM      9  C6  <0> d           0.049   0.267   2.535  0.00  0.00     0.263 C 
ATOM     10  O1  <0> d          -0.998   0.137   3.125  0.00  0.00    -0.265 OA
BRANCH   9  11
ATOM     11  O2  <0> d           0.927   1.205   2.925  0.00  0.00    -0.326 OA
BRANCH  11  12
ATOM     12  C7  <0> d           0.559   2.013   4.045  0.00  0.00     0.013 C 
ATOM     13  H8  <0> d          -0.362   2.550   3.818  0.00  0.00     0.067 H 
ATOM     14  H9  <0> d           0.404   1.377   4.916  0.00  0.00     0.067 H 
ATOM     15  H10 <0> d           1.355   2.728   4.254  0.00  0.00     0.067 H 
ENDBRANCH  11  12
ENDBRANCH   9  11
ENDBRANCH   6   9
BRANCH   1  16
ATOM     16  C1  <0> d          -0.260   1.458  -0.004  0.00  0.00    -0.072 C 
ATOM     17  H3  <0> d           0.685   1.913   0.292  0.00  0.00     0.028 H 
ATOM     18  H4  <0> d          -0.522   1.787  -1.010  0.00  0.00     0.028 H 
ATOM     19  H5  <0> d          -1.043   1.761   0.692  0.00  0.00     0.028 H 
ENDBRANCH   1  16
BRANCH   4  20
ATOM     20  C8  <0> d          -0.070  -2.965   0.402  0.00  0.00    -0.072 C 
ATOM     21  H11 <0> d           0.598  -2.610  -0.383  0.00  0.00     0.028 H 
ATOM     22  H12 <0> d           0.484  -3.602   1.090  0.00  0.00     0.028 H 
ATOM     23  H13 <0> d          -0.885  -3.534  -0.045  0.00  0.00     0.028 H 
ENDBRANCH   4  20
BRANCH   3  24
ATOM     24  C9  <0> d          -2.040  -1.461  -0.968  0.00  0.00    -0.072 C 
ATOM     25  H14 <0> d          -1.334  -2.192  -1.363  0.00  0.00     0.028 H 
ATOM     26  H15 <0> d          -2.972  -1.960  -0.706  0.00  0.00     0.028 H 
ATOM     27  H16 <0> d          -2.235  -0.700  -1.724  0.00  0.00     0.028 H 
ENDBRANCH   3  24
TORSDOF 6
