REMARK  3 active torsions:
REMARK  status: ('A' for Active; 'I' for Inactive)
REMARK    1  A    between atoms: C1_1  and  C2_2 
REMARK    2  A    between atoms: C3_3  and  C8_10 
REMARK    3  A    between atoms: C7_7  and  N1_8 
ROOT
ATOM      1  C2  <0> d           0.001   1.805   2.404  0.00  0.00    -0.027 A 
ATOM      2  C3  <0> d          -0.718   1.572   1.248  0.00  0.00    -0.015 A 
ATOM      3  C4  <0> d          -2.085   1.789   1.226  0.00  0.00     0.122 A 
ATOM      4  C5  <0> d          -2.737   2.231   2.365  0.00  0.00    -0.043 A 
ATOM      5  C6  <0> d          -2.022   2.466   3.523  0.00  0.00    -0.054 A 
ATOM      6  C7  <0> d          -0.650   2.253   3.546  0.00  0.00     0.032 A 
ATOM      7  F1  <0> d          -2.785   1.565   0.092  0.00  0.00    -0.206 F 
ATOM      8  H4  <0> d          -3.804   2.397   2.346  0.00  0.00     0.088 H 
ATOM      9  H5  <0> d          -2.530   2.815   4.410  0.00  0.00     0.087 H 
ENDROOT
BRANCH   1  10
ATOM     10  C1  <0> d           1.490   1.574   2.426  0.00  0.00    -0.049 C 
ATOM     11  H1  <0> d           2.004   2.491   2.138  0.00  0.00     0.033 H 
ATOM     12  H2  <0> d           1.798   1.285   3.431  0.00  0.00     0.033 H 
ATOM     13  H3  <0> d           1.744   0.779   1.725  0.00  0.00     0.033 H 
ENDBRANCH   1  10
BRANCH   6  14
ATOM     14  N1  <0> d           0.076   2.490   4.718  0.00  0.00    -0.399 N 
ATOM     15  H6  <0> d           1.034   2.341   4.733  0.00  0.00     0.156 HD
ATOM     16  H7  <0> d          -0.379   2.803   5.515  0.00  0.00     0.156 HD
ENDBRANCH   6  14
BRANCH   2  17
ATOM     17  C8  <0> d          -0.013   1.086   0.008  0.00  0.00    -0.048 C 
ATOM     18  H8  <0> d           0.002  -0.004   0.002  0.00  0.00     0.033 H 
ATOM     19  H9  <0> d           1.010   1.463   0.000  0.00  0.00     0.033 H 
ATOM     20  H10 <0> d          -0.540   1.447  -0.875  0.00  0.00     0.033 H 
ENDBRANCH   2  17
TORSDOF 3
