REMARK  4 active torsions:
REMARK  status: ('A' for Active; 'I' for Inactive)
REMARK    1  A    between atoms: C1_1  and  C2_2 
REMARK    2  A    between atoms: C3_3  and  C5_8 
REMARK    3  A    between atoms: C5_8  and  C6_9 
REMARK    4  A    between atoms: C5_8  and  C7_10 
ROOT
ATOM      1  C2  <0> d          -0.197   3.957   2.236  0.00  0.00     0.070 A 
ATOM      2  C3  <0> d          -0.749   3.086   1.275  0.00  0.00     0.035 A 
ATOM      3  C4  <0> d          -1.307   3.924   0.355  0.00  0.00     0.251 A 
ATOM      4  O1  <0> d          -1.078   5.171   0.794  0.00  0.00    -0.184 OA
ATOM      5  N1  <0> d          -0.456   5.168   1.831  0.00  0.00    -0.130 NA
ATOM      6  O2  <0> d          -1.962   3.568  -0.776  0.00  0.00    -0.161 OA
ENDROOT
BRANCH   2   7
ATOM      7  C5  <0> d          -0.729   1.579   1.267  0.00  0.00    -0.029 C 
ATOM      8  H4  <0> d          -0.194   1.230   2.162  0.00  0.00     0.046 H 
BRANCH   7   9
ATOM      9  C6  <0> d          -0.013   1.086   0.008  0.00  0.00    -0.069 C 
ATOM     10  H5  <0> d           1.019   1.466   0.000  0.00  0.00     0.028 H 
ATOM     11  H6  <0> d          -0.545   1.450  -0.883  0.00  0.00     0.028 H 
ATOM     12  H7  <0> d           0.002  -0.014   0.002  0.00  0.00     0.028 H 
ENDBRANCH   7   9
BRANCH   7  13
ATOM     13  C7  <0> d          -2.164   1.050   1.278  0.00  0.00    -0.069 C 
ATOM     14  H8  <0> d          -2.679   1.405   2.183  0.00  0.00     0.028 H 
ATOM     15  H9  <0> d          -2.149  -0.050   1.272  0.00  0.00     0.028 H 
ATOM     16  H10 <0> d          -2.696   1.414   0.387  0.00  0.00     0.028 H 
ENDBRANCH   7  13
ENDBRANCH   2   7
BRANCH   1  17
ATOM     17  C1  <0> d           0.547   3.565   3.487  0.00  0.00    -0.033 C 
ATOM     18  H1  <0> d           0.603   2.468   3.551  0.00  0.00     0.035 H 
ATOM     19  H2  <0> d           0.017   3.957   4.367  0.00  0.00     0.035 H 
ATOM     20  H3  <0> d           1.564   3.982   3.454  0.00  0.00     0.035 H 
ENDBRANCH   1  17
TORSDOF 4
