REMARK  3 active torsions:
REMARK  status: ('A' for Active; 'I' for Inactive)
REMARK    1  A    between atoms: C2_2  and  C3_3 
REMARK    2  A    between atoms: C6_7  and  O2_13 
REMARK    3  A    between atoms: C7_9  and  O1_12 
ROOT
ATOM      1  C3  <0> d           1.394   1.968  -2.499  0.00  0.00    -0.036 C 
ATOM      2  H1  <0> d           1.387   3.068  -2.507  0.00  0.00     0.046 H 
ATOM      3  C4  <0> d           2.134   1.461  -1.260  0.00  0.00    -0.056 C 
ATOM      4  C5  <0> d           1.418   1.954  -0.001  0.00  0.00    -0.038 C 
ATOM      5  C6  <0> d          -0.017   1.425   0.010  0.00  0.00     0.060 C 
ATOM      6  H2  <0> d          -0.542   1.713   0.933  0.00  0.00     0.086 H 
ATOM      7  C7  <0> d          -0.757   1.932  -1.230  0.00  0.00     0.061 C 
ATOM      8  H3  <0> d          -1.811   1.617  -1.221  0.00  0.00     0.086 H 
ATOM      9  C8  <0> d          -0.041   1.438  -2.489  0.00  0.00    -0.032 C 
ATOM     10  H7  <0> d           2.149   0.361  -1.266  0.00  0.00     0.034 H 
ATOM     11  H8  <0> d           3.166   1.841  -1.268  0.00  0.00     0.034 H 
ATOM     12  H9  <0> d           1.950   1.590   0.890  0.00  0.00     0.036 H 
ATOM     13  H10 <0> d           1.403   3.054   0.005  0.00  0.00     0.036 H 
ATOM     14  H11 <0> d          -0.573   1.803  -3.380  0.00  0.00     0.037 H 
ATOM     15  H12 <0> d          -0.026   0.338  -2.495  0.00  0.00     0.037 H 
ENDROOT
BRANCH   1  16
ATOM     16  C2  <0> d           2.100   1.482  -3.739  0.00  0.00    -0.108 C 
ATOM     17  C1  <0> d           2.578   2.344  -4.601  0.00  0.00    -0.124 C 
ATOM     18  H4  <0> d           3.092   1.990  -5.506  0.00  0.00     0.066 H 
ATOM     19  H5  <0> d           2.464   3.424  -4.420  0.00  0.00     0.066 H 
ATOM     20  H6  <0> d           2.213   0.403  -3.920  0.00  0.00     0.076 H 
ENDBRANCH   1  16
BRANCH   7  21
ATOM     21  O1  <0> d          -0.777   3.361  -1.222  0.00  0.00    -0.393 OA
ATOM     22  H13 <0> d          -1.268   3.908  -2.039  0.00  0.00     0.210 HD
ENDBRANCH   7  21
BRANCH   5  23
ATOM     23  O2  <0> d           0.002  -0.004   0.002  0.00  0.00    -0.393 OA
ATOM     24  H14 <0> d          -0.943  -0.567   0.008  0.00  0.00     0.210 HD
ENDBRANCH   5  23
TORSDOF 3
