REMARK  6 active torsions:
REMARK  status: ('A' for Active; 'I' for Inactive)
REMARK    1  A    between atoms: C1_1  and  O1_2 
REMARK    2  A    between atoms: O1_2  and  C2_3 
REMARK       I    between atoms: C2_3  and  N1_5 
REMARK    3  A    between atoms: N1_5  and  C3_6 
REMARK    4  A    between atoms: N1_5  and  C4_8 
REMARK    5  A    between atoms: C3_6  and  O3_7 
REMARK    6  A    between atoms: C4_8  and  O4_9 
ROOT
ATOM      1  C2  <0> d           3.013   0.218   1.070  0.00  0.00     0.365 C 
ATOM      2  O2  <0> d           3.631  -0.138   2.054  0.00  0.00    -0.238 OA
ATOM      3  N1  <0> d           2.030   1.133   1.185  0.00  0.00    -0.286 N 
ENDROOT
BRANCH   3   4
ATOM      4  C3  <0> d           1.286   1.562  -0.002  0.00  0.00     0.083 C 
ATOM      5  H4  <0> d           1.823   1.252  -0.899  0.00  0.00     0.107 H 
ATOM      6  H5  <0> d           1.186   2.647   0.005  0.00  0.00     0.107 H 
BRANCH   4   7
ATOM      7  O3  <0> d          -0.011   0.963   0.007  0.00  0.00    -0.382 OA
ATOM      8  H6  <0> d           0.002  -0.004   0.002  0.00  0.00     0.211 HD
ENDBRANCH   4   7
ENDBRANCH   3   4
BRANCH   3   9
ATOM      9  C4  <0> d           1.706   1.699   2.497  0.00  0.00     0.083 C 
ATOM     10  H7  <0> d           2.512   1.477   3.197  0.00  0.00     0.107 H 
ATOM     11  H8  <0> d           1.590   2.779   2.408  0.00  0.00     0.107 H 
BRANCH   9  12
ATOM     12  O4  <0> d           0.488   1.126   2.975  0.00  0.00    -0.382 OA
ATOM     13  H9  <0> d           0.212   1.455   3.841  0.00  0.00     0.211 HD
ENDBRANCH   9  12
ENDBRANCH   3   9
BRANCH   1  14
ATOM     14  O1  <0> d           3.311  -0.302  -0.136  0.00  0.00    -0.309 OA
BRANCH  14  15
ATOM     15  C1  <0> d           4.381  -1.283  -0.184  0.00  0.00     0.015 C 
ATOM     16  H1  <0> d           4.518  -1.620  -1.212  0.00  0.00     0.067 H 
ATOM     17  H2  <0> d           5.305  -0.830   0.176  0.00  0.00     0.067 H 
ATOM     18  H3  <0> d           4.123  -2.134   0.446  0.00  0.00     0.067 H 
ENDBRANCH  14  15
ENDBRANCH   1  14
TORSDOF 6
