REMARK  6 active torsions:
REMARK  status: ('A' for Active; 'I' for Inactive)
REMARK    1  A    between atoms: C1_1  and  C2_2 
REMARK    2  A    between atoms: C2_2  and  C3_4 
REMARK    3  A    between atoms: C2_2  and  O2_7 
REMARK    4  A    between atoms: C3_4  and  C4_5 
REMARK    5  A    between atoms: C4_5  and  O1_6 
REMARK    6  A    between atoms: O2_7  and  C5_8 
ROOT
ATOM      1  C2  <0> d          -0.729   1.579   1.267  0.00  0.00     0.036 C 
ATOM      2  H1  <0> d          -1.776   1.277   1.232  0.00  0.00     0.082 H 
ENDROOT
BRANCH   1   3
ATOM      3  C1  <0> d          -0.064   0.971   2.503  0.00  0.00    -0.052 C 
ATOM      4  H2  <0> d          -0.574   1.323   3.400  0.00  0.00     0.030 H 
ATOM      5  H3  <0> d          -0.126  -0.116   2.452  0.00  0.00     0.030 H 
ATOM      6  H4  <0> d           0.983   1.274   2.539  0.00  0.00     0.030 H 
ENDBRANCH   1   3
BRANCH   1   7
ATOM      7  C3  <0> d          -0.013   1.086   0.008  0.00  0.00    -0.022 C 
ATOM      8  H5  <0> d           0.002  -0.004   0.002  0.00  0.00     0.039 H 
ATOM      9  H6  <0> d           1.010   1.463   0.000  0.00  0.00     0.039 H 
BRANCH   7  10
ATOM     10  C4  <0> d          -0.753   1.593  -1.232  0.00  0.00     0.019 C 
ATOM     11  H7  <0> d          -1.775   1.215  -1.224  0.00  0.00     0.074 H 
ATOM     12  H8  <0> d          -0.767   2.683  -1.226  0.00  0.00     0.074 H 
BRANCH  10  13
ATOM     13  O1  <0> d          -0.084   1.132  -2.407  0.00  0.00    -0.401 OA
ATOM     14  H9  <0> d          -0.499   1.416  -3.233  0.00  0.00     0.209 HD
ENDBRANCH  10  13
ENDBRANCH   7  10
ENDBRANCH   1   7
BRANCH   1  15
ATOM     15  O2  <0> d          -0.647   3.004   1.334  0.00  0.00    -0.391 OA
BRANCH  15  16
ATOM     16  C5  <0> d          -1.755   3.620   1.993  0.00  0.00     0.004 C 
ATOM     17  H10 <0> d          -1.818   3.253   3.017  0.00  0.00     0.066 H 
ATOM     18  H11 <0> d          -1.617   4.701   2.002  0.00  0.00     0.066 H 
ATOM     19  H12 <0> d          -2.675   3.375   1.462  0.00  0.00     0.066 H 
ENDBRANCH  15  16
ENDBRANCH   1  15
TORSDOF 6
