REMARK  3 active torsions:
REMARK  status: ('A' for Active; 'I' for Inactive)
REMARK    1  A    between atoms: C3_4  and  C4_7 
REMARK    2  A    between atoms: C4_7  and  C5_8 
REMARK    3  A    between atoms: C5_8  and  O1_9 
ROOT
ATOM      1  C1  <0> d          -1.124   1.763   0.016  0.00  0.00    -0.005 A 
ATOM      2  C2  <0> d          -0.690   3.038   0.025  0.00  0.00     0.019 A 
ATOM      3  N1  <0> d           0.651   3.020   0.012  0.00  0.00    -0.246 NA
ATOM      4  C3  <0> d           1.065   1.782   0.002  0.00  0.00     0.105 A 
ATOM      5  N2  <0> d          -0.011   0.966   0.007  0.00  0.00    -0.353 N 
ATOM      6  H1  <0> d          -0.119  -0.129   0.006  0.00  0.00     0.166 HD
ATOM      7  H2  <0> d          -2.152   1.433   0.018  0.00  0.00     0.113 H 
ATOM      8  H3  <0> d          -1.312   3.920   0.035  0.00  0.00     0.117 H 
ENDROOT
BRANCH   4   9
ATOM      9  C4  <0> d           2.505   1.337  -0.014  0.00  0.00     0.009 C 
ATOM     10  H4  <0> d           2.993   1.643   0.923  0.00  0.00     0.047 H 
ATOM     11  H5  <0> d           2.549   0.242  -0.110  0.00  0.00     0.047 H 
BRANCH   9  12
ATOM     12  C5  <0> d           3.225   1.983  -1.199  0.00  0.00     0.023 C 
ATOM     13  H6  <0> d           2.737   1.677  -2.136  0.00  0.00     0.074 H 
ATOM     14  H7  <0> d           3.181   3.078  -1.103  0.00  0.00     0.074 H 
BRANCH  12  15
ATOM     15  O1  <0> d           4.591   1.561  -1.214  0.00  0.00    -0.400 OA
ATOM     16  H8  <0> d           5.270   1.924  -1.999  0.00  0.00     0.209 HD
ENDBRANCH  12  15
ENDBRANCH   9  12
ENDBRANCH   4   9
TORSDOF 3
