REMARK  2 active torsions:
REMARK  status: ('A' for Active; 'I' for Inactive)
REMARK    1  A    between atoms: C1_1  and  N1_2 
REMARK    2  A    between atoms: N1_2  and  C2_3 
ROOT
ATOM      1  C2  <0> d           0.607  -0.690  -1.057  0.00  0.00     0.066 A 
ATOM      2  C3  <0> d           1.194   0.017  -2.098  0.00  0.00    -0.053 A 
ATOM      3  C4  <0> d           1.792  -0.662  -3.142  0.00  0.00    -0.060 A 
ATOM      4  C5  <0> d           1.806  -2.046  -3.152  0.00  0.00     0.037 A 
ATOM      5  C6  <0> d           1.222  -2.754  -2.117  0.00  0.00    -0.022 A 
ATOM      6  C7  <0> d           0.627  -2.080  -1.066  0.00  0.00     0.144 A 
ATOM      7  F1  <0> d           0.062  -2.771  -0.052  0.00  0.00    -0.204 F 
ATOM      8 Cl1  <0> d           2.557  -2.895  -4.467  0.00  0.00    -0.084 Cl
ATOM      9  H5  <0> d           1.184   1.097  -2.091  0.00  0.00     0.087 H 
ATOM     10  H6  <0> d           2.249  -0.113  -3.951  0.00  0.00     0.086 H 
ATOM     11  H7  <0> d           1.233  -3.834  -2.127  0.00  0.00     0.090 H 
ENDROOT
BRANCH   1  12
ATOM     12  N1  <0> d           0.002  -0.004   0.002  0.00  0.00    -0.392 N 
ATOM     13  H4  <0> d          -0.404  -0.499   0.731  0.00  0.00     0.159 HD
BRANCH  12  14
ATOM     14  C1  <0> d          -0.018   1.461   0.010  0.00  0.00    -0.021 C 
ATOM     15  H1  <0> d           1.005   1.838   0.002  0.00  0.00     0.056 H 
ATOM     16  H2  <0> d          -0.545   1.822  -0.873  0.00  0.00     0.056 H 
ATOM     17  H3  <0> d          -0.528   1.812   0.907  0.00  0.00     0.056 H 
ENDBRANCH  12  14
ENDBRANCH   1  12
TORSDOF 2
