REMARK  2 active torsions:
REMARK  status: ('A' for Active; 'I' for Inactive)
REMARK    1  A    between atoms: C1_1  and  C2_2 
REMARK    2  A    between atoms: C2_2  and  C7_8 
ROOT
ATOM      1  C2  <0> d           1.193   2.117   0.002  0.00  0.00     0.013 C 
ATOM      2  C3  <0> d           0.659   3.564   0.024  0.00  0.00    -0.052 C 
ATOM      3  C4  <0> d          -0.760   3.425   0.632  0.00  0.00    -0.058 C 
ATOM      4  C5  <0> d          -1.250   2.087   0.018  0.00  0.00    -0.009 C 
ATOM      5  C6  <0> d          -0.014   1.203   0.009  0.00  0.00     0.134 C 
ATOM      6  O1  <0> d           0.002  -0.004   0.002  0.00  0.00    -0.297 OA
ATOM      7  H4  <0> d           1.286   4.195   0.654  0.00  0.00     0.034 H 
ATOM      8  H5  <0> d           0.606   3.968  -0.988  0.00  0.00     0.034 H 
ATOM      9  H6  <0> d          -0.711   3.362   1.719  0.00  0.00     0.033 H 
ATOM     10  H7  <0> d          -1.398   4.252   0.321  0.00  0.00     0.033 H 
ATOM     11  H8  <0> d          -1.609   2.253  -0.899  0.00  0.00     0.044 H 
ATOM     12  H9  <0> d          -2.028   1.645   0.641  0.00  0.00     0.044 H 
ENDROOT
BRANCH   1  13
ATOM     13  C1  <0> d           2.052   1.859   1.242  0.00  0.00    -0.063 C 
ATOM     14  H1  <0> d           2.408   0.829   1.228  0.00  0.00     0.029 H 
ATOM     15  H2  <0> d           2.904   2.538   1.242  0.00  0.00     0.029 H 
ATOM     16  H3  <0> d           1.455   2.025   2.138  0.00  0.00     0.029 H 
ENDBRANCH   1  13
BRANCH   1  17
ATOM     17  C7  <0> d           2.019   1.884  -1.265  0.00  0.00    -0.063 C 
ATOM     18  H10 <0> d           1.399   2.068  -2.142  0.00  0.00     0.029 H 
ATOM     19  H11 <0> d           2.871   2.563  -1.273  0.00  0.00     0.029 H 
ATOM     20  H12 <0> d           2.375   0.854  -1.281  0.00  0.00     0.029 H 
ENDBRANCH   1  17
TORSDOF 2
