REMARK  5 active torsions:
REMARK  status: ('A' for Active; 'I' for Inactive)
REMARK    1  A    between atoms: C1_1  and  C2_2 
REMARK    2  A    between atoms: C2_2  and  C3_3 
REMARK    3  A    between atoms: C2_2  and  C4_4 
REMARK    4  A    between atoms: C5_6  and  C9_12 
REMARK    5  A    between atoms: C9_12  and  O2_13 
ROOT
ATOM      1  C4  <0> d          -2.994   1.701  -0.019  0.00  0.00     0.046 C 
ATOM      2  H1  <0> d          -3.193   2.766  -0.141  0.00  0.00     0.084 H 
ATOM      3  C5  <0> d          -2.271   1.171  -1.260  0.00  0.00    -0.008 C 
ATOM      4  H2  <0> d          -2.108   0.099  -1.156  0.00  0.00     0.047 H 
ATOM      5  C6  <0> d          -0.921   1.883  -1.397  0.00  0.00    -0.056 C 
ATOM      6  C7  <0> d          -0.110   1.668  -0.116  0.00  0.00    -0.045 C 
ATOM      7  C8  <0> d          -0.916   2.179   1.082  0.00  0.00     0.020 C 
ATOM      8  O1  <0> d          -2.172   1.498   1.133  0.00  0.00    -0.385 OA
ATOM      9  H10 <0> d          -1.086   2.950  -1.550  0.00  0.00     0.033 H 
ATOM     10  H11 <0> d          -0.376   1.472  -2.247  0.00  0.00     0.033 H 
ATOM     11  H12 <0> d           0.096   0.605   0.011  0.00  0.00     0.036 H 
ATOM     12  H13 <0> d           0.829   2.216  -0.183  0.00  0.00     0.036 H 
ATOM     13  H14 <0> d          -0.360   1.990   2.001  0.00  0.00     0.074 H 
ATOM     14  H15 <0> d          -1.087   3.250   0.974  0.00  0.00     0.074 H 
ENDROOT
BRANCH   1  15
ATOM     15  C2  <0> d          -4.316   0.952   0.160  0.00  0.00    -0.035 C 
ATOM     16  H6  <0> d          -4.903   1.028  -0.756  0.00  0.00     0.042 H 
BRANCH  15  17
ATOM     17  C1  <0> d          -4.032  -0.520   0.463  0.00  0.00    -0.071 C 
ATOM     18  H3  <0> d          -4.974  -1.053   0.590  0.00  0.00     0.028 H 
ATOM     19  H4  <0> d          -3.474  -0.960  -0.363  0.00  0.00     0.028 H 
ATOM     20  H5  <0> d          -3.445  -0.596   1.379  0.00  0.00     0.028 H 
ENDBRANCH  15  17
BRANCH  15  21
ATOM     21  C3  <0> d          -5.100   1.570   1.320  0.00  0.00    -0.071 C 
ATOM     22  H7  <0> d          -5.239   2.636   1.138  0.00  0.00     0.028 H 
ATOM     23  H8  <0> d          -6.073   1.085   1.400  0.00  0.00     0.028 H 
ATOM     24  H9  <0> d          -4.546   1.429   2.248  0.00  0.00     0.028 H 
ENDBRANCH  15  21
ENDBRANCH   1  15
BRANCH   3  25
ATOM     25  C9  <0> d          -3.121   1.443  -2.502  0.00  0.00     0.022 C 
ATOM     26  H16 <0> d          -4.104   0.989  -2.376  0.00  0.00     0.074 H 
ATOM     27  H17 <0> d          -3.233   2.519  -2.638  0.00  0.00     0.074 H 
BRANCH  25  28
ATOM     28  O2  <0> d          -2.481   0.882  -3.650  0.00  0.00    -0.400 OA
ATOM     29  H18 <0> d          -2.966   1.017  -4.476  0.00  0.00     0.209 HD
ENDBRANCH  25  28
ENDBRANCH   3  25
TORSDOF 5
