REMARK  9 active torsions:
REMARK  status: ('A' for Active; 'I' for Inactive)
REMARK    1  A    between atoms: C1_1  and  C2_2 
REMARK    2  A    between atoms: C2_2  and  C3_3 
REMARK    3  A    between atoms: C2_2  and  C4_4 
REMARK    4  A    between atoms: C4_4  and  C5_5 
REMARK    5  A    between atoms: C5_5  and  C6_6 
REMARK    6  A    between atoms: C6_6  and  C10_10 
REMARK    7  A    between atoms: C7_7  and  C8_8 
REMARK    8  A    between atoms: C7_7  and  C9_9 
REMARK    9  A    between atoms: C10_10  and  O1_11 
ROOT
ATOM      1  C5  <0> d          -0.109   1.085   2.485  0.00  0.00    -0.042 C 
ATOM      2  H10 <0> d          -0.119   0.003   2.358  0.00  0.00     0.039 H 
ATOM      3  H11 <0> d           0.922   1.439   2.511  0.00  0.00     0.039 H 
ENDROOT
BRANCH   1   4
ATOM      4  C4  <0> d          -0.845   1.743   1.316  0.00  0.00    -0.059 C 
ATOM      5  H8  <0> d          -0.835   2.826   1.443  0.00  0.00     0.034 H 
ATOM      6  H9  <0> d          -1.876   1.390   1.290  0.00  0.00     0.034 H 
BRANCH   4   7
ATOM      7  C2  <0> d          -0.148   1.377   0.004  0.00  0.00    -0.061 C 
ATOM      8  H4  <0> d          -0.079   0.292  -0.080  0.00  0.00     0.038 H 
BRANCH   7   9
ATOM      9  C1  <0> d           1.258   1.980  -0.012  0.00  0.00    -0.073 C 
ATOM     10  H1  <0> d           1.832   1.586   0.827  0.00  0.00     0.028 H 
ATOM     11  H2  <0> d           1.755   1.719  -0.946  0.00  0.00     0.028 H 
ATOM     12  H3  <0> d           1.190   3.065   0.073  0.00  0.00     0.028 H 
ENDBRANCH   7   9
BRANCH   7  13
ATOM     13  C3  <0> d          -0.953   1.930  -1.173  0.00  0.00    -0.073 C 
ATOM     14  H5  <0> d          -0.456   1.669  -2.108  0.00  0.00     0.028 H 
ATOM     15  H6  <0> d          -1.955   1.500  -1.162  0.00  0.00     0.028 H 
ATOM     16  H7  <0> d          -1.022   3.015  -1.089  0.00  0.00     0.028 H 
ENDBRANCH   7  13
ENDBRANCH   4   7
ENDBRANCH   1   4
BRANCH   1  17
ATOM     17  C6  <0> d          -0.796   1.446   3.777  0.00  0.00    -0.055 C 
ATOM     18  C7  <0> d          -1.689   0.638   4.292  0.00  0.00    -0.083 C 
BRANCH  18  19
ATOM     19  C8  <0> d          -2.104  -0.602   3.543  0.00  0.00    -0.055 C 
ATOM     20  H12 <0> d          -1.456  -1.432   3.827  0.00  0.00     0.033 H 
ATOM     21  H13 <0> d          -3.137  -0.848   3.790  0.00  0.00     0.033 H 
ATOM     22  H14 <0> d          -2.018  -0.425   2.471  0.00  0.00     0.033 H 
ENDBRANCH  18  19
BRANCH  18  23
ATOM     23  C9  <0> d          -2.301   0.948   5.634  0.00  0.00    -0.055 C 
ATOM     24  H15 <0> d          -1.955   1.924   5.974  0.00  0.00     0.033 H 
ATOM     25  H16 <0> d          -3.388   0.959   5.543  0.00  0.00     0.033 H 
ATOM     26  H17 <0> d          -2.004   0.185   6.354  0.00  0.00     0.033 H 
ENDBRANCH  18  23
BRANCH  17  27
ATOM     27  C10 <0> d          -0.455   2.737   4.477  0.00  0.00     0.037 C 
ATOM     28  H18 <0> d          -0.778   3.578   3.864  0.00  0.00     0.081 H 
ATOM     29  H19 <0> d          -0.964   2.773   5.440  0.00  0.00     0.081 H 
BRANCH  27  30
ATOM     30  O1  <0> d           0.957   2.809   4.681  0.00  0.00    -0.397 OA
ATOM     31  H20 <0> d           1.249   3.616   5.128  0.00  0.00     0.209 HD
ENDBRANCH  27  30
ENDBRANCH  17  27
ENDBRANCH   1  17
TORSDOF 9
