REMARK  5 active torsions:
REMARK  status: ('A' for Active; 'I' for Inactive)
REMARK    1  A    between atoms: C1_1  and  C2_2 
REMARK    2  A    between atoms: C3_6  and  S1_8 
REMARK    3  A    between atoms: S1_8  and  C4_9 
REMARK    4  A    between atoms: C4_9  and  C5_10 
REMARK    5  A    between atoms: C5_10  and  O1_11 
ROOT
ATOM      1  C2  <0> d          -0.700  -2.051  -0.001  0.00  0.00     0.145 A 
ATOM      2  N1  <0> d           0.643  -2.089  -0.024  0.00  0.00    -0.158 NA
ATOM      3  H1  <0> d           2.155  -0.527  -0.029  0.00  0.00     0.191 HD
ATOM      4  N2  <0> d           1.079  -0.754  -0.018  0.00  0.00    -0.254 N 
ATOM      5  C3  <0> d           0.002  -0.004   0.002  0.00  0.00     0.184 A 
ATOM      6  N3  <0> d          -1.074  -0.797   0.013  0.00  0.00    -0.207 NA
ENDROOT
BRANCH   5   7
ATOM      7  S1  <0> d          -0.022   1.758   0.012  0.00  0.00    -0.088 SA
BRANCH   7   8
ATOM      8  C4  <0> d           1.732   2.220  -0.003  0.00  0.00     0.004 C 
ATOM      9  H5  <0> d           2.210   1.817  -0.908  0.00  0.00     0.052 H 
ATOM     10  H6  <0> d           2.228   1.808   0.889  0.00  0.00     0.052 H 
BRANCH   8  11
ATOM     11  C5  <0> d           1.857   3.745   0.004  0.00  0.00     0.025 C 
ATOM     12  H7  <0> d           1.362   4.158  -0.887  0.00  0.00     0.075 H 
ATOM     13  H8  <0> d           1.379   4.148   0.909  0.00  0.00     0.075 H 
BRANCH  11  14
ATOM     14  O1  <0> d           3.239   4.110  -0.007  0.00  0.00    -0.400 OA
ATOM     15  H9  <0> d           3.528   5.171  -0.004  0.00  0.00     0.209 HD
ENDBRANCH  11  14
ENDBRANCH   8  11
ENDBRANCH   7   8
ENDBRANCH   5   7
BRANCH   1  16
ATOM     16  C1  <0> d          -1.617  -3.247   0.006  0.00  0.00    -0.018 C 
ATOM     17  H2  <0> d          -1.017  -4.169  -0.010  0.00  0.00     0.038 H 
ATOM     18  H3  <0> d          -2.266  -3.216  -0.881  0.00  0.00     0.038 H 
ATOM     19  H4  <0> d          -2.236  -3.229   0.914  0.00  0.00     0.038 H 
ENDBRANCH   1  16
TORSDOF 5
