REMARK  6 active torsions:
REMARK  status: ('A' for Active; 'I' for Inactive)
REMARK    1  A    between atoms: C1_1  and  C2_2 
REMARK    2  A    between atoms: C2_2  and  N1_3 
REMARK    3  A    between atoms: C3_4  and  C8_11 
REMARK    4  A    between atoms: C4_5  and  C7_9 
REMARK    5  A    between atoms: C5_6  and  C6_8 
REMARK    6  A    between atoms: C7_9  and  O1_10 
ROOT
ATOM      1  N1  <0> d          -2.070   1.689   2.958  0.00  0.00    -0.274 N 
ATOM      2  C3  <0> d          -1.710   0.927   1.904  0.00  0.00     0.037 A 
ATOM      3  C4  <0> d          -0.718   1.572   1.248  0.00  0.00     0.015 A 
ATOM      4  C5  <0> d          -0.459   2.767   1.927  0.00  0.00     0.061 A 
ATOM      5  N2  <0> d          -1.273   2.841   2.949  0.00  0.00    -0.177 NA
ENDROOT
BRANCH   1   6
ATOM      6  C2  <0> d          -3.111   1.369   3.938  0.00  0.00     0.014 C 
ATOM      7  H4  <0> d          -3.551   2.292   4.315  0.00  0.00     0.066 H 
ATOM      8  H5  <0> d          -3.884   0.765   3.463  0.00  0.00     0.066 H 
BRANCH   6   9
ATOM      9  C1  <0> d          -2.494   0.586   5.099  0.00  0.00    -0.059 C 
ATOM     10  H1  <0> d          -2.053  -0.337   4.722  0.00  0.00     0.029 H 
ATOM     11  H2  <0> d          -1.721   1.190   5.574  0.00  0.00     0.029 H 
ATOM     12  H3  <0> d          -3.268   0.348   5.828  0.00  0.00     0.029 H 
ENDBRANCH   6   9
ENDBRANCH   1   6
BRANCH   2  13
ATOM     13  C8  <0> d          -2.307  -0.405   1.525  0.00  0.00    -0.035 C 
ATOM     14  H12 <0> d          -1.753  -1.204   2.018  0.00  0.00     0.035 H 
ATOM     15  H13 <0> d          -3.350  -0.438   1.840  0.00  0.00     0.035 H 
ATOM     16  H14 <0> d          -2.248  -0.535   0.445  0.00  0.00     0.035 H 
ENDBRANCH   2  13
BRANCH   4  17
ATOM     17  C6  <0> d           0.576   3.793   1.546  0.00  0.00    -0.033 C 
ATOM     18  H6  <0> d           0.132   4.524   0.870  0.00  0.00     0.035 H 
ATOM     19  H7  <0> d           0.934   4.299   2.443  0.00  0.00     0.035 H 
ATOM     20  H8  <0> d           1.412   3.300   1.049  0.00  0.00     0.035 H 
ENDBRANCH   4  17
BRANCH   3  21
ATOM     21  C7  <0> d          -0.013   1.086   0.008  0.00  0.00     0.044 C 
ATOM     22  H9  <0> d           0.002  -0.004   0.002  0.00  0.00     0.081 H 
ATOM     23  H10 <0> d           1.010   1.463   0.000  0.00  0.00     0.081 H 
BRANCH  21  24
ATOM     24  O1  <0> d          -0.704   1.559  -1.150  0.00  0.00    -0.396 OA
ATOM     25  H11 <0> d          -0.304   1.284  -1.986  0.00  0.00     0.209 HD
ENDBRANCH  21  24
ENDBRANCH   3  21
TORSDOF 6
