REMARK  3 active torsions:
REMARK  status: ('A' for Active; 'I' for Inactive)
REMARK    1  A    between atoms: C1_1  and  N1_2 
REMARK    2  A    between atoms: N1_2  and  S1_3 
REMARK    3  A    between atoms: S1_3  and  C2_6 
ROOT
ATOM      1  S1  <0> d           0.002  -0.004   0.002  0.00  0.00     0.222 S 
ATOM      2  O1  <0> d           1.381  -0.348   0.012  0.00  0.00    -0.206 OA
ATOM      3  O2  <0> d          -0.847  -0.384   1.076  0.00  0.00    -0.206 OA
ENDROOT
BRANCH   1   4
ATOM      4  N1  <0> d          -0.020   1.652   0.011  0.00  0.00    -0.324 N 
ATOM      5  H4  <0> d           0.813   2.148   0.006  0.00  0.00     0.171 HD
BRANCH   4   6
ATOM      6  C1  <0> d          -1.299   2.367   0.021  0.00  0.00    -0.011 C 
ATOM      7  H1  <0> d          -1.871   2.101  -0.868  0.00  0.00     0.057 H 
ATOM      8  H2  <0> d          -1.863   2.091   0.912  0.00  0.00     0.057 H 
ATOM      9  H3  <0> d          -1.114   3.441   0.026  0.00  0.00     0.057 H 
ENDBRANCH   4   6
ENDBRANCH   1   4
BRANCH   1  10
ATOM     10  C2  <0> d          -0.748  -0.472  -1.582  0.00  0.00     0.032 C 
ATOM     11  H5  <0> d          -0.159  -0.056  -2.400  0.00  0.00     0.051 H 
ATOM     12  H6  <0> d          -0.770  -1.558  -1.667  0.00  0.00     0.051 H 
ATOM     13  H7  <0> d          -1.764  -0.082  -1.632  0.00  0.00     0.051 H 
ENDBRANCH   1  10
TORSDOF 3
