REMARK  3 active torsions:
REMARK  status: ('A' for Active; 'I' for Inactive)
REMARK    1  A    between atoms: C1_1  and  C2_2 
REMARK    2  A    between atoms: C2_2  and  C3_3 
REMARK    3  A    between atoms: C2_2  and  C4_4 
ROOT
ATOM      1  C2  <0> d           0.002  -0.004   0.002  0.00  0.00     0.005 C 
ATOM      2  H4  <0> d           0.529  -0.365   0.885  0.00  0.00     0.051 H 
ENDROOT
BRANCH   1   3
ATOM      3  C1  <0> d          -0.019   1.526   0.010  0.00  0.00    -0.066 C 
ATOM      4  H1  <0> d           1.004   1.903   0.003  0.00  0.00     0.028 H 
ATOM      5  H2  <0> d          -0.546   1.887  -0.873  0.00  0.00     0.028 H 
ATOM      6  H3  <0> d          -0.529   1.877   0.907  0.00  0.00     0.028 H 
ENDBRANCH   1   3
BRANCH   1   7
ATOM      7  C3  <0> d          -1.433  -0.534   0.013  0.00  0.00    -0.066 C 
ATOM      8  H5  <0> d          -1.960  -0.173  -0.870  0.00  0.00     0.028 H 
ATOM      9  H6  <0> d          -1.419  -1.623   0.007  0.00  0.00     0.028 H 
ATOM     10  H7  <0> d          -1.944  -0.182   0.910  0.00  0.00     0.028 H 
ENDBRANCH   1   7
BRANCH   1  11
ATOM     11  C4  <0> d           0.707  -0.490  -1.238  0.00  0.00     0.172 A 
ATOM     12  O1  <0> d           1.815  -1.250  -1.276  0.00  0.00    -0.285 OA
ATOM     13  C5  <0> d           2.094  -1.447  -2.576  0.00  0.00     0.126 A 
ATOM     14  N2  <0> d           1.188  -0.817  -3.269  0.00  0.00    -0.136 NA
ATOM     15  H8  <0> d           2.920  -2.018  -2.973  0.00  0.00     0.158 H 
ATOM     16  N1  <0> d           0.359  -0.245  -2.469  0.00  0.00    -0.127 NA
ENDBRANCH   1  11
TORSDOF 3
