REMARK  4 active torsions:
REMARK  status: ('A' for Active; 'I' for Inactive)
REMARK    1  A    between atoms: C1_1  and  C2_2 
REMARK    2  A    between atoms: C5_5  and  N1_10 
REMARK    3  A    between atoms: C7_7  and  O1_8 
REMARK    4  A    between atoms: O1_8  and  C8_9 
ROOT
ATOM      1  C2  <0> d          -3.644   3.006   0.036  0.00  0.00    -0.029 A 
ATOM      2  C3  <0> d          -2.455   3.711   0.034  0.00  0.00    -0.072 A 
ATOM      3  C4  <0> d          -1.250   3.037   0.030  0.00  0.00    -0.057 A 
ATOM      4  C5  <0> d          -1.230   1.648   0.017  0.00  0.00     0.028 A 
ATOM      5  C6  <0> d          -2.423   0.938   0.019  0.00  0.00    -0.025 A 
ATOM      6  C7  <0> d          -3.631   1.619   0.028  0.00  0.00     0.076 A 
ATOM      7  H4  <0> d          -2.469   4.791   0.040  0.00  0.00     0.084 H 
ATOM      8  H5  <0> d          -0.322   3.590   0.034  0.00  0.00     0.086 H 
ATOM      9  H6  <0> d          -2.410  -0.141   0.013  0.00  0.00     0.091 H 
ENDROOT
BRANCH   6  10
ATOM     10  O1  <0> d          -4.801   0.927   0.029  0.00  0.00    -0.355 OA
BRANCH  10  11
ATOM     11  C8  <0> d          -4.711  -0.499   0.021  0.00  0.00     0.010 C 
ATOM     12  H7  <0> d          -4.180  -0.824  -0.874  0.00  0.00     0.066 H 
ATOM     13  H8  <0> d          -4.172  -0.835   0.906  0.00  0.00     0.066 H 
ATOM     14  H9  <0> d          -5.714  -0.926   0.023  0.00  0.00     0.066 H 
ENDBRANCH  10  11
ENDBRANCH   6  10
BRANCH   1  15
ATOM     15  C1  <0> d          -4.957   3.746   0.045  0.00  0.00    -0.049 C 
ATOM     16  H1  <0> d          -5.270   3.918   1.075  0.00  0.00     0.033 H 
ATOM     17  H2  <0> d          -4.840   4.702  -0.464  0.00  0.00     0.033 H 
ATOM     18  H3  <0> d          -5.713   3.151  -0.469  0.00  0.00     0.033 H 
ENDBRANCH   1  15
BRANCH   4  19
ATOM     19  N1  <0> d          -0.011   0.966   0.007  0.00  0.00    -0.399 N 
ATOM     20  H10 <0> d           0.002  -0.004   0.002  0.00  0.00     0.156 HD
ATOM     21  H11 <0> d           0.822   1.462   0.002  0.00  0.00     0.156 HD
ENDBRANCH   4  19
TORSDOF 4
