REMARK  0 active torsions:
REMARK  status: ('A' for Active; 'I' for Inactive)
ROOT
ATOM      1  C1  <0> d           1.485   1.894  -0.002  0.00  0.00     0.021 C 
ATOM      2  C2  <0> d          -0.019   1.531   0.011  0.00  0.00    -0.004 C 
ATOM      3  C3  <0> d           0.002  -0.004   0.002  0.00  0.00     0.183 C 
ATOM      4  C4  <0> d          -0.705  -0.556   1.252  0.00  0.00    -0.004 C 
ATOM      5  C5  <0> d          -1.356  -1.849   0.707  0.00  0.00     0.021 C 
ATOM      6  C6  <0> d          -1.287  -1.712  -0.799  0.00  0.00     0.261 C 
ATOM      7  O1  <0> d          -1.666  -2.544  -1.590  0.00  0.00    -0.265 OA
ATOM      8  O2  <0> d          -0.742  -0.529  -1.126  0.00  0.00    -0.283 OA
ATOM      9  O3  <0> d           1.390  -0.414  -0.033  0.00  0.00    -0.283 OA
ATOM     10  C7  <0> d           2.167   0.598   0.401  0.00  0.00     0.261 C 
ATOM     11  O4  <0> d           3.212   0.494   1.000  0.00  0.00    -0.265 OA
ATOM     12  H1  <0> d           1.798   2.198  -1.001  0.00  0.00     0.048 H 
ATOM     13  H2  <0> d           1.696   2.680   0.723  0.00  0.00     0.048 H 
ATOM     14  H3  <0> d          -0.516   1.915  -0.880  0.00  0.00     0.041 H 
ATOM     15  H4  <0> d          -0.499   1.906   0.914  0.00  0.00     0.041 H 
ATOM     16  H5  <0> d           0.015  -0.784   2.038  0.00  0.00     0.041 H 
ATOM     17  H6  <0> d          -1.463   0.140   1.610  0.00  0.00     0.041 H 
ATOM     18  H7  <0> d          -0.794  -2.724   1.034  0.00  0.00     0.048 H 
ATOM     19  H8  <0> d          -2.393  -1.920   1.036  0.00  0.00     0.048 H 
ENDROOT
TORSDOF 0
