REMARK  0 active torsions:
REMARK  status: ('A' for Active; 'I' for Inactive)
ROOT
ATOM      1  C1  <0> d          -0.018   1.509   0.010  0.00  0.00     0.011 C 
ATOM      2  C2  <0> d           1.476   1.910  -0.002  0.00  0.00    -0.034 C 
ATOM      3  C3  <0> d           2.125   0.666  -0.636  0.00  0.00     0.033 A 
ATOM      4  C4  <0> d           3.640   0.488  -0.636  0.00  0.00    -0.039 A 
ATOM      5  C5  <0> d           2.899   0.770  -1.946  0.00  0.00    -0.039 A 
ATOM      6  N1  <0> d           1.218  -0.449  -0.364  0.00  0.00    -0.352 N 
ATOM      7  C6  <0> d           0.002  -0.004   0.002  0.00  0.00     0.218 C 
ATOM      8  O1  <0> d          -0.940  -0.713   0.285  0.00  0.00    -0.274 OA
ATOM      9  H1  <0> d          -0.505   1.879   0.913  0.00  0.00     0.047 H 
ATOM     10  H2  <0> d          -0.522   1.889  -0.879  0.00  0.00     0.047 H 
ATOM     11  H3  <0> d           1.639   2.793  -0.619  0.00  0.00     0.037 H 
ATOM     12  H4  <0> d           1.846   2.070   1.011  0.00  0.00     0.037 H 
ATOM     13  H5  <0> d           4.241   1.293  -0.214  0.00  0.00     0.036 H 
ATOM     14  H6  <0> d           4.028  -0.519  -0.484  0.00  0.00     0.036 H 
ATOM     15  H7  <0> d           2.801  -0.051  -2.656  0.00  0.00     0.036 H 
ATOM     16  H8  <0> d           3.014   1.761  -2.386  0.00  0.00     0.036 H 
ATOM     17  H9  <0> d           1.461  -1.385  -0.439  0.00  0.00     0.163 HD
ENDROOT
TORSDOF 0
