REMARK  3 active torsions:
REMARK  status: ('A' for Active; 'I' for Inactive)
REMARK    1  A    between atoms: C1_1  and  C2_2 
REMARK    2  A    between atoms: C2_2  and  C3_3 
REMARK    3  A    between atoms: C2_2  and  C4_4 
ROOT
ATOM      1  C4  <0> d           0.731  -0.503   1.223  0.00  0.00     0.063 A 
ATOM      2  C5  <0> d           0.086  -1.295   2.100  0.00  0.00    -0.018 A 
ATOM      3  C6  <0> d           0.762  -1.768   3.247  0.00  0.00     0.115 A 
ATOM      4  C7  <0> d           2.082  -1.400   3.439  0.00  0.00     0.025 A 
ATOM      5  C8  <0> d           2.698  -0.575   2.490  0.00  0.00     0.290 A 
ATOM      6  O1  <0> d           3.861  -0.239   2.640  0.00  0.00    -0.260 OA
ATOM      7  O2  <0> d           2.012  -0.156   1.413  0.00  0.00    -0.279 OA
ATOM      8  O3  <0> d           0.131  -2.564   4.142  0.00  0.00    -0.192 OA
ATOM      9  H8  <0> d          -0.945  -1.567   1.929  0.00  0.00     0.091 H 
ATOM     10  H9  <0> d           2.627  -1.744   4.305  0.00  0.00     0.097 H 
ENDROOT
BRANCH   1  11
ATOM     11  C2  <0> d           0.002  -0.004   0.002  0.00  0.00    -0.014 C 
ATOM     12  H4  <0> d          -1.020  -0.381   0.010  0.00  0.00     0.049 H 
BRANCH  11  13
ATOM     13  C1  <0> d          -0.019   1.526   0.010  0.00  0.00    -0.067 C 
ATOM     14  H1  <0> d           1.004   1.903   0.003  0.00  0.00     0.028 H 
ATOM     15  H2  <0> d          -0.546   1.887  -0.873  0.00  0.00     0.028 H 
ATOM     16  H3  <0> d          -0.529   1.877   0.907  0.00  0.00     0.028 H 
ENDBRANCH  11  13
BRANCH  11  17
ATOM     17  C3  <0> d           0.718  -0.497  -1.257  0.00  0.00    -0.067 C 
ATOM     18  H5  <0> d           1.741  -0.120  -1.264  0.00  0.00     0.028 H 
ATOM     19  H6  <0> d           0.733  -1.587  -1.263  0.00  0.00     0.028 H 
ATOM     20  H7  <0> d           0.191  -0.136  -2.140  0.00  0.00     0.028 H 
ENDBRANCH  11  17
ENDBRANCH   1  11
TORSDOF 3
