REMARK  2 active torsions:
REMARK  status: ('A' for Active; 'I' for Inactive)
REMARK    1  A    between atoms: C1_1  and  C2_2 
REMARK    2  A    between atoms: C2_2  and  C3_4 
ROOT
ATOM      1  C3  <0> d          -0.000  -0.728  -1.267  0.00  0.00     0.103 A 
ATOM      2  C4  <0> d           0.012  -2.104  -1.419  0.00  0.00    -0.049 A 
ATOM      3  C5  <0> d           0.004  -2.373  -2.784  0.00  0.00    -0.042 A 
ATOM      4  C6  <0> d          -0.012  -1.162  -3.449  0.00  0.00     0.137 A 
ATOM      5  N1  <0> d          -0.020  -0.162  -2.518  0.00  0.00    -0.234 NA
ATOM      6  C7  <0> d          -0.024  -0.985  -4.870  0.00  0.00     0.119 C 
ATOM      7  N2  <0> d          -0.033  -0.845  -5.997  0.00  0.00    -0.190 NA
ATOM      8  H4  <0> d           0.025  -2.834  -0.624  0.00  0.00     0.087 H 
ATOM      9  H5  <0> d           0.010  -3.352  -3.241  0.00  0.00     0.088 H 
ENDROOT
BRANCH   1  10
ATOM     10  C2  <0> d           0.002  -0.004   0.002  0.00  0.00     0.174 C 
ATOM     11  O1  <0> d           0.020  -0.617   1.050  0.00  0.00    -0.291 OA
BRANCH  10  12
ATOM     12  C1  <0> d          -0.018   1.503   0.010  0.00  0.00    -0.015 C 
ATOM     13  H1  <0> d           1.004   1.880   0.003  0.00  0.00     0.038 H 
ATOM     14  H2  <0> d          -0.545   1.864  -0.873  0.00  0.00     0.038 H 
ATOM     15  H3  <0> d          -0.529   1.854   0.907  0.00  0.00     0.038 H 
ENDBRANCH  10  12
ENDBRANCH   1  10
TORSDOF 2
