REMARK  5 active torsions:
REMARK  status: ('A' for Active; 'I' for Inactive)
REMARK    1  A    between atoms: C1_1  and  O1_2 
REMARK    2  A    between atoms: O1_2  and  C2_3 
REMARK    3  A    between atoms: C5_7  and  C6_9 
REMARK    4  A    between atoms: C6_9  and  C7_10 
REMARK    5  A    between atoms: C7_10  and  O2_11 
ROOT
ATOM      1  C2  <0> d           0.604  -0.605  -1.052  0.00  0.00     0.268 A 
ATOM      2  N1  <0> d           1.139   0.144  -2.003  0.00  0.00    -0.219 NA
ATOM      3  C3  <0> d           1.734  -0.411  -3.046  0.00  0.00     0.008 A 
ATOM      4  C4  <0> d           1.793  -1.793  -3.135  0.00  0.00    -0.042 A 
ATOM      5  C5  <0> d           1.222  -2.546  -2.122  0.00  0.00     0.042 A 
ATOM      6  N2  <0> d           0.647  -1.927  -1.104  0.00  0.00    -0.212 NA
ATOM      7  H4  <0> d           2.169   0.206  -3.819  0.00  0.00     0.115 H 
ATOM      8  H5  <0> d           2.272  -2.272  -3.976  0.00  0.00     0.088 H 
ENDROOT
BRANCH   5   9
ATOM      9  C6  <0> d           1.260  -4.051  -2.176  0.00  0.00    -0.005 C 
ATOM     10  H6  <0> d           0.245  -4.438  -2.271  0.00  0.00     0.045 H 
ATOM     11  H7  <0> d           1.852  -4.369  -3.034  0.00  0.00     0.045 H 
BRANCH   9  12
ATOM     12  C7  <0> d           1.893  -4.592  -0.892  0.00  0.00     0.022 C 
ATOM     13  H8  <0> d           2.908  -4.205  -0.797  0.00  0.00     0.074 H 
ATOM     14  H9  <0> d           1.302  -4.274  -0.033  0.00  0.00     0.074 H 
BRANCH  12  15
ATOM     15  O2  <0> d           1.930  -6.019  -0.943  0.00  0.00    -0.400 OA
ATOM     16  H10 <0> d           2.320  -6.431  -0.160  0.00  0.00     0.209 HD
ENDBRANCH  12  15
ENDBRANCH   9  12
ENDBRANCH   5   9
BRANCH   1  17
ATOM     17  O1  <0> d           0.002  -0.004   0.002  0.00  0.00    -0.324 OA
BRANCH  17  18
ATOM     18  C1  <0> d          -0.017   1.425   0.010  0.00  0.00     0.013 C 
ATOM     19  H1  <0> d           1.005   1.802   0.002  0.00  0.00     0.067 H 
ATOM     20  H2  <0> d          -0.544   1.786  -0.873  0.00  0.00     0.067 H 
ATOM     21  H3  <0> d          -0.527   1.776   0.907  0.00  0.00     0.067 H 
ENDBRANCH  17  18
ENDBRANCH   1  17
TORSDOF 5
