REMARK  2 active torsions:
REMARK  status: ('A' for Active; 'I' for Inactive)
REMARK    1  A    between atoms: C1_1  and  C2_2 
REMARK    2  A    between atoms: C5_5  and  C6_7 
ROOT
ATOM      1  C2  <0> d           1.742   2.057  -0.004  0.00  0.00    -0.021 A 
ATOM      2  C3  <0> d           2.223   0.790  -0.015  0.00  0.00    -0.070 A 
ATOM      3  C4  <0> d           1.332  -0.266  -0.012  0.00  0.00    -0.070 A 
ATOM      4  C5  <0> d           0.002  -0.004   0.002  0.00  0.00    -0.021 A 
ATOM      5  S1  <0> d          -0.022   1.781   0.012  0.00  0.00    -0.100 SA
ATOM      6  H4  <0> d           3.288   0.609  -0.026  0.00  0.00     0.085 H 
ATOM      7  H5  <0> d           1.689  -1.285  -0.021  0.00  0.00     0.085 H 
ENDROOT
BRANCH   1   8
ATOM      8  C1  <0> d           2.498   3.360  -0.004  0.00  0.00    -0.045 C 
ATOM      9  H1  <0> d           1.792   4.190   0.007  0.00  0.00     0.034 H 
ATOM     10  H2  <0> d           3.134   3.412   0.880  0.00  0.00     0.034 H 
ATOM     11  H3  <0> d           3.116   3.421  -0.900  0.00  0.00     0.034 H 
ENDBRANCH   1   8
BRANCH   4  12
ATOM     12  C6  <0> d          -1.155  -0.969   0.008  0.00  0.00    -0.045 C 
ATOM     13  H6  <0> d          -2.092  -0.412   0.020  0.00  0.00     0.034 H 
ATOM     14  H7  <0> d          -1.114  -1.592  -0.885  0.00  0.00     0.034 H 
ATOM     15  H8  <0> d          -1.097  -1.601   0.895  0.00  0.00     0.034 H 
ENDBRANCH   4  12
TORSDOF 2
