REMARK  3 active torsions:
REMARK  status: ('A' for Active; 'I' for Inactive)
REMARK    1  A    between atoms: C1_1  and  C2_2 
REMARK    2  A    between atoms: C2_2  and  C3_3 
REMARK    3  A    between atoms: C3_3  and  C4_4 
ROOT
ATOM      1  C3  <0> d          -1.251  -0.841   0.018  0.00  0.00    -0.004 C 
ATOM      2  H6  <0> d          -1.283  -1.465  -0.874  0.00  0.00     0.045 H 
ATOM      3  H7  <0> d          -1.253  -1.474   0.905  0.00  0.00     0.045 H 
ENDROOT
BRANCH   1   4
ATOM      4  C2  <0> d          -2.476   0.076   0.044  0.00  0.00    -0.062 C 
ATOM      5  H4  <0> d          -2.444   0.700   0.937  0.00  0.00     0.033 H 
ATOM      6  H5  <0> d          -2.474   0.710  -0.843  0.00  0.00     0.033 H 
BRANCH   4   7
ATOM      7  C1  <0> d          -3.748  -0.773   0.060  0.00  0.00    -0.076 C 
ATOM      8  H1  <0> d          -3.780  -1.398  -0.832  0.00  0.00     0.027 H 
ATOM      9  H2  <0> d          -3.751  -1.407   0.947  0.00  0.00     0.027 H 
ATOM     10  H3  <0> d          -4.621  -0.120   0.079  0.00  0.00     0.027 H 
ENDBRANCH   4   7
ENDBRANCH   1   4
BRANCH   1  11
ATOM     11  C4  <0> d           0.002  -0.004   0.002  0.00  0.00     0.134 C 
ATOM     12  O1  <0> d           1.238  -0.537  -0.021  0.00  0.00    -0.336 OA
ATOM     13  C6  <0> d           2.167   0.493   0.375  0.00  0.00     0.044 C 
ATOM     14  C5  <0> d           1.377   1.771  -0.002  0.00  0.00     0.037 C 
ATOM     15  H10 <0> d           2.361   0.454   1.447  0.00  0.00     0.077 H 
ATOM     16  H11 <0> d           3.095   0.423  -0.192  0.00  0.00     0.077 H 
ATOM     17  N1  <0> d          -0.015   1.282   0.009  0.00  0.00    -0.269 NA
ATOM     18  H8  <0> d           1.659   2.124  -0.994  0.00  0.00     0.070 H 
ATOM     19  H9  <0> d           1.522   2.552   0.745  0.00  0.00     0.070 H 
ENDBRANCH   1  11
TORSDOF 3
