REMARK  4 active torsions:
REMARK  status: ('A' for Active; 'I' for Inactive)
REMARK    1  A    between atoms: C1_1  and  O1_2 
REMARK    2  A    between atoms: O1_2  and  C2_3 
REMARK    3  A    between atoms: C2_3  and  C3_5 
REMARK    4  A    between atoms: C3_5  and  N1_6 
ROOT
ATOM      1  N1  <0> d           2.260   1.186   1.027  0.00  0.00     0.102 N 
ATOM      2  C4  <0> d           1.490   1.730  -0.100  0.00  0.00     0.133 C 
ATOM      3  C5  <0> d           0.163   0.975  -0.217  0.00  0.00     0.044 C 
ATOM      4  O3  <0> d           0.428  -0.422  -0.367  0.00  0.00    -0.388 OA
ATOM      5  C6  <0> d           1.176  -0.986   0.714  0.00  0.00     0.044 C 
ATOM      6  C7  <0> d           2.513  -0.251   0.840  0.00  0.00     0.133 C 
ATOM      7  H6  <0> d           1.292   2.799   0.073  0.00  0.00     0.083 H 
ATOM      8  H7  <0> d           2.066   1.610  -1.030  0.00  0.00     0.083 H 
ATOM      9  H8  <0> d          -0.435   1.142   0.691  0.00  0.00     0.077 H 
ATOM     10  H9  <0> d          -0.391   1.342  -1.093  0.00  0.00     0.077 H 
ATOM     11  H10 <0> d           0.607  -0.879   1.649  0.00  0.00     0.077 H 
ATOM     12  H11 <0> d           1.359  -2.052   0.516  0.00  0.00     0.077 H 
ATOM     13  H12 <0> d           3.105  -0.403  -0.074  0.00  0.00     0.083 H 
ATOM     14  H13 <0> d           3.068  -0.641   1.706  0.00  0.00     0.083 H 
ENDROOT
BRANCH   1  15
ATOM     15  C3  <0> d           3.519   1.922   1.210  0.00  0.00     0.192 C 
ATOM     16  H4  <0> d           3.311   3.002   1.233  0.00  0.00     0.095 H 
ATOM     17  H5  <0> d           4.199   1.697   0.376  0.00  0.00     0.095 H 
BRANCH  15  18
ATOM     18  C2  <0> d           4.160   1.505   2.508  0.00  0.00     0.286 C 
ATOM     19  O2  <0> d           3.574   0.765   3.262  0.00  0.00    -0.263 OA
BRANCH  18  20
ATOM     20  O1  <0> d           5.384   1.956   2.827  0.00  0.00    -0.325 OA
BRANCH  20  21
ATOM     21  C1  <0> d           5.940   1.513   4.093  0.00  0.00     0.013 C 
ATOM     22  H1  <0> d           6.939   1.953   4.228  0.00  0.00     0.067 H 
ATOM     23  H2  <0> d           6.019   0.416   4.095  0.00  0.00     0.067 H 
ATOM     24  H3  <0> d           5.284   1.835   4.914  0.00  0.00     0.067 H 
ENDBRANCH  20  21
ENDBRANCH  18  20
ENDBRANCH  15  18
ENDBRANCH   1  15
TORSDOF 4
