REMARK  2 active torsions:
REMARK  status: ('A' for Active; 'I' for Inactive)
REMARK    1  A    between atoms: C8_8  and  N1_9 
REMARK    2  A    between atoms: C9_10  and  N2_12 
ROOT
ATOM      1  C1  <0> d          -0.017   1.388   0.010  0.00  0.00    -0.080 A 
ATOM      2  C2  <0> d           1.140   2.106   0.003  0.00  0.00    -0.070 A 
ATOM      3  C3  <0> d           2.378   1.442  -0.013  0.00  0.00     0.003 A 
ATOM      4  C4  <0> d           2.411   0.027  -0.021  0.00  0.00     0.003 A 
ATOM      5  C5  <0> d           3.648  -0.636  -0.037  0.00  0.00    -0.070 A 
ATOM      6  C6  <0> d           4.805   0.082  -0.045  0.00  0.00    -0.080 A 
ATOM      7  C7  <0> d           4.786   1.474  -0.037  0.00  0.00    -0.057 A 
ATOM      8  C8  <0> d           3.592   2.162  -0.021  0.00  0.00     0.036 A 
ATOM      9  C9  <0> d           1.196  -0.692  -0.013  0.00  0.00     0.036 A 
ATOM     10  C10 <0> d           0.002  -0.004   0.002  0.00  0.00    -0.057 A 
ATOM     11  H1  <0> d          -0.964   1.906   0.026  0.00  0.00     0.083 H 
ATOM     12  H2  <0> d           1.106   3.185   0.008  0.00  0.00     0.084 H 
ATOM     13  H3  <0> d           3.682  -1.716  -0.043  0.00  0.00     0.084 H 
ATOM     14  H4  <0> d           5.753  -0.437  -0.058  0.00  0.00     0.083 H 
ATOM     15  H5  <0> d           5.718   2.020  -0.043  0.00  0.00     0.086 H 
ATOM     16  H8  <0> d          -0.929  -0.551   0.008  0.00  0.00     0.086 H 
ENDROOT
BRANCH   8  17
ATOM     17  N1  <0> d           3.584   3.556  -0.014  0.00  0.00    -0.398 N 
ATOM     18  H6  <0> d           2.741   4.036  -0.003  0.00  0.00     0.156 HD
ATOM     19  H7  <0> d           4.421   4.046  -0.019  0.00  0.00     0.156 HD
ENDBRANCH   8  17
BRANCH   9  20
ATOM     20  N2  <0> d           1.204  -2.086  -0.021  0.00  0.00    -0.398 N 
ATOM     21  H9  <0> d           2.047  -2.566  -0.032  0.00  0.00     0.156 HD
ATOM     22  H10 <0> d           0.367  -2.576  -0.015  0.00  0.00     0.156 HD
ENDBRANCH   9  20
TORSDOF 2
