REMARK  2 active torsions:
REMARK  status: ('A' for Active; 'I' for Inactive)
REMARK    1  A    between atoms: C2_2  and  C6_8 
REMARK    2  A    between atoms: C5_6  and  N2_7 
REMARK       I    between atoms: C6_8  and  N3_10 
ROOT
ATOM      1  C1  <0> d          -2.422   3.796   0.034  0.00  0.00    -0.040 A 
ATOM      2  C2  <0> d          -1.207   3.102   0.025  0.00  0.00     0.051 A 
ATOM      3  C3  <0> d          -0.015   3.827   0.029  0.00  0.00     0.017 A 
ATOM      4  N1  <0> d          -0.028   5.144   0.031  0.00  0.00    -0.270 NA
ATOM      5  C4  <0> d          -1.153   5.831   0.040  0.00  0.00     0.027 A 
ATOM      6  C5  <0> d          -2.385   5.186   0.042  0.00  0.00     0.044 A 
ATOM      7  H1  <0> d          -3.363   3.267   0.035  0.00  0.00     0.088 H 
ATOM      8  H2  <0> d           0.929   3.302   0.026  0.00  0.00     0.116 H 
ATOM      9  H3  <0> d          -1.118   6.910   0.047  0.00  0.00     0.118 H 
ENDROOT
BRANCH   2  10
ATOM     10  C6  <0> d          -1.187   1.624   0.017  0.00  0.00     0.250 C 
ATOM     11  O1  <0> d          -2.232   1.002   0.018  0.00  0.00    -0.268 OA
ATOM     12  N3  <0> d          -0.011   0.966   0.007  0.00  0.00    -0.366 N 
ATOM     13  H6  <0> d           0.002  -0.004   0.002  0.00  0.00     0.159 HD
ATOM     14  H7  <0> d           0.822   1.462   0.002  0.00  0.00     0.159 HD
ENDBRANCH   2  10
BRANCH   6  15
ATOM     15  N2  <0> d          -3.571   5.925   0.052  0.00  0.00    -0.398 N 
ATOM     16  H4  <0> d          -4.427   5.469   0.054  0.00  0.00     0.156 HD
ATOM     17  H5  <0> d          -3.538   6.895   0.058  0.00  0.00     0.156 HD
ENDBRANCH   6  15
TORSDOF 2
