REMARK  6 active torsions:
REMARK  status: ('A' for Active; 'I' for Inactive)
REMARK    1  A    between atoms: C1_1  and  C2_2 
REMARK    2  A    between atoms: C2_2  and  C3_3 
REMARK    3  A    between atoms: C3_3  and  C4_4 
REMARK    4  A    between atoms: C4_4  and  C5_6 
REMARK    5  A    between atoms: C4_4  and  N1_8 
REMARK    6  A    between atoms: C5_6  and  C6_7 
REMARK       I    between atoms: N1_8  and  C7_9 
REMARK       I    between atoms: C7_9  and  N2_11 
ROOT
ATOM      1  C4  <0> d          -0.013   1.086   0.008  0.00  0.00     0.013 C 
ATOM      2  H1  <0> d           0.002  -0.004   0.002  0.00  0.00     0.072 H 
ENDROOT
BRANCH   1   3
ATOM      3  C3  <0> d          -0.753   1.593  -1.232  0.00  0.00    -0.046 C 
ATOM      4  H7  <0> d          -0.845   2.678  -1.181  0.00  0.00     0.035 H 
ATOM      5  H8  <0> d          -0.194   1.317  -2.126  0.00  0.00     0.035 H 
BRANCH   3   6
ATOM      6  C2  <0> d          -2.147   0.964  -1.286  0.00  0.00    -0.067 C 
ATOM      7  H5  <0> d          -2.054  -0.121  -1.336  0.00  0.00     0.032 H 
ATOM      8  H6  <0> d          -2.705   1.240  -0.391  0.00  0.00     0.032 H 
BRANCH   6   9
ATOM      9  C1  <0> d          -2.886   1.471  -2.526  0.00  0.00    -0.076 C 
ATOM     10  H2  <0> d          -2.979   2.556  -2.475  0.00  0.00     0.027 H 
ATOM     11  H3  <0> d          -2.328   1.195  -3.420  0.00  0.00     0.027 H 
ATOM     12  H4  <0> d          -3.879   1.023  -2.564  0.00  0.00     0.027 H 
ENDBRANCH   6   9
ENDBRANCH   3   6
ENDBRANCH   1   3
BRANCH   1  13
ATOM     13  C5  <0> d           1.423   1.615  -0.003  0.00  0.00    -0.049 C 
ATOM     14  H9  <0> d           1.905   1.339  -0.940  0.00  0.00     0.035 H 
ATOM     15  H10 <0> d           1.410   2.701   0.093  0.00  0.00     0.035 H 
BRANCH  13  16
ATOM     16  C6  <0> d           2.199   1.009   1.168  0.00  0.00    -0.075 C 
ATOM     17  H11 <0> d           3.221   1.387   1.160  0.00  0.00     0.027 H 
ATOM     18  H12 <0> d           1.716   1.286   2.106  0.00  0.00     0.027 H 
ATOM     19  H13 <0> d           2.211  -0.076   1.073  0.00  0.00     0.027 H 
ENDBRANCH  13  16
ENDBRANCH   1  13
BRANCH   1  20
ATOM     20  N1  <0> d          -0.698   1.558   1.213  0.00  0.00    -0.339 N 
ATOM     21  C7  <0> d          -0.575   0.877   2.369  0.00  0.00     0.314 C 
ATOM     22  O1  <0> d           0.105  -0.130   2.412  0.00  0.00    -0.248 OA
ATOM     23  N2  <0> d          -1.206   1.311   3.478  0.00  0.00    -0.352 N 
ATOM     24  H15 <0> d          -1.749   2.115   3.444  0.00  0.00     0.160 HD
ATOM     25  H16 <0> d          -1.118   0.821   4.311  0.00  0.00     0.160 HD
ATOM     26  H14 <0> d          -1.241   2.362   1.179  0.00  0.00     0.164 HD
ENDBRANCH   1  20
TORSDOF 6
