REMARK  6 active torsions:
REMARK  status: ('A' for Active; 'I' for Inactive)
REMARK    1  A    between atoms: C1_1  and  C2_2 
REMARK    2  A    between atoms: C2_2  and  C3_4 
REMARK    3  A    between atoms: C2_2  and  O2_8 
REMARK    4  A    between atoms: C3_4  and  C4_5 
REMARK    5  A    between atoms: C4_5  and  C5_6 
REMARK    6  A    between atoms: C5_6  and  O1_7 
ROOT
ATOM      1  C3  <0> d          -0.037   1.099  -2.490  0.00  0.00    -0.040 C 
ATOM      2  H5  <0> d           0.986   1.476  -2.498  0.00  0.00     0.036 H 
ATOM      3  H6  <0> d          -0.022   0.009  -2.496  0.00  0.00     0.036 H 
ENDROOT
BRANCH   1   4
ATOM      4  C2  <0> d          -0.777   1.606  -3.730  0.00  0.00     0.032 C 
ATOM      5  H1  <0> d          -1.822   1.303  -3.678  0.00  0.00     0.082 H 
BRANCH   4   6
ATOM      6  C1  <0> d          -0.135   1.012  -4.985  0.00  0.00    -0.052 C 
ATOM      7  H2  <0> d          -0.197  -0.076  -4.945  0.00  0.00     0.030 H 
ATOM      8  H3  <0> d          -0.662   1.373  -5.868  0.00  0.00     0.030 H 
ATOM      9  H4  <0> d           0.910   1.314  -5.037  0.00  0.00     0.030 H 
ENDBRANCH   4   6
BRANCH   4  10
ATOM     10  O2  <0> d          -0.696   3.032  -3.783  0.00  0.00    -0.396 OA
ATOM     11  H12 <0> d           0.208   3.373  -3.831  0.00  0.00     0.210 HD
ENDBRANCH   4  10
ENDBRANCH   1   4
BRANCH   1  12
ATOM     12  C4  <0> d          -0.753   1.593  -1.232  0.00  0.00    -0.043 C 
ATOM     13  H7  <0> d          -1.775   1.215  -1.224  0.00  0.00     0.036 H 
ATOM     14  H8  <0> d          -0.767   2.683  -1.226  0.00  0.00     0.036 H 
BRANCH  12  15
ATOM     15  C5  <0> d          -0.013   1.086   0.008  0.00  0.00     0.017 C 
ATOM     16  H9  <0> d           0.002  -0.004   0.002  0.00  0.00     0.073 H 
ATOM     17  H10 <0> d           1.010   1.463   0.000  0.00  0.00     0.073 H 
BRANCH  15  18
ATOM     18  O1  <0> d          -0.682   1.547   1.184  0.00  0.00    -0.401 OA
ATOM     19  H11 <0> d          -0.266   1.262   2.009  0.00  0.00     0.209 HD
ENDBRANCH  15  18
ENDBRANCH  12  15
ENDBRANCH   1  12
TORSDOF 6
