REMARK  6 active torsions:
REMARK  status: ('A' for Active; 'I' for Inactive)
REMARK    1  A    between atoms: C1_1  and  C2_2 
REMARK    2  A    between atoms: C2_2  and  C3_4 
REMARK    3  A    between atoms: C2_2  and  O2_14 
REMARK    4  A    between atoms: C4_8  and  C5_10 
REMARK    5  A    between atoms: C5_10  and  C6_12 
REMARK    6  A    between atoms: C5_10  and  O1_13 
ROOT
ATOM      1  C3  <0> d           1.054   1.786   0.002  0.00  0.00     0.150 A 
ATOM      2  N1  <0> d          -0.011   0.966   0.007  0.00  0.00    -0.261 N 
ATOM      3  H2  <0> d           0.002  -0.004   0.002  0.00  0.00     0.190 HD
ATOM      4  N2  <0> d          -1.147   1.792   0.017  0.00  0.00    -0.155 NA
ATOM      5  C4  <0> d          -0.716   3.026   0.024  0.00  0.00     0.176 A 
ATOM      6  N3  <0> d           0.617   3.019   0.012  0.00  0.00    -0.211 NA
ENDROOT
BRANCH   1   7
ATOM      7  C2  <0> d           2.499   1.360  -0.015  0.00  0.00     0.090 C 
ATOM      8  H1  <0> d           2.979   1.669   0.914  0.00  0.00     0.094 H 
BRANCH   7   9
ATOM      9  C1  <0> d           3.211   2.015  -1.200  0.00  0.00    -0.046 C 
ATOM     10  H4  <0> d           3.153   3.099  -1.103  0.00  0.00     0.031 H 
ATOM     11  H5  <0> d           4.257   1.707  -1.211  0.00  0.00     0.031 H 
ATOM     12  H6  <0> d           2.731   1.706  -2.128  0.00  0.00     0.031 H 
ENDBRANCH   7   9
BRANCH   7  13
ATOM     13  O2  <0> d           2.575  -0.062  -0.140  0.00  0.00    -0.388 OA
ATOM     14  H11 <0> d           2.167  -0.408  -0.946  0.00  0.00     0.210 HD
ENDBRANCH   7  13
ENDBRANCH   1   7
BRANCH   5  15
ATOM     15  C5  <0> d          -1.585   4.257   0.038  0.00  0.00     0.092 C 
ATOM     16  H3  <0> d          -0.981   5.125   0.302  0.00  0.00     0.094 H 
BRANCH  15  17
ATOM     17  C6  <0> d          -2.197   4.465  -1.349  0.00  0.00    -0.046 C 
ATOM     18  H7  <0> d          -2.800   3.597  -1.614  0.00  0.00     0.031 H 
ATOM     19  H8  <0> d          -2.825   5.356  -1.339  0.00  0.00     0.031 H 
ATOM     20  H9  <0> d          -1.400   4.591  -2.082  0.00  0.00     0.031 H 
ENDBRANCH  15  17
BRANCH  15  21
ATOM     21  O1  <0> d          -2.629   4.092   0.999  0.00  0.00    -0.388 OA
ATOM     22  H10 <0> d          -3.207   3.337   0.826  0.00  0.00     0.210 HD
ENDBRANCH  15  21
ENDBRANCH   5  15
TORSDOF 6
