REMARK  4 active torsions:
REMARK  status: ('A' for Active; 'I' for Inactive)
REMARK    1  A    between atoms: C1_1  and  C2_2 
REMARK    2  A    between atoms: C2_2  and  C3_3 
REMARK    3  A    between atoms: C2_2  and  C4_4 
REMARK    4  A    between atoms: C6_6  and  N2_9 
ROOT
ATOM      1  C2  <0> d           0.002  -0.004   0.002  0.00  0.00     0.142 C 
ATOM      2  F1  <0> d           0.657  -0.455  -1.149  0.00  0.00    -0.237 F 
ENDROOT
BRANCH   1   3
ATOM      3  C1  <0> d          -0.019   1.526   0.010  0.00  0.00    -0.038 C 
ATOM      4  H1  <0> d           1.004   1.903   0.003  0.00  0.00     0.032 H 
ATOM      5  H2  <0> d          -0.546   1.887  -0.873  0.00  0.00     0.032 H 
ATOM      6  H3  <0> d          -0.529   1.877   0.907  0.00  0.00     0.032 H 
ENDBRANCH   1   3
BRANCH   1   7
ATOM      7  C3  <0> d           0.742  -0.511   1.242  0.00  0.00    -0.038 C 
ATOM      8  H4  <0> d           0.232  -0.159   2.138  0.00  0.00     0.032 H 
ATOM      9  H5  <0> d           0.757  -1.601   1.236  0.00  0.00     0.032 H 
ATOM     10  H6  <0> d           1.765  -0.134   1.234  0.00  0.00     0.032 H 
ENDBRANCH   1   7
BRANCH   1  11
ATOM     11  C4  <0> d          -1.412  -0.526   0.013  0.00  0.00     0.105 A 
ATOM     12  N1  <0> d          -2.303  -0.300   0.938  0.00  0.00    -0.128 NA
ATOM     13  O1  <0> d          -3.498  -0.965   0.571  0.00  0.00    -0.195 OA
ATOM     14  C6  <0> d          -3.276  -1.595  -0.595  0.00  0.00     0.168 A 
ATOM     15  C5  <0> d          -1.993  -1.342  -0.967  0.00  0.00    -0.003 A 
ATOM     16  H7  <0> d          -1.508  -1.706  -1.860  0.00  0.00     0.093 H 
BRANCH  14  17
ATOM     17  N2  <0> d          -4.190  -2.363  -1.293  0.00  0.00    -0.378 N 
ATOM     18  H8  <0> d          -3.934  -2.779  -2.131  0.00  0.00     0.158 HD
ATOM     19  H9  <0> d          -5.087  -2.486  -0.945  0.00  0.00     0.158 HD
ENDBRANCH  14  17
ENDBRANCH   1  11
TORSDOF 4
