REMARK  2 active torsions:
REMARK  status: ('A' for Active; 'I' for Inactive)
REMARK    1  A    between atoms: C4_5  and  O2_14 
REMARK    2  A    between atoms: C7_10  and  C8_12 
ROOT
ATOM      1  C1  <0> d           3.397   3.280   1.029  0.00  0.00    -0.060 C 
ATOM      2  C2  <0> d           2.618   3.621  -0.263  0.00  0.00    -0.058 C 
ATOM      3  C3  <0> d           1.167   3.116   0.008  0.00  0.00    -0.016 C 
ATOM      4  H1  <0> d           0.390   3.539  -0.629  0.00  0.00     0.045 H 
ATOM      5  C4  <0> d           1.286   1.562  -0.002  0.00  0.00     0.040 C 
ATOM      6  H2  <0> d           1.851   1.229  -0.873  0.00  0.00     0.083 H 
ATOM      7  C5  <0> d           2.047   1.220   1.300  0.00  0.00    -0.036 C 
ATOM      8  C6  <0> d           2.343   2.603   1.957  0.00  0.00    -0.038 C 
ATOM      9  H3  <0> d           2.590   2.578   3.019  0.00  0.00     0.041 H 
ATOM     10  C7  <0> d           1.026   3.387   1.547  0.00  0.00     0.040 C 
ATOM     11  H4  <0> d           0.121   2.942   1.959  0.00  0.00     0.058 H 
ATOM     12  H5  <0> d           4.211   2.590   0.810  0.00  0.00     0.033 H 
ATOM     13  H6  <0> d           3.782   4.189   1.491  0.00  0.00     0.033 H 
ATOM     14  H7  <0> d           3.050   3.097  -1.116  0.00  0.00     0.033 H 
ATOM     15  H8  <0> d           2.620   4.697  -0.437  0.00  0.00     0.033 H 
ATOM     16  H9  <0> d           1.431   0.595   1.947  0.00  0.00     0.037 H 
ATOM     17  H10 <0> d           2.987   0.720   1.070  0.00  0.00     0.037 H 
ENDROOT
BRANCH  10  18
ATOM     18  C8  <0> d           1.126   4.855   1.874  0.00  0.00     0.177 C 
ATOM     19  O1  <0> d           1.295   5.661   0.990  0.00  0.00    -0.648 OA
ATOM     20  O3  <0> d           1.026   5.267   3.148  0.00  0.00    -0.648 OA
ENDBRANCH  10  18
BRANCH   5  21
ATOM     21  O2  <0> d          -0.011   0.963   0.007  0.00  0.00    -0.395 OA
ATOM     22  H11 <0> d           0.002  -0.004   0.002  0.00  0.00     0.210 HD
ENDBRANCH   5  21
TORSDOF 2
