REMARK  3 active torsions:
REMARK  status: ('A' for Active; 'I' for Inactive)
REMARK    1  A    between atoms: C1_1  and  O1_2 
REMARK    2  A    between atoms: O1_2  and  C2_3 
REMARK    3  A    between atoms: C3_4  and  O3_8 
ROOT
ATOM      1  C2  <0> d           0.605  -0.606  -1.054  0.00  0.00     0.248 A 
ATOM      2  C3  <0> d           0.735  -2.051  -1.258  0.00  0.00     0.247 A 
ATOM      3  N1  <0> d           1.369  -2.252  -2.377  0.00  0.00    -0.075 NA
ATOM      4  O2  <0> d           1.673  -0.987  -2.938  0.00  0.00    -0.102 OA
ATOM      5  N2  <0> d           1.162   0.002  -2.063  0.00  0.00    -0.075 NA
ENDROOT
BRANCH   1   6
ATOM      6  O1  <0> d           0.002  -0.004   0.002  0.00  0.00    -0.335 OA
BRANCH   6   7
ATOM      7  C1  <0> d          -0.017   1.425   0.010  0.00  0.00     0.012 C 
ATOM      8  H1  <0> d           1.005   1.802   0.002  0.00  0.00     0.067 H 
ATOM      9  H2  <0> d          -0.544   1.786  -0.873  0.00  0.00     0.067 H 
ATOM     10  H3  <0> d          -0.527   1.776   0.907  0.00  0.00     0.067 H 
ENDBRANCH   6   7
ENDBRANCH   1   6
BRANCH   2  11
ATOM     11  O3  <0> d           0.272  -3.015  -0.422  0.00  0.00    -0.340 OA
ATOM     12  H4  <0> d          -0.631  -3.303  -0.615  0.00  0.00     0.219 HD
ENDBRANCH   2  11
TORSDOF 3
