REMARK  1 active torsions:
REMARK  status: ('A' for Active; 'I' for Inactive)
REMARK    1  A    between atoms: C2_2  and  C3_3 
ROOT
ATOM      1  C1  <0> d           0.018  -1.178  -0.004  0.00  0.00    -0.149 C 
ATOM      2  C2  <0> d           0.002  -0.004   0.002  0.00  0.00    -0.078 C 
ATOM      3  H1  <0> d           0.032  -2.228  -0.010  0.00  0.00     0.166 H 
ENDROOT
BRANCH   2   4
ATOM      4  C3  <0> d          -0.017   1.428   0.010  0.00  0.00     0.019 A 
ATOM      5  C8  <0> d           1.183   2.142   0.002  0.00  0.00    -0.026 A 
ATOM      6  C7  <0> d           1.161   3.521   0.005  0.00  0.00     0.138 A 
ATOM      7  H4  <0> d           2.125   1.615  -0.010  0.00  0.00     0.090 H 
ATOM      8  C6  <0> d          -0.065   4.198   0.026  0.00  0.00     0.083 A 
ATOM      9  F1  <0> d           2.319   4.217  -0.008  0.00  0.00    -0.204 F 
ATOM     10  C5  <0> d          -1.261   3.474   0.039  0.00  0.00    -0.059 A 
ATOM     11  C9  <0> d          -0.093   5.630   0.034  0.00  0.00     0.102 C 
ATOM     12  C4  <0> d          -1.237   2.109   0.031  0.00  0.00    -0.063 A 
ATOM     13  H3  <0> d          -2.207   3.997   0.055  0.00  0.00     0.086 H 
ATOM     14  H2  <0> d          -2.164   1.555   0.041  0.00  0.00     0.085 H 
ATOM     15  N1  <0> d          -0.115   6.765   0.041  0.00  0.00    -0.191 NA
ENDBRANCH   2   4
TORSDOF 1
