REMARK  5 active torsions:
REMARK  status: ('A' for Active; 'I' for Inactive)
REMARK    1  A    between atoms: C1_1  and  C2_2 
REMARK    2  A    between atoms: C3_3  and  N3_10 
REMARK    3  A    between atoms: C4_4  and  O1_8 
REMARK    4  A    between atoms: N2_6  and  C5_7 
REMARK    5  A    between atoms: O1_8  and  C6_9 
ROOT
ATOM      1  C2  <0> d           0.002  -0.004   0.002  0.00  0.00     0.057 A 
ATOM      2  C3  <0> d           0.008  -0.799  -1.097  0.00  0.00     0.105 A 
ATOM      3  C4  <0> d           0.029  -2.136  -0.661  0.00  0.00     0.212 A 
ATOM      4  N1  <0> d           0.035  -2.141   0.649  0.00  0.00    -0.145 NA
ATOM      5  N2  <0> d           0.024  -0.813   1.095  0.00  0.00    -0.274 N 
ENDROOT
BRANCH   3   6
ATOM      6  O1  <0> d           0.041  -3.235  -1.463  0.00  0.00    -0.337 OA
BRANCH   6   7
ATOM      7  C6  <0> d           0.062  -4.509  -0.816  0.00  0.00     0.012 C 
ATOM      8  H7  <0> d           0.069  -5.298  -1.568  0.00  0.00     0.067 H 
ATOM      9  H8  <0> d           0.956  -4.588  -0.198  0.00  0.00     0.067 H 
ATOM     10  H9  <0> d          -0.824  -4.613  -0.189  0.00  0.00     0.067 H 
ENDBRANCH   6   7
ENDBRANCH   3   6
BRANCH   2  11
ATOM     11  N3  <0> d          -0.004  -0.362  -2.437  0.00  0.00    -0.394 N 
ATOM     12  H10 <0> d          -0.018   0.587  -2.638  0.00  0.00     0.156 HD
ATOM     13  H11 <0> d           0.002  -1.011  -3.158  0.00  0.00     0.156 HD
ENDBRANCH   2  11
BRANCH   1  14
ATOM     14  C1  <0> d          -0.018   1.503   0.010  0.00  0.00    -0.034 C 
ATOM     15  H1  <0> d           1.004   1.880   0.003  0.00  0.00     0.035 H 
ATOM     16  H2  <0> d          -0.545   1.864  -0.873  0.00  0.00     0.035 H 
ATOM     17  H3  <0> d          -0.529   1.854   0.907  0.00  0.00     0.035 H 
ENDBRANCH   1  14
BRANCH   5  18
ATOM     18  C5  <0> d           0.031  -0.373   2.493  0.00  0.00     0.003 C 
ATOM     19  H4  <0> d          -0.995  -0.278   2.849  0.00  0.00     0.059 H 
ATOM     20  H5  <0> d           0.560  -1.106   3.102  0.00  0.00     0.059 H 
ATOM     21  H6  <0> d           0.532   0.592   2.567  0.00  0.00     0.059 H 
ENDBRANCH   5  18
TORSDOF 5
