REMARK  6 active torsions:
REMARK  status: ('A' for Active; 'I' for Inactive)
REMARK    1  A    between atoms: C1_1  and  C2_2 
REMARK    2  A    between atoms: C2_2  and  C3_3 
REMARK    3  A    between atoms: C2_2  and  N1_4 
REMARK       I    between atoms: N1_4  and  C4_5 
REMARK    4  A    between atoms: C4_5  and  C5_7 
REMARK    5  A    between atoms: C5_7  and  C6_8 
REMARK    6  A    between atoms: C6_8  and  O2_9 
ROOT
ATOM      1  N1  <0> d           2.636   5.059   0.004  0.00  0.00    -0.357 N 
ATOM      2  C4  <0> d           2.513   3.717  -0.002  0.00  0.00     0.219 C 
ATOM      3  O1  <0> d           3.504   3.017  -0.015  0.00  0.00    -0.274 OA
ATOM      4  H8  <0> d           1.843   5.618   0.015  0.00  0.00     0.162 HD
ENDROOT
BRANCH   1   5
ATOM      5  C2  <0> d           3.966   5.673  -0.005  0.00  0.00     0.005 C 
ATOM      6  H4  <0> d           4.654   5.058   0.574  0.00  0.00     0.071 H 
BRANCH   5   7
ATOM      7  C1  <0> d           4.468   5.780  -1.447  0.00  0.00    -0.058 C 
ATOM      8  H1  <0> d           3.780   6.396  -2.026  0.00  0.00     0.030 H 
ATOM      9  H2  <0> d           5.457   6.237  -1.454  0.00  0.00     0.030 H 
ATOM     10  H3  <0> d           4.524   4.785  -1.887  0.00  0.00     0.030 H 
ENDBRANCH   5   7
BRANCH   5  11
ATOM     11  C3  <0> d           3.887   7.070   0.613  0.00  0.00    -0.058 C 
ATOM     12  H5  <0> d           3.529   6.994   1.639  0.00  0.00     0.030 H 
ATOM     13  H6  <0> d           4.877   7.527   0.606  0.00  0.00     0.030 H 
ATOM     14  H7  <0> d           3.199   7.686   0.033  0.00  0.00     0.030 H 
ENDBRANCH   5  11
ENDBRANCH   1   5
BRANCH   2  15
ATOM     15  C5  <0> d           1.145   3.085   0.008  0.00  0.00     0.029 C 
ATOM     16  H9  <0> d           0.591   3.404  -0.875  0.00  0.00     0.050 H 
ATOM     17  H10 <0> d           0.608   3.395   0.904  0.00  0.00     0.050 H 
BRANCH  15  18
ATOM     18  C6  <0> d           1.286   1.562  -0.002  0.00  0.00     0.025 C 
ATOM     19  H11 <0> d           1.840   1.243   0.881  0.00  0.00     0.074 H 
ATOM     20  H12 <0> d           1.823   1.252  -0.899  0.00  0.00     0.074 H 
BRANCH  18  21
ATOM     21  O2  <0> d          -0.011   0.963   0.007  0.00  0.00    -0.400 OA
ATOM     22  H13 <0> d           0.002  -0.004   0.002  0.00  0.00     0.209 HD
ENDBRANCH  18  21
ENDBRANCH  15  18
ENDBRANCH   2  15
TORSDOF 6
