REMARK  4 active torsions:
REMARK  status: ('A' for Active; 'I' for Inactive)
REMARK    1  A    between atoms: C1_1  and  C2_2 
REMARK    2  A    between atoms: C4_4  and  O1_8 
REMARK    3  A    between atoms: O1_8  and  C5_9 
REMARK    4  A    between atoms: C5_9  and  C6_10 
ROOT
ATOM      1  C6  <0> d          -0.753   1.593  -1.232  0.00  0.00     0.035 C 
ATOM      2  C7  <0> d          -0.064   1.118  -2.443  0.00  0.00     0.061 C 
ATOM      3  N3  <0> d           0.468   0.752  -3.377  0.00  0.00    -0.197 NA
ATOM      4  H8  <0> d          -1.775   1.215  -1.224  0.00  0.00     0.058 H 
ATOM      5  H9  <0> d          -0.767   2.683  -1.226  0.00  0.00     0.058 H 
ENDROOT
BRANCH   1   6
ATOM      6  C5  <0> d          -0.013   1.086   0.008  0.00  0.00     0.039 C 
ATOM      7  H6  <0> d           0.002  -0.004   0.002  0.00  0.00     0.076 H 
ATOM      8  H7  <0> d           1.010   1.463   0.000  0.00  0.00     0.076 H 
BRANCH   6   9
ATOM      9  O1  <0> d          -0.682   1.547   1.184  0.00  0.00    -0.334 OA
BRANCH   9  10
ATOM     10  C4  <0> d          -0.149   1.183   2.378  0.00  0.00     0.160 A 
ATOM     11  C3  <0> d          -0.627   1.519   3.606  0.00  0.00    -0.007 A 
ATOM     12  C2  <0> d           0.209   0.938   4.564  0.00  0.00     0.055 A 
ATOM     13  H5  <0> d          -1.499   2.124   3.805  0.00  0.00     0.093 H 
ATOM     14  N2  <0> d           1.157   0.287   3.942  0.00  0.00    -0.178 NA
ATOM     15  N1  <0> d           0.955   0.425   2.562  0.00  0.00    -0.257 N 
ATOM     16  H1  <0> d           1.526   0.032   1.842  0.00  0.00     0.191 HD
BRANCH  12  17
ATOM     17  C1  <0> d           0.049   1.050   6.059  0.00  0.00    -0.034 C 
ATOM     18  H2  <0> d           0.593   1.923   6.418  0.00  0.00     0.035 H 
ATOM     19  H3  <0> d          -1.008   1.153   6.305  0.00  0.00     0.035 H 
ATOM     20  H4  <0> d           0.447   0.153   6.535  0.00  0.00     0.035 H 
ENDBRANCH  12  17
ENDBRANCH   9  10
ENDBRANCH   6   9
ENDBRANCH   1   6
TORSDOF 4
