REMARK  8 active torsions:
REMARK  status: ('A' for Active; 'I' for Inactive)
REMARK    1  A    between atoms: C1_1  and  C2_2 
REMARK    2  A    between atoms: C1_1  and  C4_5 
REMARK    3  A    between atoms: C2_2  and  C3_3 
REMARK    4  A    between atoms: C3_3  and  O1_4 
REMARK    5  A    between atoms: C4_5  and  C5_6 
REMARK    6  A    between atoms: C5_6  and  C6_8 
REMARK    7  A    between atoms: C5_6  and  O3_10 
REMARK    8  A    between atoms: C6_8  and  O2_9 
ROOT
ATOM      1  C4  <0> d          -0.037   1.099  -2.490  0.00  0.00    -0.039 C 
ATOM      2  H9  <0> d           0.986   1.476  -2.498  0.00  0.00     0.036 H 
ATOM      3  H10 <0> d          -0.022   0.009  -2.496  0.00  0.00     0.036 H 
ENDROOT
BRANCH   1   4
ATOM      4  C1  <0> d          -0.753   1.593  -1.232  0.00  0.00    -0.061 C 
ATOM      5  H2  <0> d          -1.775   1.215  -1.224  0.00  0.00     0.033 H 
ATOM      6  H3  <0> d          -0.767   2.683  -1.226  0.00  0.00     0.033 H 
BRANCH   4   7
ATOM      7  C2  <0> d          -0.013   1.086   0.008  0.00  0.00    -0.045 C 
ATOM      8  H4  <0> d           0.002  -0.004   0.002  0.00  0.00     0.036 H 
ATOM      9  H5  <0> d           1.010   1.463   0.000  0.00  0.00     0.036 H 
BRANCH   7  10
ATOM     10  C3  <0> d          -0.729   1.579   1.267  0.00  0.00     0.017 C 
ATOM     11  H6  <0> d          -0.744   2.669   1.273  0.00  0.00     0.073 H 
ATOM     12  H7  <0> d          -1.751   1.202   1.275  0.00  0.00     0.073 H 
BRANCH  10  13
ATOM     13  O1  <0> d          -0.038   1.106   2.425  0.00  0.00    -0.401 OA
ATOM     14  H8  <0> d          -0.437   1.381   3.261  0.00  0.00     0.209 HD
ENDBRANCH  10  13
ENDBRANCH   7  10
ENDBRANCH   4   7
ENDBRANCH   1   4
BRANCH   1  15
ATOM     15  C5  <0> d          -0.777   1.606  -3.730  0.00  0.00     0.056 C 
ATOM     16  H1  <0> d          -1.822   1.303  -3.678  0.00  0.00     0.086 H 
BRANCH  15  17
ATOM     17  C6  <0> d          -0.135   1.012  -4.985  0.00  0.00     0.040 C 
ATOM     18  H11 <0> d           0.884   1.386  -5.085  0.00  0.00     0.077 H 
ATOM     19  H12 <0> d          -0.117  -0.075  -4.904  0.00  0.00     0.077 H 
BRANCH  17  20
ATOM     20  O2  <0> d          -0.896   1.391  -6.134  0.00  0.00    -0.398 OA
ATOM     21  H13 <0> d          -0.546   1.048  -6.968  0.00  0.00     0.209 HD
ENDBRANCH  17  20
ENDBRANCH  15  17
BRANCH  15  22
ATOM     22  O3  <0> d          -0.696   3.032  -3.783  0.00  0.00    -0.393 OA
ATOM     23  H14 <0> d           0.208   3.373  -3.831  0.00  0.00     0.210 HD
ENDBRANCH  15  22
ENDBRANCH   1  15
TORSDOF 8
