REMARK  5 active torsions:
REMARK  status: ('A' for Active; 'I' for Inactive)
REMARK    1  A    between atoms: C1_1  and  C2_2 
REMARK    2  A    between atoms: C2_2  and  C3_4 
REMARK    3  A    between atoms: C2_2  and  O1_12 
REMARK    4  A    between atoms: C3_4  and  C4_5 
REMARK    5  A    between atoms: C4_5  and  C5_6 
ROOT
ATOM      1  C4  <0> d           3.711  -0.707  -0.039  0.00  0.00    -0.039 C 
ATOM      2  H7  <0> d           4.468  -0.111   0.471  0.00  0.00     0.040 H 
ATOM      3  H8  <0> d           3.599  -1.664   0.471  0.00  0.00     0.040 H 
ENDROOT
BRANCH   1   4
ATOM      4  C3  <0> d           4.142  -0.948  -1.487  0.00  0.00    -0.038 C 
ATOM      5  H5  <0> d           3.385  -1.545  -1.996  0.00  0.00     0.037 H 
ATOM      6  H6  <0> d           4.254   0.009  -1.997  0.00  0.00     0.037 H 
BRANCH   4   7
ATOM      7  C2  <0> d           5.477  -1.695  -1.504  0.00  0.00     0.032 C 
ATOM      8  H1  <0> d           6.211  -1.141  -0.919  0.00  0.00     0.082 H 
BRANCH   7   9
ATOM      9  C1  <0> d           5.969  -1.827  -2.947  0.00  0.00    -0.052 C 
ATOM     10  H2  <0> d           6.103  -0.834  -3.377  0.00  0.00     0.030 H 
ATOM     11  H3  <0> d           6.920  -2.359  -2.959  0.00  0.00     0.030 H 
ATOM     12  H4  <0> d           5.235  -2.381  -3.532  0.00  0.00     0.030 H 
ENDBRANCH   7   9
BRANCH   7  13
ATOM     13  O1  <0> d           5.302  -2.996  -0.940  0.00  0.00    -0.396 OA
ATOM     14  H14 <0> d           6.110  -3.528  -0.919  0.00  0.00     0.210 HD
ENDBRANCH   7  13
ENDBRANCH   4   7
ENDBRANCH   1   4
BRANCH   1  15
ATOM     15  C5  <0> d           2.396   0.029  -0.022  0.00  0.00    -0.058 A 
ATOM     16  C10 <0> d           2.377   1.411  -0.014  0.00  0.00    -0.077 A 
ATOM     17  C9  <0> d           1.171   2.086   0.002  0.00  0.00    -0.082 A 
ATOM     18  H13 <0> d           3.305   1.963  -0.019  0.00  0.00     0.084 H 
ATOM     19  C8  <0> d          -0.017   1.378   0.010  0.00  0.00    -0.083 A 
ATOM     20  H12 <0> d           1.156   3.165   0.008  0.00  0.00     0.083 H 
ATOM     21  C7  <0> d           0.002  -0.004   0.002  0.00  0.00    -0.082 A 
ATOM     22  H11 <0> d          -0.959   1.905   0.017  0.00  0.00     0.083 H 
ATOM     23  C6  <0> d           1.208  -0.679  -0.014  0.00  0.00    -0.077 A 
ATOM     24  H10 <0> d          -0.926  -0.557   0.008  0.00  0.00     0.083 H 
ATOM     25  H9  <0> d           1.223  -1.759  -0.020  0.00  0.00     0.084 H 
ENDBRANCH   1  15
TORSDOF 5
