REMARK  5 active torsions:
REMARK  status: ('A' for Active; 'I' for Inactive)
REMARK    1  A    between atoms: C1_1  and  C2_2 
REMARK    2  A    between atoms: C2_2  and  C3_3 
REMARK    3  A    between atoms: C3_3  and  C4_4 
REMARK    4  A    between atoms: C3_3  and  C5_5 
REMARK    5  A    between atoms: C3_3  and  O1_7 
ROOT
ATOM      1  C5  <0> d           0.738  -1.969  -1.265  0.00  0.00    -0.080 C 
ATOM      2  C6  <0> d           0.754  -3.143  -1.271  0.00  0.00    -0.151 C 
ATOM      3  H9  <0> d           0.768  -4.193  -1.277  0.00  0.00     0.166 H 
ENDROOT
BRANCH   1   4
ATOM      4  C3  <0> d           0.718  -0.497  -1.257  0.00  0.00     0.116 C 
BRANCH   4   5
ATOM      5  C2  <0> d           0.002  -0.004   0.002  0.00  0.00    -0.029 C 
ATOM      6  H4  <0> d           0.529  -0.365   0.885  0.00  0.00     0.038 H 
ATOM      7  H5  <0> d          -1.020  -0.381   0.010  0.00  0.00     0.038 H 
BRANCH   5   8
ATOM      8  C1  <0> d          -0.019   1.526   0.010  0.00  0.00    -0.073 C 
ATOM      9  H1  <0> d           1.004   1.903   0.003  0.00  0.00     0.027 H 
ATOM     10  H2  <0> d          -0.546   1.887  -0.873  0.00  0.00     0.027 H 
ATOM     11  H3  <0> d          -0.529   1.877   0.907  0.00  0.00     0.027 H 
ENDBRANCH   5   8
ENDBRANCH   4   5
BRANCH   4  12
ATOM     12  C4  <0> d           2.154   0.032  -1.268  0.00  0.00    -0.037 C 
ATOM     13  H6  <0> d           2.681  -0.329  -0.385  0.00  0.00     0.033 H 
ATOM     14  H7  <0> d           2.664  -0.319  -2.164  0.00  0.00     0.033 H 
ATOM     15  H8  <0> d           2.139   1.122  -1.262  0.00  0.00     0.033 H 
ENDBRANCH   4  12
BRANCH   4  16
ATOM     16  O1  <0> d           0.027  -0.024  -2.414  0.00  0.00    -0.378 OA
ATOM     17  H10 <0> d          -0.891  -0.322  -2.473  0.00  0.00     0.211 HD
ENDBRANCH   4  16
ENDBRANCH   1   4
TORSDOF 5
