REMARK  4 active torsions:
REMARK  status: ('A' for Active; 'I' for Inactive)
REMARK    1  A    between atoms: C1_1  and  O1_2 
REMARK    2  A    between atoms: O1_2  and  C2_3 
REMARK    3  A    between atoms: C2_3  and  C3_5 
REMARK    4  A    between atoms: C2_3  and  O2_9 
ROOT
ATOM      1  C2  <0> d          -0.068   1.127   2.404  0.00  0.00     0.223 C 
ATOM      2  H1  <0> d           0.107   0.051   2.371  0.00  0.00     0.143 H 
ENDROOT
BRANCH   1   3
ATOM      3  O1  <0> d          -0.682   1.547   1.184  0.00  0.00    -0.358 OA
BRANCH   3   4
ATOM      4  C1  <0> d          -0.013   1.086   0.008  0.00  0.00     0.007 C 
ATOM      5  H2  <0> d           0.002  -0.004   0.002  0.00  0.00     0.066 H 
ATOM      6  H3  <0> d           1.010   1.463   0.000  0.00  0.00     0.066 H 
ATOM      7  H4  <0> d          -0.540   1.447  -0.875  0.00  0.00     0.066 H 
ENDBRANCH   3   4
ENDBRANCH   1   3
BRANCH   1   8
ATOM      8  C3  <0> d          -0.990   1.458   3.579  0.00  0.00     0.437 C 
ATOM      9  F1  <0> d          -2.210   0.791   3.417  0.00  0.00    -0.166 F 
ATOM     10  F2  <0> d          -0.389   1.046   4.774  0.00  0.00    -0.166 F 
ATOM     11  F3  <0> d          -1.215   2.838   3.621  0.00  0.00    -0.166 F 
ENDBRANCH   1   8
BRANCH   1  12
ATOM     12  O2  <0> d           1.178   1.807   2.570  0.00  0.00    -0.364 OA
ATOM     13  H5  <0> d           1.098   2.770   2.607  0.00  0.00     0.213 HD
ENDBRANCH   1  12
TORSDOF 4
