REMARK  3 active torsions:
REMARK  status: ('A' for Active; 'I' for Inactive)
REMARK    1  A    between atoms: C1_1  and  C2_2 
REMARK    2  A    between atoms: C2_2  and  N1_3 
REMARK    3  A    between atoms: C4_5  and  N3_8 
ROOT
ATOM      1  N1  <0> d           1.073   1.894   0.002  0.00  0.00    -0.279 N 
ATOM      2  C3  <0> d          -0.013   1.076   0.008  0.00  0.00     0.025 A 
ATOM      3  C4  <0> d          -1.118   1.863   0.017  0.00  0.00     0.062 A 
ATOM      4  C5  <0> d          -0.695   3.200   0.026  0.00  0.00     0.048 A 
ATOM      5  N2  <0> d           0.614   3.217   0.013  0.00  0.00    -0.183 NA
ATOM      6  H6  <0> d           0.002  -0.004   0.002  0.00  0.00     0.117 H 
ATOM      7  H7  <0> d          -1.338   4.066   0.036  0.00  0.00     0.121 H 
ENDROOT
BRANCH   1   8
ATOM      8  C2  <0> d           2.475   1.468  -0.014  0.00  0.00     0.013 C 
ATOM      9  H4  <0> d           2.958   1.772   0.914  0.00  0.00     0.066 H 
ATOM     10  H5  <0> d           2.523   0.383  -0.110  0.00  0.00     0.066 H 
BRANCH   8  11
ATOM     11  C1  <0> d           3.192   2.117  -1.199  0.00  0.00    -0.059 C 
ATOM     12  H1  <0> d           3.143   3.202  -1.103  0.00  0.00     0.029 H 
ATOM     13  H2  <0> d           4.235   1.800  -1.211  0.00  0.00     0.029 H 
ATOM     14  H3  <0> d           2.709   1.813  -2.128  0.00  0.00     0.029 H 
ENDBRANCH   8  11
ENDBRANCH   1   8
BRANCH   3  15
ATOM     15  N3  <0> d          -2.453   1.416   0.019  0.00  0.00    -0.397 N 
ATOM     16  H8  <0> d          -2.647   0.466   0.015  0.00  0.00     0.156 HD
ATOM     17  H9  <0> d          -3.180   2.059   0.026  0.00  0.00     0.156 HD
ENDBRANCH   3  15
TORSDOF 3
