REMARK  3 active torsions:
REMARK  status: ('A' for Active; 'I' for Inactive)
REMARK    1  A    between atoms: C1_1  and  N1_2 
REMARK    2  A    between atoms: N1_2  and  C2_3 
REMARK    3  A    between atoms: N2_10  and  C9_11 
ROOT
ATOM      1  C2  <0> d          -0.841   2.915   1.441  0.00  0.00     0.056 A 
ATOM      2  C3  <0> d          -0.308   3.754   0.481  0.00  0.00    -0.055 A 
ATOM      3  C4  <0> d          -0.308   5.149   0.455  0.00  0.00    -0.081 A 
ATOM      4  C5  <0> d          -0.832   6.037   1.364  0.00  0.00    -0.083 A 
ATOM      5  C6  <0> d          -1.505   5.792   2.561  0.00  0.00    -0.081 A 
ATOM      6  C7  <0> d          -1.822   4.602   3.144  0.00  0.00    -0.053 A 
ATOM      7  C8  <0> d          -1.548   3.296   2.673  0.00  0.00     0.076 A 
ATOM      8  N2  <0> d          -1.973   2.299   3.434  0.00  0.00    -0.292 NA
ATOM      9  H5  <0> d           0.170   3.267  -0.356  0.00  0.00     0.087 H 
ATOM     10  H6  <0> d           0.172   5.595  -0.404  0.00  0.00     0.083 H 
ATOM     11  H7  <0> d          -0.702   7.079   1.115  0.00  0.00     0.083 H 
ATOM     12  H8  <0> d          -1.821   6.672   3.103  0.00  0.00     0.083 H 
ATOM     13  H9  <0> d          -2.353   4.663   4.082  0.00  0.00     0.087 H 
ENDROOT
BRANCH   1  14
ATOM     14  N1  <0> d          -0.698   1.558   1.213  0.00  0.00    -0.392 N 
ATOM     15  H4  <0> d          -1.052   0.920   1.852  0.00  0.00     0.159 HD
BRANCH  14  16
ATOM     16  C1  <0> d          -0.013   1.086   0.008  0.00  0.00    -0.021 C 
ATOM     17  H1  <0> d           0.002  -0.004   0.002  0.00  0.00     0.056 H 
ATOM     18  H2  <0> d           1.010   1.463   0.000  0.00  0.00     0.056 H 
ATOM     19  H3  <0> d          -0.540   1.447  -0.875  0.00  0.00     0.056 H 
ENDBRANCH  14  16
ENDBRANCH   1  14
BRANCH   8  20
ATOM     20  C9  <0> d          -2.687   2.583   4.682  0.00  0.00     0.001 C 
ATOM     21  H10 <0> d          -2.046   3.164   5.343  0.00  0.00     0.059 H 
ATOM     22  H11 <0> d          -3.591   3.150   4.461  0.00  0.00     0.059 H 
ATOM     23  H12 <0> d          -2.956   1.645   5.168  0.00  0.00     0.059 H 
ENDBRANCH   8  20
TORSDOF 3
