REMARK  1 active torsions:
REMARK  status: ('A' for Active; 'I' for Inactive)
REMARK    1  A    between atoms: C5_5  and  O1_11 
ROOT
ATOM      1  C1  <0> d           3.567   1.912  -0.023  0.00  0.00    -0.065 A 
ATOM      2  C2  <0> d           2.437   1.145  -0.016  0.00  0.00    -0.069 A 
ATOM      3  C3  <0> d           1.191   1.798   0.000  0.00  0.00    -0.005 A 
ATOM      4  C4  <0> d          -0.013   1.076   0.008  0.00  0.00    -0.039 A 
ATOM      5  C5  <0> d          -1.202   1.747   0.017  0.00  0.00     0.066 A 
ATOM      6  C6  <0> d          -1.234   3.145   0.032  0.00  0.00    -0.049 A 
ATOM      7  C7  <0> d          -0.086   3.872   0.024  0.00  0.00    -0.052 A 
ATOM      8  C8  <0> d           1.158   3.215   0.008  0.00  0.00     0.067 A 
ATOM      9  N1  <0> d           2.302   3.907   0.001  0.00  0.00    -0.260 NA
ATOM     10  C9  <0> d           3.465   3.301  -0.014  0.00  0.00     0.003 A 
ATOM     11  H1  <0> d           4.540   1.442  -0.035  0.00  0.00     0.085 H 
ATOM     12  H2  <0> d           2.498   0.066  -0.022  0.00  0.00     0.085 H 
ATOM     13  H3  <0> d           0.002  -0.004   0.002  0.00  0.00     0.089 H 
ATOM     14  H4  <0> d          -2.186   3.655   0.044  0.00  0.00     0.087 H 
ATOM     15  H5  <0> d          -0.128   4.952   0.030  0.00  0.00     0.087 H 
ATOM     16  H6  <0> d           4.367   3.895  -0.020  0.00  0.00     0.114 H 
ENDROOT
BRANCH   5  17
ATOM     17  O1  <0> d          -2.368   1.048   0.019  0.00  0.00    -0.361 OA
ATOM     18  H7  <0> d          -2.701   0.841   0.903  0.00  0.00     0.217 HD
ENDBRANCH   5  17
TORSDOF 1
