REMARK  1 active torsions:
REMARK  status: ('A' for Active; 'I' for Inactive)
REMARK    1  A    between atoms: C3_3  and  N2_7 
ROOT
ATOM      1  C1  <0> d           0.002  -0.004   0.002  0.00  0.00    -0.059 C 
ATOM      2  C2  <0> d          -0.019   1.534   0.011  0.00  0.00    -0.019 C 
ATOM      3  C3  <0> d           1.518   1.476  -0.004  0.00  0.00     0.242 C 
ATOM      4  C4  <0> d           1.394   0.090   0.649  0.00  0.00    -0.019 C 
ATOM      5  C5  <0> d           2.154   2.482   0.862  0.00  0.00     0.101 C 
ATOM      6  N1  <0> d           2.645   3.258   1.531  0.00  0.00    -0.195 NA
ATOM      7  H1  <0> d           0.079  -0.534  -0.959  0.00  0.00     0.033 H 
ATOM      8  H2  <0> d          -0.677  -0.554   0.671  0.00  0.00     0.033 H 
ATOM      9  H3  <0> d          -0.551   1.898  -0.881  0.00  0.00     0.038 H 
ATOM     10  H4  <0> d          -0.534   1.888   0.915  0.00  0.00     0.038 H 
ATOM     11  H5  <0> d           1.296   0.018   1.742  0.00  0.00     0.038 H 
ATOM     12  H6  <0> d           2.025  -0.734   0.283  0.00  0.00     0.038 H 
ENDROOT
BRANCH   3  13
ATOM     13  N2  <0> d           2.092   1.441  -1.356  0.00  0.00     0.102 N 
ATOM     14  H7  <0> d           3.189   1.401  -1.287  0.00  0.00     0.315 HD
ATOM     15  H8  <0> d           1.725   0.550  -1.887  0.00  0.00     0.315 HD
ENDBRANCH   3  13
TORSDOF 1
