REMARK  2 active torsions:
REMARK  status: ('A' for Active; 'I' for Inactive)
REMARK    1  A    between atoms: C1_1  and  C2_2 
REMARK    2  A    between atoms: C8_12  and  C9_14 
ROOT
ATOM      1  C2  <0> d          -0.013   1.086   0.008  0.00  0.00    -0.053 C 
ATOM      2  H1  <0> d           0.002  -0.004   0.002  0.00  0.00     0.040 H 
ATOM      3  C3  <0> d           1.429   1.644  -0.003  0.00  0.00    -0.058 C 
ATOM      4  C4  <0> d           1.546   2.457   1.323  0.00  0.00    -0.049 C 
ATOM      5  H2  <0> d           2.345   3.199   1.358  0.00  0.00     0.040 H 
ATOM      6  C5  <0> d           0.083   3.007   1.457  0.00  0.00    -0.056 C 
ATOM      7  C6  <0> d          -0.630   1.614   1.339  0.00  0.00    -0.035 C 
ATOM      8  H3  <0> d          -1.719   1.624   1.388  0.00  0.00     0.042 H 
ATOM      9  C7  <0> d           0.110   0.816   2.456  0.00  0.00     0.037 C 
ATOM     10  H4  <0> d          -0.360   0.992   3.423  0.00  0.00     0.064 H 
ATOM     11  C8  <0> d           1.551   1.375   2.445  0.00  0.00    -0.038 C 
ATOM     12  H5  <0> d           2.263   0.585   2.208  0.00  0.00     0.042 H 
ATOM     13  C10 <0> d           0.115  -0.622   2.142  0.00  0.00     0.064 C 
ATOM     14  N1  <0> d           0.118  -1.732   1.901  0.00  0.00    -0.197 NA
ATOM     15  H9  <0> d           2.152   0.829  -0.014  0.00  0.00     0.034 H 
ATOM     16  H10 <0> d           1.577   2.295  -0.864  0.00  0.00     0.034 H 
ATOM     17  H11 <0> d          -0.091   3.475   2.426  0.00  0.00     0.034 H 
ATOM     18  H12 <0> d          -0.181   3.673   0.635  0.00  0.00     0.034 H 
ENDROOT
BRANCH  11  19
ATOM     19  C9  <0> d           1.888   2.009   3.796  0.00  0.00    -0.071 C 
ATOM     20  H13 <0> d           1.142   2.767   4.037  0.00  0.00     0.028 H 
ATOM     21  H14 <0> d           1.887   1.240   4.569  0.00  0.00     0.028 H 
ATOM     22  H15 <0> d           2.873   2.472   3.745  0.00  0.00     0.028 H 
ENDBRANCH  11  19
BRANCH   1  23
ATOM     23  C1  <0> d          -0.798   1.614  -1.194  0.00  0.00    -0.072 C 
ATOM     24  H6  <0> d          -0.335   1.260  -2.115  0.00  0.00     0.028 H 
ATOM     25  H7  <0> d          -1.826   1.255  -1.142  0.00  0.00     0.028 H 
ATOM     26  H8  <0> d          -0.793   2.704  -1.181  0.00  0.00     0.028 H 
ENDBRANCH   1  23
TORSDOF 2
