REMARK  2 active torsions:
REMARK  status: ('A' for Active; 'I' for Inactive)
REMARK    1  A    between atoms: C4_4  and  O2_8 
REMARK    2  A    between atoms: C6_6  and  O1_7 
ROOT
ATOM      1  C1  <0> d           1.862   1.822   1.195  0.00  0.00    -0.049 A 
ATOM      2  C2  <0> d           3.119   2.396   1.188  0.00  0.00    -0.057 A 
ATOM      3  C3  <0> d           3.738   2.693  -0.012  0.00  0.00     0.067 A 
ATOM      4  C4  <0> d           3.100   2.410  -1.213  0.00  0.00     0.090 A 
ATOM      5  C5  <0> d           1.841   1.830  -1.206  0.00  0.00    -0.017 A 
ATOM      6  C6  <0> d           1.223   1.532  -0.001  0.00  0.00     0.068 A 
ATOM      7 Cl1  <0> d           5.315   3.421  -0.019  0.00  0.00    -0.081 Cl
ATOM      8  H1  <0> d           1.379   1.595   2.134  0.00  0.00     0.087 H 
ATOM      9  H2  <0> d           3.617   2.617   2.120  0.00  0.00     0.086 H 
ATOM     10  H3  <0> d           1.343   1.609  -2.139  0.00  0.00     0.092 H 
ENDROOT
BRANCH   4  11
ATOM     11  O2  <0> d           3.708   2.703  -2.392  0.00  0.00    -0.359 OA
ATOM     12  H5  <0> d           3.514   3.589  -2.726  0.00  0.00     0.217 HD
ENDBRANCH   4  11
BRANCH   6  13
ATOM     13  O1  <0> d          -0.011   0.963   0.007  0.00  0.00    -0.361 OA
ATOM     14  H4  <0> d           0.002  -0.004   0.002  0.00  0.00     0.217 HD
ENDBRANCH   6  13
TORSDOF 2
