REMARK  2 active torsions:
REMARK  status: ('A' for Active; 'I' for Inactive)
REMARK    1  A    between atoms: C2_2  and  C3_3 
REMARK    2  A    between atoms: C3_3  and  O1_12 
ROOT
ATOM      1  C3  <0> d           1.998   0.011  -1.445  0.00  0.00     0.079 C 
ATOM      2  C4  <0> d           1.982   1.577  -1.429  0.00  0.00    -0.029 C 
ATOM      3  C5  <0> d           1.484   1.956  -0.002  0.00  0.00    -0.051 C 
ATOM      4  H1  <0> d           1.702   2.969   0.337  0.00  0.00     0.040 H 
ATOM      5  C6  <0> d          -0.019   1.542   0.011  0.00  0.00    -0.061 C 
ATOM      6  C7  <0> d           0.002  -0.004   0.002  0.00  0.00    -0.058 C 
ATOM      7  C8  <0> d           1.516  -0.378  -0.015  0.00  0.00    -0.021 C 
ATOM      8  H2  <0> d           1.761  -1.388   0.313  0.00  0.00     0.045 H 
ATOM      9  C9  <0> d           2.113   0.793   0.844  0.00  0.00    -0.055 C 
ATOM     10  H6  <0> d           1.292   1.952  -2.185  0.00  0.00     0.038 H 
ATOM     11  H7  <0> d           2.984   1.971  -1.600  0.00  0.00     0.038 H 
ATOM     12  H8  <0> d          -0.525   1.920  -0.878  0.00  0.00     0.033 H 
ATOM     13  H9  <0> d          -0.507   1.910   0.912  0.00  0.00     0.033 H 
ATOM     14  H10 <0> d          -0.476  -0.396   0.900  0.00  0.00     0.033 H 
ATOM     15  H11 <0> d          -0.495  -0.386  -0.890  0.00  0.00     0.033 H 
ATOM     16  H12 <0> d           1.738   0.782   1.867  0.00  0.00     0.034 H 
ATOM     17  H13 <0> d           3.202   0.807   0.814  0.00  0.00     0.034 H 
ENDROOT
BRANCH   1  18
ATOM     18  C2  <0> d           3.397  -0.497  -1.684  0.00  0.00    -0.079 C 
ATOM     19  C1  <0> d           3.630  -1.336  -2.662  0.00  0.00    -0.122 C 
ATOM     20  H3  <0> d           2.821  -1.665  -3.297  0.00  0.00     0.066 H 
ATOM     21  H4  <0> d           4.633  -1.701  -2.834  0.00  0.00     0.066 H 
ATOM     22  H5  <0> d           4.207  -0.169  -1.049  0.00  0.00     0.080 H 
ENDBRANCH   1  18
BRANCH   1  23
ATOM     23  O1  <0> d           1.103  -0.507  -2.431  0.00  0.00    -0.385 OA
ATOM     24  H14 <0> d           1.355  -0.295  -3.341  0.00  0.00     0.211 HD
ENDBRANCH   1  23
TORSDOF 2
