REMARK  5 active torsions:
REMARK  status: ('A' for Active; 'I' for Inactive)
REMARK    1  A    between atoms: C1_1  and  C2_2 
REMARK    2  A    between atoms: C2_2  and  N1_3 
REMARK    3  A    between atoms: C3_4  and  C7_10 
REMARK    4  A    between atoms: C4_5  and  C6_8 
REMARK    5  A    between atoms: C6_8  and  O1_9 
ROOT
ATOM      1  N1  <0> d           1.623   5.193   0.015  0.00  0.00    -0.274 N 
ATOM      2  C3  <0> d           2.163   3.956   0.003  0.00  0.00     0.036 A 
ATOM      3  C4  <0> d           1.147   3.062   0.008  0.00  0.00     0.008 A 
ATOM      4  C5  <0> d          -0.055   3.777   0.017  0.00  0.00     0.032 A 
ATOM      5  N2  <0> d           0.229   5.054   0.027  0.00  0.00    -0.184 NA
ATOM      6  H6  <0> d          -1.047   3.349   0.018  0.00  0.00     0.118 H 
ENDROOT
BRANCH   1   7
ATOM      7  C2  <0> d           2.363   6.457   0.015  0.00  0.00     0.014 C 
ATOM      8  H4  <0> d           1.784   7.217   0.538  0.00  0.00     0.066 H 
ATOM      9  H5  <0> d           3.319   6.318   0.519  0.00  0.00     0.066 H 
BRANCH   7  10
ATOM     10  C1  <0> d           2.608   6.905  -1.428  0.00  0.00    -0.059 C 
ATOM     11  H1  <0> d           3.159   7.845  -1.428  0.00  0.00     0.029 H 
ATOM     12  H2  <0> d           3.187   6.144  -1.951  0.00  0.00     0.029 H 
ATOM     13  H3  <0> d           1.651   7.044  -1.932  0.00  0.00     0.029 H 
ENDBRANCH   7  10
ENDBRANCH   1   7
BRANCH   2  14
ATOM     14  C7  <0> d           3.634   3.629  -0.013  0.00  0.00    -0.035 C 
ATOM     15  H10 <0> d           3.979   3.556  -1.044  0.00  0.00     0.035 H 
ATOM     16  H11 <0> d           4.186   4.417   0.500  0.00  0.00     0.035 H 
ATOM     17  H12 <0> d           3.800   2.679   0.494  0.00  0.00     0.035 H 
ENDBRANCH   2  14
BRANCH   3  18
ATOM     18  C6  <0> d           1.286   1.562  -0.002  0.00  0.00     0.044 C 
ATOM     19  H7  <0> d           1.840   1.243   0.881  0.00  0.00     0.081 H 
ATOM     20  H8  <0> d           1.823   1.252  -0.899  0.00  0.00     0.081 H 
BRANCH  18  21
ATOM     21  O1  <0> d          -0.011   0.963   0.007  0.00  0.00    -0.396 OA
ATOM     22  H9  <0> d           0.002  -0.004   0.002  0.00  0.00     0.209 HD
ENDBRANCH  18  21
ENDBRANCH   3  18
TORSDOF 5
