REMARK  9 active torsions:
REMARK  status: ('A' for Active; 'I' for Inactive)
REMARK    1  A    between atoms: C1_1  and  C2_2 
REMARK    2  A    between atoms: C2_2  and  C3_3 
REMARK    3  A    between atoms: C3_3  and  C4_4 
REMARK    4  A    between atoms: C4_4  and  O1_5 
REMARK    5  A    between atoms: O1_5  and  C5_6 
REMARK    6  A    between atoms: C5_6  and  C6_8 
REMARK    7  A    between atoms: C6_8  and  C7_10 
REMARK    8  A    between atoms: C6_8  and  C8_11 
REMARK    9  A    between atoms: C8_11  and  C9_12 
ROOT
ATOM      1  C5  <0> d          -0.074   0.981   2.485  0.00  0.00     0.262 C 
ATOM      2  O2  <0> d           0.869   0.235   2.359  0.00  0.00    -0.265 OA
ENDROOT
BRANCH   1   3
ATOM      3  O1  <0> d          -0.538   1.275   3.709  0.00  0.00    -0.321 OA
BRANCH   3   4
ATOM      4  C4  <0> d           0.142   0.662   4.837  0.00  0.00     0.029 C 
ATOM      5  H9  <0> d           0.079  -0.423   4.753  0.00  0.00     0.075 H 
ATOM      6  H10 <0> d           1.189   0.966   4.839  0.00  0.00     0.075 H 
BRANCH   4   7
ATOM      7  C3  <0> d          -0.523   1.112   6.139  0.00  0.00    -0.045 C 
ATOM      8  H7  <0> d          -0.460   2.197   6.223  0.00  0.00     0.036 H 
ATOM      9  H8  <0> d          -1.570   0.807   6.137  0.00  0.00     0.036 H 
BRANCH   7  10
ATOM     10  C2  <0> d           0.193   0.466   7.327  0.00  0.00    -0.067 C 
ATOM     11  H5  <0> d           0.131  -0.619   7.243  0.00  0.00     0.032 H 
ATOM     12  H6  <0> d           1.240   0.770   7.329  0.00  0.00     0.032 H 
BRANCH  10  13
ATOM     13  C1  <0> d          -0.472   0.916   8.629  0.00  0.00    -0.076 C 
ATOM     14  H2  <0> d          -0.409   2.001   8.713  0.00  0.00     0.027 H 
ATOM     15  H3  <0> d          -1.518   0.612   8.627  0.00  0.00     0.027 H 
ATOM     16  H4  <0> d           0.038   0.456   9.476  0.00  0.00     0.027 H 
ENDBRANCH  10  13
ENDBRANCH   7  10
ENDBRANCH   4   7
ENDBRANCH   3   4
ENDBRANCH   1   3
BRANCH   1  17
ATOM     17  C6  <0> d          -0.729   1.579   1.267  0.00  0.00     0.026 C 
ATOM     18  H1  <0> d          -1.776   1.277   1.232  0.00  0.00     0.054 H 
BRANCH  17  19
ATOM     19  C7  <0> d          -0.641   3.105   1.339  0.00  0.00    -0.064 C 
ATOM     20  H11 <0> d           0.406   3.407   1.374  0.00  0.00     0.028 H 
ATOM     21  H12 <0> d          -1.115   3.538   0.458  0.00  0.00     0.028 H 
ATOM     22  H13 <0> d          -1.151   3.457   2.235  0.00  0.00     0.028 H 
ENDBRANCH  17  19
BRANCH  17  23
ATOM     23  C8  <0> d          -0.013   1.086   0.008  0.00  0.00    -0.057 C 
ATOM     24  H14 <0> d           0.002  -0.004   0.002  0.00  0.00     0.033 H 
ATOM     25  H15 <0> d           1.010   1.463   0.000  0.00  0.00     0.033 H 
BRANCH  23  26
ATOM     26  C9  <0> d          -0.753   1.593  -1.232  0.00  0.00    -0.076 C 
ATOM     27  H16 <0> d          -0.242   1.241  -2.128  0.00  0.00     0.027 H 
ATOM     28  H17 <0> d          -1.775   1.215  -1.224  0.00  0.00     0.027 H 
ATOM     29  H18 <0> d          -0.767   2.683  -1.226  0.00  0.00     0.027 H 
ENDBRANCH  23  26
ENDBRANCH  17  23
ENDBRANCH   1  17
TORSDOF 9
