REMARK  0 active torsions:
REMARK  status: ('A' for Active; 'I' for Inactive)
ROOT
ATOM      1  C1  <0> d          -0.013   1.086   0.008  0.00  0.00    -0.025 C 
ATOM      2  C2  <0> d          -0.774   1.601   1.212  0.00  0.00    -0.104 C 
ATOM      3  C3  <0> d          -1.537   2.621   0.877  0.00  0.00    -0.100 C 
ATOM      4  C4  <0> d          -1.366   2.957  -0.589  0.00  0.00    -0.004 C 
ATOM      5  H1  <0> d          -2.277   3.321  -1.063  0.00  0.00     0.050 H 
ATOM      6  C5  <0> d          -0.815   1.625  -1.202  0.00  0.00     0.058 C 
ATOM      7  H2  <0> d          -1.584   0.944  -1.565  0.00  0.00     0.085 H 
ATOM      8  O1  <0> d           0.120   2.092  -2.222  0.00  0.00    -0.315 OA
ATOM      9  C6  <0> d           0.739   3.198  -1.773  0.00  0.00     0.259 C 
ATOM     10  O2  <0> d           1.833   3.576  -2.119  0.00  0.00    -0.265 OA
ATOM     11  C7  <0> d          -0.151   3.896  -0.767  0.00  0.00     0.024 C 
ATOM     12  H3  <0> d           0.002  -0.004   0.002  0.00  0.00     0.042 H 
ATOM     13  H4  <0> d           1.003   1.481   0.000  0.00  0.00     0.042 H 
ATOM     14  H5  <0> d          -0.716   1.176   2.203  0.00  0.00     0.076 H 
ATOM     15  H6  <0> d          -2.175   3.165   1.558  0.00  0.00     0.077 H 
ATOM     16  H7  <0> d          -0.474   4.863  -1.154  0.00  0.00     0.049 H 
ATOM     17  H8  <0> d           0.372   4.023   0.180  0.00  0.00     0.049 H 
ENDROOT
TORSDOF 0
