REMARK  3 active torsions:
REMARK  status: ('A' for Active; 'I' for Inactive)
REMARK    1  A    between atoms: C1_1  and  C2_2 
REMARK    2  A    between atoms: C4_4  and  C8_9 
REMARK    3  A    between atoms: C7_7  and  N1_8 
REMARK       I    between atoms: C8_9  and  N2_11 
ROOT
ATOM      1  C2  <0> d          -1.195  -0.715   0.015  0.00  0.00    -0.035 A 
ATOM      2  C3  <0> d          -1.179  -2.091   0.002  0.00  0.00    -0.060 A 
ATOM      3  C4  <0> d           0.040  -2.775  -0.013  0.00  0.00     0.032 A 
ATOM      4  C5  <0> d           1.240  -2.058  -0.021  0.00  0.00    -0.066 A 
ATOM      5  C6  <0> d           1.218  -0.682  -0.013  0.00  0.00    -0.056 A 
ATOM      6  C7  <0> d           0.002  -0.004   0.002  0.00  0.00     0.031 A 
ATOM      7  H4  <0> d          -2.108  -2.642   0.008  0.00  0.00     0.086 H 
ATOM      8  H5  <0> d           2.183  -2.583  -0.032  0.00  0.00     0.085 H 
ATOM      9  H6  <0> d           2.145  -0.128  -0.019  0.00  0.00     0.086 H 
ENDROOT
BRANCH   3  10
ATOM     10  C8  <0> d           0.060  -4.250  -0.022  0.00  0.00     0.249 C 
ATOM     11  O1  <0> d          -0.985  -4.872  -0.015  0.00  0.00    -0.268 OA
ATOM     12  N2  <0> d           1.236  -4.908  -0.037  0.00  0.00    -0.366 N 
ATOM     13  H9  <0> d           1.251  -6.008  -0.043  0.00  0.00     0.159 HD
ATOM     14  H10 <0> d           2.181  -4.345  -0.043  0.00  0.00     0.159 HD
ENDBRANCH   3  10
BRANCH   1  15
ATOM     15  C1  <0> d          -2.508   0.023   0.039  0.00  0.00    -0.049 C 
ATOM     16  H1  <0> d          -3.336  -0.702   0.047  0.00  0.00     0.033 H 
ATOM     17  H2  <0> d          -2.587   0.660  -0.855  0.00  0.00     0.033 H 
ATOM     18  H3  <0> d          -2.561   0.650   0.941  0.00  0.00     0.033 H 
ENDBRANCH   1  15
BRANCH   6  19
ATOM     19  N1  <0> d          -0.017   1.386   0.010  0.00  0.00    -0.399 N 
ATOM     20  H7  <0> d           0.928   1.949  -0.001  0.00  0.00     0.156 HD
ATOM     21  H8  <0> d          -0.977   1.923   0.026  0.00  0.00     0.156 HD
ENDBRANCH   6  19
TORSDOF 3
