REMARK  1 active torsions:
REMARK  status: ('A' for Active; 'I' for Inactive)
REMARK    1  A    between atoms: C3_4  and  C5_7 
ROOT
ATOM      1  C1  <0> d          -0.016   1.317   0.009  0.00  0.00     0.019 A 
ATOM      2  C2  <0> d           1.175   2.032   0.002  0.00  0.00     0.020 A 
ATOM      3  N1  <0> d           2.328   1.395  -0.013  0.00  0.00    -0.251 NA
ATOM      4  C3  <0> d           2.352   0.065  -0.020  0.00  0.00     0.150 A 
ATOM      5  C4  <0> d           1.154  -0.650  -0.013  0.00  0.00     0.036 A 
ATOM      6  N2  <0> d           0.002  -0.004   0.002  0.00  0.00    -0.269 NA
ATOM      7  H1  <0> d          -0.959   1.842   0.026  0.00  0.00     0.117 H 
ATOM      8  H2  <0> d           1.155   3.111   0.007  0.00  0.00     0.117 H 
ATOM      9  H3  <0> d           1.169  -1.730  -0.019  0.00  0.00     0.118 H 
ENDROOT
BRANCH   4  10
ATOM     10  C5  <0> d           3.645  -0.654  -0.037  0.00  0.00     0.230 C 
ATOM     11  O1  <0> d           4.693  -0.026  -0.044  0.00  0.00    -0.643 OA
ATOM     12  O2  <0> d           3.665  -1.876  -0.044  0.00  0.00    -0.643 OA
ENDBRANCH   4  10
TORSDOF 1
