REMARK  4 active torsions:
REMARK  status: ('A' for Active; 'I' for Inactive)
REMARK    1  A    between atoms: C3_3  and  C7_9 
REMARK    2  A    between atoms: C4_4  and  N2_8 
REMARK    3  A    between atoms: C6_6  and  N1_7 
REMARK    4  A    between atoms: C7_9  and  O1_10 
ROOT
ATOM      1  C1  <0> d          -1.250   3.037   0.030  0.00  0.00    -0.057 A 
ATOM      2  C2  <0> d          -2.455   3.712   0.035  0.00  0.00    -0.070 A 
ATOM      3  C3  <0> d          -3.644   3.009   0.037  0.00  0.00    -0.009 A 
ATOM      4  C4  <0> d          -3.632   1.619   0.029  0.00  0.00     0.036 A 
ATOM      5  C5  <0> d          -2.423   0.938   0.019  0.00  0.00    -0.032 A 
ATOM      6  C6  <0> d          -1.230   1.648   0.017  0.00  0.00     0.027 A 
ATOM      7  H1  <0> d          -0.322   3.590   0.033  0.00  0.00     0.086 H 
ATOM      8  H2  <0> d          -2.468   4.792   0.041  0.00  0.00     0.084 H 
ATOM      9  H3  <0> d          -2.410  -0.142   0.013  0.00  0.00     0.090 H 
ENDROOT
BRANCH   3  10
ATOM     10  C7  <0> d          -4.957   3.750   0.047  0.00  0.00     0.043 C 
ATOM     11  H8  <0> d          -5.535   3.484  -0.850  0.00  0.00     0.081 H 
ATOM     12  H9  <0> d          -5.527   3.473   0.946  0.00  0.00     0.081 H 
BRANCH  10  13
ATOM     13  O1  <0> d          -4.709   5.157   0.054  0.00  0.00    -0.396 OA
ATOM     14  H10 <0> d          -5.552   5.864   0.062  0.00  0.00     0.209 HD
ENDBRANCH  10  13
ENDBRANCH   3  10
BRANCH   4  15
ATOM     15  N2  <0> d          -4.834   0.909   0.030  0.00  0.00    -0.399 N 
ATOM     16  H6  <0> d          -4.824  -0.191   0.024  0.00  0.00     0.156 HD
ATOM     17  H7  <0> d          -5.792   1.450   0.037  0.00  0.00     0.156 HD
ENDBRANCH   4  15
BRANCH   6  18
ATOM     18  N1  <0> d          -0.011   0.966   0.007  0.00  0.00    -0.399 N 
ATOM     19  H4  <0> d           0.004  -0.134  -0.003  0.00  0.00     0.156 HD
ATOM     20  H5  <0> d           0.934   1.529   0.011  0.00  0.00     0.156 HD
ENDBRANCH   6  18
TORSDOF 4
