REMARK  3 active torsions:
REMARK  status: ('A' for Active; 'I' for Inactive)
REMARK    1  A    between atoms: C1_1  and  C2_2 
REMARK    2  A    between atoms: C4_5  and  C5_7 
REMARK    3  A    between atoms: C5_7  and  C6_9 
ROOT
ATOM      1  C2  <0> d           1.728  -0.205  -0.015  0.00  0.00    -0.002 A 
ATOM      2  C3  <0> d           2.152   1.094  -0.013  0.00  0.00     0.016 A 
ATOM      3  N1  <0> d           1.278   2.062   0.001  0.00  0.00    -0.249 NA
ATOM      4  C4  <0> d          -0.022   1.782   0.012  0.00  0.00     0.143 A 
ATOM      5  S1  <0> d           0.002  -0.004   0.002  0.00  0.00    -0.070 SA
ATOM      6  H4  <0> d           3.209   1.319  -0.022  0.00  0.00     0.116 H 
ENDROOT
BRANCH   4   7
ATOM      7  C5  <0> d          -1.167   2.695   0.022  0.00  0.00     0.181 C 
ATOM      8  O1  <0> d          -2.296   2.251   0.026  0.00  0.00    -0.291 OA
BRANCH   7   9
ATOM      9  C6  <0> d          -0.943   4.185   0.029  0.00  0.00    -0.015 C 
ATOM     10  H5  <0> d          -1.914   4.702   0.037  0.00  0.00     0.038 H 
ATOM     11  H6  <0> d          -0.380   4.475  -0.870  0.00  0.00     0.038 H 
ATOM     12  H7  <0> d          -0.371   4.465   0.926  0.00  0.00     0.038 H 
ENDBRANCH   7   9
ENDBRANCH   4   7
BRANCH   1  13
ATOM     13  C1  <0> d           2.540  -1.474  -0.030  0.00  0.00    -0.044 C 
ATOM     14  H1  <0> d           3.611  -1.223  -0.039  0.00  0.00     0.034 H 
ATOM     15  H2  <0> d           2.293  -2.058  -0.928  0.00  0.00     0.034 H 
ATOM     16  H3  <0> d           2.310  -2.067   0.868  0.00  0.00     0.034 H 
ENDBRANCH   1  13
TORSDOF 3
