REMARK  4 active torsions:
REMARK  status: ('A' for Active; 'I' for Inactive)
REMARK    1  A    between atoms: C1_1  and  C2_2 
REMARK    2  A    between atoms: C2_2  and  C3_3 
REMARK    3  A    between atoms: C2_2  and  C4_4 
REMARK    4  A    between atoms: C2_2  and  C5_5 
ROOT
ATOM      1  C2  <0> d           1.132  -2.193  -0.021  0.00  0.00    -0.006 C 
ENDROOT
BRANCH   1   2
ATOM      2  C1  <0> d           2.568  -2.720  -0.037  0.00  0.00    -0.064 C 
ATOM      3  H2  <0> d           3.083  -2.355  -0.938  0.00  0.00     0.028 H 
ATOM      4  H3  <0> d           2.555  -3.820  -0.044  0.00  0.00     0.028 H 
ATOM      5  H4  <0> d           3.099  -2.365   0.858  0.00  0.00     0.028 H 
ENDBRANCH   1   2
BRANCH   1   6
ATOM      6  C3  <0> d           0.416  -2.702   1.232  0.00  0.00    -0.064 C 
ATOM      7  H5  <0> d          -0.616  -2.323   1.244  0.00  0.00     0.028 H 
ATOM      8  H6  <0> d           0.948  -2.346   2.127  0.00  0.00     0.028 H 
ATOM      9  H7  <0> d           0.403  -3.802   1.226  0.00  0.00     0.028 H 
ENDBRANCH   1   6
BRANCH   1  10
ATOM     10  C4  <0> d           0.393  -2.687  -1.266  0.00  0.00    -0.064 C 
ATOM     11  H8  <0> d          -0.640  -2.308  -1.254  0.00  0.00     0.028 H 
ATOM     12  H9  <0> d           0.380  -3.787  -1.272  0.00  0.00     0.028 H 
ATOM     13  H10 <0> d           0.907  -2.322  -2.167  0.00  0.00     0.028 H 
ENDBRANCH   1  10
BRANCH   1  14
ATOM     14  C5  <0> d           1.150  -0.686  -0.013  0.00  0.00     0.048 A 
ATOM     15  N2  <0> d           0.002  -0.004   0.002  0.00  0.00    -0.247 NA
ATOM     16  C8  <0> d          -0.016   1.302   0.009  0.00  0.00     0.067 A 
ATOM     17  N1  <0> d           1.124   2.022   0.002  0.00  0.00    -0.318 N 
ATOM     18  H12 <0> d          -0.965   1.817   0.016  0.00  0.00     0.143 H 
ATOM     19  C7  <0> d           2.318   1.392  -0.013  0.00  0.00     0.248 A 
ATOM     20  H1  <0> d           1.082   3.121   0.009  0.00  0.00     0.169 HD
ATOM     21  C6  <0> d           2.337  -0.018  -0.020  0.00  0.00     0.007 A 
ATOM     22  O1  <0> d           3.358   2.029  -0.019  0.00  0.00    -0.268 OA
ATOM     23  H11 <0> d           3.273  -0.557  -0.032  0.00  0.00     0.095 H 
ENDBRANCH   1  14
TORSDOF 4
