REMARK  7 active torsions:
REMARK  status: ('A' for Active; 'I' for Inactive)
REMARK    1  A    between atoms: C1_1  and  C2_2 
REMARK    2  A    between atoms: C2_2  and  C3_3 
REMARK    3  A    between atoms: C2_2  and  C5_6 
REMARK    4  A    between atoms: C2_2  and  O3_9 
REMARK    5  A    between atoms: C3_3  and  C4_4 
REMARK    6  A    between atoms: C4_4  and  O1_5 
REMARK    7  A    between atoms: C5_6  and  C6_7 
ROOT
ATOM      1  C2  <0> d           1.402   1.567  -0.125  0.00  0.00     0.065 C 
ENDROOT
BRANCH   1   2
ATOM      2  C1  <0> d           1.401   3.096  -0.083  0.00  0.00    -0.047 C 
ATOM      3  H1  <0> d           0.807   3.436   0.765  0.00  0.00     0.031 H 
ATOM      4  H2  <0> d           2.424   3.457   0.021  0.00  0.00     0.031 H 
ATOM      5  H3  <0> d           0.972   3.485  -1.007  0.00  0.00     0.031 H 
ENDBRANCH   1   2
BRANCH   1   6
ATOM      6  C3  <0> d           2.143   1.023   1.098  0.00  0.00    -0.017 C 
ATOM      7  H4  <0> d           2.144  -0.067   1.068  0.00  0.00     0.040 H 
ATOM      8  H5  <0> d           3.171   1.387   1.091  0.00  0.00     0.040 H 
BRANCH   6   9
ATOM      9  C4  <0> d           1.442   1.498   2.372  0.00  0.00     0.019 C 
ATOM     10  H6  <0> d           1.442   2.587   2.402  0.00  0.00     0.074 H 
ATOM     11  H7  <0> d           0.415   1.134   2.378  0.00  0.00     0.074 H 
BRANCH   9  12
ATOM     12  O1  <0> d           2.135   0.990   3.514  0.00  0.00    -0.401 OA
ATOM     13  H8  <0> d           1.744   1.252   4.359  0.00  0.00     0.209 HD
ENDBRANCH   9  12
ENDBRANCH   6   9
ENDBRANCH   1   6
BRANCH   1  14
ATOM     14  C5  <0> d           2.103   1.092  -1.400  0.00  0.00     0.044 C 
ATOM     15  H9  <0> d           1.573   1.475  -2.271  0.00  0.00     0.053 H 
ATOM     16  H10 <0> d           3.129   1.459  -1.408  0.00  0.00     0.053 H 
BRANCH  14  17
ATOM     17  C6  <0> d           2.109  -0.415  -1.438  0.00  0.00     0.175 C 
ATOM     18  O2  <0> d           1.514  -1.043  -0.595  0.00  0.00    -0.648 OA
ATOM     19  O4  <0> d           2.774  -1.059  -2.410  0.00  0.00    -0.648 OA
ENDBRANCH  14  17
ENDBRANCH   1  14
BRANCH   1  20
ATOM     20  O3  <0> d           0.055   1.089  -0.117  0.00  0.00    -0.390 OA
ATOM     21  H11 <0> d          -0.021   0.126  -0.142  0.00  0.00     0.210 HD
ENDBRANCH   1  20
TORSDOF 7
