REMARK  1 active torsions:
REMARK  status: ('A' for Active; 'I' for Inactive)
REMARK    1  A    between atoms: C4_8  and  C5_9 
ROOT
ATOM      1  C1  <0> d          -0.017   1.400   0.010  0.00  0.00    -0.033 A 
ATOM      2  C2  <0> d           1.167   2.076   0.002  0.00  0.00    -0.016 A 
ATOM      3  N1  <0> d           2.326   1.382  -0.013  0.00  0.00    -0.317 N 
ATOM      4  H1  <0> d           3.172   1.856  -0.018  0.00  0.00     0.170 HD
ATOM      5  C3  <0> d           2.312   0.036  -0.020  0.00  0.00     0.346 A 
ATOM      6  O1  <0> d           3.368  -0.574  -0.033  0.00  0.00    -0.245 OA
ATOM      7  N2  <0> d           1.161  -0.642  -0.013  0.00  0.00    -0.187 NA
ATOM      8  C4  <0> d           0.002  -0.004   0.002  0.00  0.00     0.139 A 
ATOM      9  H2  <0> d          -0.955   1.935   0.026  0.00  0.00     0.089 H 
ATOM     10  H3  <0> d           1.179   3.156   0.007  0.00  0.00     0.111 H 
ENDROOT
BRANCH   8  11
ATOM     11  C5  <0> d          -1.274  -0.771   0.010  0.00  0.00     0.229 C 
ATOM     12  O2  <0> d          -1.253  -1.992   0.003  0.00  0.00    -0.643 OA
ATOM     13  O3  <0> d          -2.342  -0.178   0.024  0.00  0.00    -0.643 OA
ENDBRANCH   8  11
TORSDOF 1
