REMARK  1 active torsions:
REMARK  status: ('A' for Active; 'I' for Inactive)
REMARK    1  A    between atoms: C7_7  and  C9_10 
ROOT
ATOM      1  C9  <0> d          -0.013   1.086   0.008  0.00  0.00     0.041 C 
ATOM      2  C10 <0> d          -0.702   1.560   1.219  0.00  0.00     0.063 C 
ATOM      3  N1  <0> d          -1.233   1.927   2.154  0.00  0.00    -0.197 NA
ATOM      4  H6  <0> d           0.002  -0.004   0.002  0.00  0.00     0.062 H 
ATOM      5  H7  <0> d           1.010   1.463   0.000  0.00  0.00     0.062 H 
ENDROOT
BRANCH   1   6
ATOM      6  C7  <0> d          -0.742   1.585  -1.213  0.00  0.00    -0.010 A 
ATOM      7  C5  <0> d          -0.578   2.890  -1.865  0.00  0.00     0.007 A 
ATOM      8  C4  <0> d          -1.467   2.880  -2.953  0.00  0.00     0.085 A 
ATOM      9  C6  <0> d           0.216   4.009  -1.621  0.00  0.00    -0.070 A 
ATOM     10  C3  <0> d          -1.541   3.994  -3.779  0.00  0.00    -0.049 A 
ATOM     11  O1  <0> d          -2.100   1.690  -2.941  0.00  0.00    -0.321 OA
ATOM     12  C2  <0> d          -0.753   5.095  -3.518  0.00  0.00    -0.080 A 
ATOM     13  H3  <0> d          -2.223   4.003  -4.617  0.00  0.00     0.087 H 
ATOM     14  C1  <0> d           0.125   5.098  -2.443  0.00  0.00    -0.082 A 
ATOM     15  H2  <0> d          -0.815   5.961  -4.160  0.00  0.00     0.083 H 
ATOM     16  H1  <0> d           0.740   5.965  -2.255  0.00  0.00     0.083 H 
ATOM     17  C8  <0> d          -1.673   0.929  -1.918  0.00  0.00     0.027 A 
ATOM     18  H5  <0> d          -2.029  -0.066  -1.697  0.00  0.00     0.124 H 
ATOM     19  H4  <0> d           0.901   4.016  -0.785  0.00  0.00     0.085 H 
ENDBRANCH   1   6
TORSDOF 1
