REMARK  2 active torsions:
REMARK  status: ('A' for Active; 'I' for Inactive)
REMARK    1  A    between atoms: C1_1  and  C2_2 
REMARK    2  A    between atoms: C2_2  and  C7_8 
ROOT
ATOM      1  C2  <0> d          -0.729   1.579   1.267  0.00  0.00     0.053 C 
ATOM      2  C3  <0> d          -0.750   3.110   1.275  0.00  0.00    -0.037 C 
ATOM      3  C4  <0> d          -1.544   3.608   0.063  0.00  0.00    -0.060 C 
ATOM      4  C5  <0> d          -2.952   3.007   0.107  0.00  0.00    -0.045 C 
ATOM      5  C6  <0> d          -2.845   1.480   0.143  0.00  0.00     0.021 C 
ATOM      6  O1  <0> d          -2.070   1.085   1.277  0.00  0.00    -0.381 OA
ATOM      7  H4  <0> d          -1.224   3.463   2.191  0.00  0.00     0.037 H 
ATOM      8  H5  <0> d           0.271   3.489   1.224  0.00  0.00     0.037 H 
ATOM      9  H6  <0> d          -1.611   4.696   0.094  0.00  0.00     0.033 H 
ATOM     10  H7  <0> d          -1.042   3.299  -0.853  0.00  0.00     0.033 H 
ATOM     11  H8  <0> d          -3.470   3.358   0.999  0.00  0.00     0.036 H 
ATOM     12  H9  <0> d          -3.506   3.313  -0.781  0.00  0.00     0.036 H 
ATOM     13  H10 <0> d          -3.843   1.048   0.217  0.00  0.00     0.074 H 
ATOM     14  H11 <0> d          -2.363   1.127  -0.768  0.00  0.00     0.074 H 
ENDROOT
BRANCH   1  15
ATOM     15  C1  <0> d          -0.013   1.086   0.008  0.00  0.00    -0.048 C 
ATOM     16  H1  <0> d           0.002  -0.004   0.002  0.00  0.00     0.031 H 
ATOM     17  H2  <0> d           1.010   1.463   0.000  0.00  0.00     0.031 H 
ATOM     18  H3  <0> d          -0.540   1.447  -0.875  0.00  0.00     0.031 H 
ENDBRANCH   1  15
BRANCH   1  19
ATOM     19  C7  <0> d           0.011   1.073   2.506  0.00  0.00    -0.048 C 
ATOM     20  H12 <0> d           1.034   1.450   2.499  0.00  0.00     0.031 H 
ATOM     21  H13 <0> d          -0.499   1.424   3.403  0.00  0.00     0.031 H 
ATOM     22  H14 <0> d           0.026  -0.017   2.501  0.00  0.00     0.031 H 
ENDBRANCH   1  19
TORSDOF 2
