REMARK  5 active torsions:
REMARK  status: ('A' for Active; 'I' for Inactive)
REMARK    1  A    between atoms: C1_1  and  C2_2 
REMARK    2  A    between atoms: C2_2  and  C3_3 
REMARK    3  A    between atoms: C2_2  and  C4_4 
REMARK    4  A    between atoms: C4_4  and  C5_5 
REMARK    5  A    between atoms: C5_5  and  C7_9 
REMARK       I    between atoms: C7_9  and  N2_11 
ROOT
ATOM      1  C5  <0> d          -2.204   1.595   1.220  0.00  0.00     0.107 C 
ATOM      2  H1  <0> d          -2.266   0.516   1.079  0.00  0.00     0.077 H 
ATOM      3  C6  <0> d          -2.874   2.275   0.099  0.00  0.00     0.073 C 
ATOM      4  N1  <0> d          -3.390   2.799  -0.766  0.00  0.00    -0.196 NA
ENDROOT
BRANCH   1   5
ATOM      5  C4  <0> d          -0.735   2.019   1.269  0.00  0.00    -0.039 C 
ATOM      6  H9  <0> d          -0.261   1.586   2.150  0.00  0.00     0.036 H 
ATOM      7  H10 <0> d          -0.672   3.106   1.320  0.00  0.00     0.036 H 
BRANCH   5   8
ATOM      8  C2  <0> d          -0.019   1.526   0.010  0.00  0.00    -0.059 C 
ATOM      9  H5  <0> d          -0.546   1.887  -0.873  0.00  0.00     0.038 H 
BRANCH   8  10
ATOM     10  C1  <0> d           0.002  -0.004   0.002  0.00  0.00    -0.073 C 
ATOM     11  H2  <0> d           0.512  -0.356  -0.895  0.00  0.00     0.028 H 
ATOM     12  H3  <0> d           0.529  -0.365   0.885  0.00  0.00     0.028 H 
ATOM     13  H4  <0> d          -1.020  -0.381   0.010  0.00  0.00     0.028 H 
ENDBRANCH   8  10
BRANCH   8  14
ATOM     14  C3  <0> d           1.417   2.055  -0.000  0.00  0.00    -0.073 C 
ATOM     15  H6  <0> d           1.927   1.704  -0.897  0.00  0.00     0.028 H 
ATOM     16  H7  <0> d           1.402   3.145   0.006  0.00  0.00     0.028 H 
ATOM     17  H8  <0> d           1.944   1.694   0.883  0.00  0.00     0.028 H 
ENDBRANCH   8  14
ENDBRANCH   5   8
ENDBRANCH   1   5
BRANCH   1  18
ATOM     18  C7  <0> d          -2.880   1.973   2.513  0.00  0.00     0.233 C 
ATOM     19  O1  <0> d          -2.249   2.527   3.387  0.00  0.00    -0.272 OA
ATOM     20  N2  <0> d          -4.186   1.695   2.696  0.00  0.00    -0.369 N 
ATOM     21  H11 <0> d          -4.691   1.251   1.997  0.00  0.00     0.159 HD
ATOM     22  H12 <0> d          -4.621   1.938   3.529  0.00  0.00     0.159 HD
ENDBRANCH   1  18
TORSDOF 5
