REMARK  7 active torsions:
REMARK  status: ('A' for Active; 'I' for Inactive)
REMARK    1  A    between atoms: C1_1  and  C2_2 
REMARK    2  A    between atoms: C2_2  and  C3_3 
REMARK    3  A    between atoms: C3_3  and  C4_4 
REMARK    4  A    between atoms: C3_3  and  C5_5 
REMARK    5  A    between atoms: C3_3  and  C6_6 
REMARK    6  A    between atoms: C6_6  and  C7_7 
REMARK    7  A    between atoms: C7_7  and  O1_8 
ROOT
ATOM      1  C3  <0> d           2.534   3.726  -0.002  0.00  0.00    -0.046 C 
ENDROOT
BRANCH   1   2
ATOM      2  C2  <0> d           2.393   5.250   0.007  0.00  0.00    -0.062 C 
ATOM      3  H4  <0> d           1.839   5.569  -0.876  0.00  0.00     0.033 H 
ATOM      4  H5  <0> d           1.856   5.559   0.904  0.00  0.00     0.033 H 
BRANCH   2   5
ATOM      5  C1  <0> d           3.782   5.891  -0.002  0.00  0.00    -0.076 C 
ATOM      6  H1  <0> d           3.681   6.976   0.004  0.00  0.00     0.027 H 
ATOM      7  H2  <0> d           4.335   5.572   0.881  0.00  0.00     0.027 H 
ATOM      8  H3  <0> d           4.318   5.582  -0.899  0.00  0.00     0.027 H 
ENDBRANCH   2   5
ENDBRANCH   1   2
BRANCH   1   9
ATOM      9  C4  <0> d           3.311   3.279   1.237  0.00  0.00    -0.069 C 
ATOM     10  H6  <0> d           3.412   2.193   1.231  0.00  0.00     0.028 H 
ATOM     11  H7  <0> d           4.301   3.736   1.230  0.00  0.00     0.028 H 
ATOM     12  H8  <0> d           2.775   3.588   2.134  0.00  0.00     0.028 H 
ENDBRANCH   1   9
BRANCH   1  13
ATOM     13  C5  <0> d           3.287   3.292  -1.261  0.00  0.00    -0.069 C 
ATOM     14  H9  <0> d           2.734   3.611  -2.144  0.00  0.00     0.028 H 
ATOM     15  H10 <0> d           4.277   3.749  -1.268  0.00  0.00     0.028 H 
ATOM     16  H11 <0> d           3.388   2.207  -1.268  0.00  0.00     0.028 H 
ENDBRANCH   1  13
BRANCH   1  17
ATOM     17  C6  <0> d           1.145   3.085   0.008  0.00  0.00    -0.039 C 
ATOM     18  H12 <0> d           0.591   3.404  -0.875  0.00  0.00     0.037 H 
ATOM     19  H13 <0> d           0.608   3.395   0.904  0.00  0.00     0.037 H 
BRANCH  17  20
ATOM     20  C7  <0> d           1.286   1.562  -0.002  0.00  0.00     0.017 C 
ATOM     21  H14 <0> d           1.840   1.243   0.881  0.00  0.00     0.074 H 
ATOM     22  H15 <0> d           1.823   1.252  -0.899  0.00  0.00     0.074 H 
BRANCH  20  23
ATOM     23  O1  <0> d          -0.011   0.963   0.007  0.00  0.00    -0.401 OA
ATOM     24  H16 <0> d           0.002  -0.004   0.002  0.00  0.00     0.209 HD
ENDBRANCH  20  23
ENDBRANCH  17  20
ENDBRANCH   1  17
TORSDOF 7
