REMARK  1 active torsions:
REMARK  status: ('A' for Active; 'I' for Inactive)
REMARK    1  A    between atoms: C2_2  and  C3_3 
ROOT
ATOM      1  C3  <0> d          -1.193   3.225  -0.393  0.00  0.00    -0.035 C 
ATOM      2  H1  <0> d          -0.953   3.280  -1.455  0.00  0.00     0.046 H 
ATOM      3  C4  <0> d          -0.054   3.846   0.425  0.00  0.00    -0.056 C 
ATOM      4  C5  <0> d           1.262   3.192  -0.004  0.00  0.00    -0.049 C 
ATOM      5  C6  <0> d           1.122   1.698   0.001  0.00  0.00    -0.106 C 
ATOM      6  C7  <0> d          -0.013   1.076   0.008  0.00  0.00    -0.105 C 
ATOM      7  C8  <0> d          -1.347   1.761   0.018  0.00  0.00    -0.044 C 
ATOM      8  H5  <0> d          -0.224   3.664   1.487  0.00  0.00     0.034 H 
ATOM      9  H6  <0> d          -0.007   4.919   0.240  0.00  0.00     0.034 H 
ATOM     10  H7  <0> d           2.052   3.483   0.689  0.00  0.00     0.038 H 
ATOM     11  H8  <0> d           1.519   3.529  -1.008  0.00  0.00     0.038 H 
ATOM     12  H9  <0> d           2.025   1.105  -0.003  0.00  0.00     0.076 H 
ATOM     13  H10 <0> d           0.002  -0.004   0.002  0.00  0.00     0.076 H 
ATOM     14  H11 <0> d          -2.018   1.257  -0.678  0.00  0.00     0.039 H 
ATOM     15  H12 <0> d          -1.770   1.714   1.022  0.00  0.00     0.039 H 
ENDROOT
BRANCH   1  16
ATOM     16  C2  <0> d          -2.475   3.971  -0.124  0.00  0.00    -0.107 C 
ATOM     17  C1  <0> d          -3.107   4.564  -1.107  0.00  0.00    -0.124 C 
ATOM     18  H2  <0> d          -2.709   4.517  -2.110  0.00  0.00     0.066 H 
ATOM     19  H3  <0> d          -4.025   5.098  -0.914  0.00  0.00     0.066 H 
ATOM     20  H4  <0> d          -2.872   4.018   0.879  0.00  0.00     0.075 H 
ENDBRANCH   1  16
TORSDOF 1
