REMARK  4 active torsions:
REMARK  status: ('A' for Active; 'I' for Inactive)
REMARK    1  A    between atoms: C1_1  and  C2_2 
REMARK    2  A    between atoms: C2_2  and  O1_3 
REMARK    3  A    between atoms: O1_3  and  C3_4 
REMARK    4  A    between atoms: C5_7  and  C6_9 
ROOT
ATOM      1  C3  <0> d           1.335   1.811  -0.001  0.00  0.00     0.052 A 
ATOM      2  H1  <0> d           2.373   1.571  -0.276  0.00  0.00     0.084 H 
ATOM      3  C4  <0> d           0.484   1.792   1.271  0.00  0.00    -0.025 A 
ATOM      4  C5  <0> d          -0.013   1.086   0.008  0.00  0.00     0.058 A 
ATOM      5  H2  <0> d          -0.359   0.071  -0.238  0.00  0.00     0.060 H 
ATOM      6  H8  <0> d           1.050   1.312   2.083  0.00  0.00     0.038 H 
ATOM      7  H9  <0> d           0.233   2.824   1.559  0.00  0.00     0.038 H 
ENDROOT
BRANCH   1   8
ATOM      8  O1  <0> d           1.417   3.042  -0.722  0.00  0.00    -0.385 OA
BRANCH   8   9
ATOM      9  C2  <0> d           2.711   3.313  -1.264  0.00  0.00     0.017 C 
ATOM     10  H6  <0> d           2.992   2.509  -1.961  0.00  0.00     0.073 H 
ATOM     11  H7  <0> d           3.447   3.365  -0.448  0.00  0.00     0.073 H 
BRANCH   9  12
ATOM     12  C1  <0> d           2.682   4.648  -2.010  0.00  0.00    -0.056 C 
ATOM     13  H3  <0> d           3.678   4.856  -2.428  0.00  0.00     0.030 H 
ATOM     14  H4  <0> d           2.401   5.451  -1.314  0.00  0.00     0.030 H 
ATOM     15  H5  <0> d           1.946   4.596  -2.826  0.00  0.00     0.030 H 
ENDBRANCH   9  12
ENDBRANCH   8   9
ENDBRANCH   1   8
BRANCH   4  16
ATOM     16  C6  <0> d          -1.151   1.724  -0.745  0.00  0.00     0.179 C 
ATOM     17  O2  <0> d          -0.980   2.769  -1.326  0.00  0.00    -0.648 OA
ATOM     18  O3  <0> d          -2.356   1.133  -0.768  0.00  0.00    -0.648 OA
ENDBRANCH   4  16
TORSDOF 4
