REMARK  3 active torsions:
REMARK  status: ('A' for Active; 'I' for Inactive)
REMARK    1  A    between atoms: C1_1  and  S1_2 
REMARK    2  A    between atoms: S1_2  and  C2_3 
REMARK    3  A    between atoms: C5_9  and  N3_11 
ROOT
ATOM      1  C2  <0> d          -3.518   1.563   0.028  0.00  0.00     0.117 A 
ATOM      2  C3  <0> d          -3.574   2.951   0.036  0.00  0.00     0.018 A 
ATOM      3  C4  <0> d          -2.376   3.672   0.034  0.00  0.00     0.262 A 
ATOM      4  O1  <0> d          -2.386   4.893   0.042  0.00  0.00    -0.268 OA
ATOM      5  N1  <0> d          -1.208   2.996   0.030  0.00  0.00    -0.155 N 
ATOM      6  H1  <0> d          -0.255   3.544   0.036  0.00  0.00     0.187 HD
ATOM      7  C5  <0> d          -1.206   1.634   0.017  0.00  0.00     0.702 A 
ATOM      8  N2  <0> d          -2.329   0.948   0.018  0.00  0.00    -0.058 NA
ATOM      9  H5  <0> d          -4.524   3.463   0.044  0.00  0.00     0.096 H 
ENDROOT
BRANCH   1  10
ATOM     10  S1  <0> d          -5.004   0.618   0.029  0.00  0.00    -0.114 SA
BRANCH  10  11
ATOM     11  C1  <0> d          -4.313  -1.055   0.015  0.00  0.00    -0.029 C 
ATOM     12  H2  <0> d          -5.131  -1.790   0.015  0.00  0.00     0.042 H 
ATOM     13  H3  <0> d          -3.689  -1.201   0.910  0.00  0.00     0.042 H 
ATOM     14  H4  <0> d          -3.698  -1.190  -0.886  0.00  0.00     0.042 H 
ENDBRANCH  10  11
ENDBRANCH   1  10
BRANCH   7  15
ATOM     15  N3  <0> d          -0.011   0.966   0.007  0.00  0.00    -0.233 N 
ATOM     16  H6  <0> d           0.004  -0.134  -0.003  0.00  0.00     0.174 HD
ATOM     17  H7  <0> d           0.934   1.529   0.011  0.00  0.00     0.174 HD
ENDBRANCH   7  15
TORSDOF 3
