REMARK  1 active torsions:
REMARK  status: ('A' for Active; 'I' for Inactive)
REMARK    1  A    between atoms: C4_5  and  N3_7 
ROOT
ATOM      1  C1  <0> d          -2.342   3.648   0.033  0.00  0.00     0.042 A 
ATOM      2  C2  <0> d          -3.557   2.949   0.035  0.00  0.00     0.080 A 
ATOM      3  C3  <0> d          -3.516   1.548   0.027  0.00  0.00     0.042 A 
ATOM      4  N1  <0> d          -2.344   0.942   0.018  0.00  0.00    -0.074 NA
ATOM      5  C4  <0> d          -1.216   1.640   0.017  0.00  0.00     0.719 A 
ATOM      6  N2  <0> d          -1.212   2.966   0.029  0.00  0.00    -0.074 NA
ATOM      7  C5  <0> d          -4.806   3.648   0.044  0.00  0.00     0.102 C 
ATOM      8  N4  <0> d          -5.798   4.203   0.052  0.00  0.00    -0.191 NA
ATOM      9  H1  <0> d          -2.331   4.728   0.039  0.00  0.00     0.118 H 
ATOM     10  H2  <0> d          -4.431   0.974   0.029  0.00  0.00     0.118 H 
ENDROOT
BRANCH   5  11
ATOM     11  N3  <0> d          -0.011   0.966   0.007  0.00  0.00    -0.231 N 
ATOM     12  H3  <0> d           0.002  -0.004   0.002  0.00  0.00     0.174 HD
ATOM     13  H4  <0> d           0.822   1.462   0.002  0.00  0.00     0.174 HD
ENDBRANCH   5  11
TORSDOF 1
