REMARK  2 active torsions:
REMARK  status: ('A' for Active; 'I' for Inactive)
REMARK    1  A    between atoms: C2_2  and  C3_3 
REMARK    2  A    between atoms: C6_6  and  N2_9 
ROOT
ATOM      1  C3  <0> d          -1.267  -0.760   0.010  0.00  0.00     0.055 A 
ATOM      2  C4  <0> d          -1.240  -2.156   0.008  0.00  0.00    -0.053 A 
ATOM      3  C5  <0> d          -2.433  -2.852   0.016  0.00  0.00    -0.054 A 
ATOM      4  C6  <0> d          -3.625  -2.128   0.025  0.00  0.00     0.043 A 
ATOM      5  C7  <0> d          -3.576  -0.739   0.027  0.00  0.00     0.028 A 
ATOM      6  N1  <0> d          -2.422  -0.105   0.025  0.00  0.00    -0.259 NA
ATOM      7  H4  <0> d          -0.298  -2.684   0.000  0.00  0.00     0.087 H 
ATOM      8  H5  <0> d          -2.443  -3.932   0.014  0.00  0.00     0.087 H 
ATOM      9  H6  <0> d          -4.496  -0.172   0.034  0.00  0.00     0.118 H 
ENDROOT
BRANCH   1  10
ATOM     10  C2  <0> d           0.002  -0.004   0.002  0.00  0.00    -0.064 C 
ATOM     11  C1  <0> d          -0.016   1.322   0.009  0.00  0.00    -0.119 C 
ATOM     12  H1  <0> d           0.912   1.875   0.003  0.00  0.00     0.066 H 
ATOM     13  H2  <0> d          -0.958   1.849   0.017  0.00  0.00     0.066 H 
ATOM     14  H3  <0> d           0.945  -0.531  -0.010  0.00  0.00     0.085 H 
ENDBRANCH   1  10
BRANCH   4  15
ATOM     15  N2  <0> d          -4.854  -2.791   0.033  0.00  0.00    -0.398 N 
ATOM     16  H7  <0> d          -4.882  -3.760   0.031  0.00  0.00     0.156 HD
ATOM     17  H8  <0> d          -5.679  -2.282   0.039  0.00  0.00     0.156 HD
ENDBRANCH   4  15
TORSDOF 2
