REMARK  1 active torsions:
REMARK  status: ('A' for Active; 'I' for Inactive)
REMARK    1  A    between atoms: C7_7  and  O3_12 
ROOT
ATOM      1  C1  <0> d           0.002  -0.004   0.002  0.00  0.00    -0.082 A 
ATOM      2  C2  <0> d          -0.017   1.380   0.010  0.00  0.00    -0.082 A 
ATOM      3  C3  <0> d           1.164   2.092   0.002  0.00  0.00    -0.066 A 
ATOM      4  C4  <0> d           2.384   1.413  -0.013  0.00  0.00     0.050 A 
ATOM      5  C5  <0> d           2.392   0.016  -0.021  0.00  0.00     0.013 A 
ATOM      6  C6  <0> d           1.208  -0.685  -0.014  0.00  0.00    -0.071 A 
ATOM      7  C7  <0> d           3.841  -0.400  -0.037  0.00  0.00     0.165 A 
ATOM      8  H1  <0> d           4.054  -0.979  -0.935  0.00  0.00     0.137 H 
ATOM      9  O1  <0> d           4.621   0.827  -0.037  0.00  0.00    -0.281 OA
ATOM     10  C8  <0> d           3.784   1.877  -0.023  0.00  0.00     0.296 A 
ATOM     11  O2  <0> d           4.129   3.042  -0.020  0.00  0.00    -0.259 OA
ATOM     12  H2  <0> d          -0.927  -0.555   0.008  0.00  0.00     0.083 H 
ATOM     13  H3  <0> d          -0.961   1.904   0.017  0.00  0.00     0.083 H 
ATOM     14  H4  <0> d           1.146   3.172   0.008  0.00  0.00     0.085 H 
ATOM     15  H5  <0> d           1.219  -1.765  -0.020  0.00  0.00     0.084 H 
ENDROOT
BRANCH   7  16
ATOM     16  O3  <0> d           4.142  -1.172   1.127  0.00  0.00    -0.366 OA
ATOM     17  H6  <0> d           5.061  -1.470   1.175  0.00  0.00     0.213 HD
ENDBRANCH   7  16
TORSDOF 1
