REMARK  2 active torsions:
REMARK  status: ('A' for Active; 'I' for Inactive)
REMARK    1  A    between atoms: C1_1  and  S1_2 
REMARK    2  A    between atoms: S1_2  and  C2_3 
ROOT
ATOM      1  C2  <0> d           0.848  -0.411  -1.489  0.00  0.00    -0.000 A 
ATOM      2  C3  <0> d           1.315   0.599  -2.322  0.00  0.00    -0.065 A 
ATOM      3  C4  <0> d           1.978   0.277  -3.490  0.00  0.00    -0.061 A 
ATOM      4  C5  <0> d           2.178  -1.049  -3.831  0.00  0.00     0.034 A 
ATOM      5  C6  <0> d           1.714  -2.057  -3.003  0.00  0.00    -0.061 A 
ATOM      6  C7  <0> d           1.056  -1.742  -1.831  0.00  0.00    -0.065 A 
ATOM      7 Cl1  <0> d           3.011  -1.450  -5.300  0.00  0.00    -0.084 Cl
ATOM      8  H4  <0> d           1.159   1.634  -2.057  0.00  0.00     0.085 H 
ATOM      9  H5  <0> d           2.341   1.061  -4.138  0.00  0.00     0.086 H 
ATOM     10  H6  <0> d           1.871  -3.091  -3.272  0.00  0.00     0.086 H 
ATOM     11  H7  <0> d           0.698  -2.528  -1.183  0.00  0.00     0.085 H 
ENDROOT
BRANCH   1  12
ATOM     12  S1  <0> d           0.002  -0.004   0.002  0.00  0.00    -0.134 SA
BRANCH  12  13
ATOM     13  C1  <0> d          -0.022   1.810   0.012  0.00  0.00    -0.030 C 
ATOM     14  H1  <0> d           1.000   2.187   0.004  0.00  0.00     0.042 H 
ATOM     15  H2  <0> d          -0.550   2.171  -0.871  0.00  0.00     0.042 H 
ATOM     16  H3  <0> d          -0.533   2.161   0.909  0.00  0.00     0.042 H 
ENDBRANCH  12  13
ENDBRANCH   1  12
TORSDOF 2
