REMARK  4 active torsions:
REMARK  status: ('A' for Active; 'I' for Inactive)
REMARK    1  A    between atoms: C1_1  and  C2_2 
REMARK    2  A    between atoms: C2_2  and  N1_3 
REMARK    3  A    between atoms: C3_4  and  C7_10 
REMARK    4  A    between atoms: C5_6  and  C6_8 
ROOT
ATOM      1  N1  <0> d           0.621   5.108   0.022  0.00  0.00    -0.274 N 
ATOM      2  C3  <0> d           1.971   5.144   0.010  0.00  0.00     0.029 A 
ATOM      3  C4  <0> d           2.407   3.863  -0.000  0.00  0.00    -0.024 A 
ATOM      4  C5  <0> d           1.238   3.066   0.007  0.00  0.00     0.155 A 
ATOM      5  N2  <0> d           0.210   3.891   0.015  0.00  0.00    -0.166 NA
ATOM      6  H6  <0> d           3.432   3.522  -0.011  0.00  0.00     0.090 H 
ENDROOT
BRANCH   1   7
ATOM      7  C2  <0> d          -0.249   6.286   0.037  0.00  0.00     0.014 C 
ATOM      8  H4  <0> d          -1.176   6.047   0.558  0.00  0.00     0.066 H 
ATOM      9  H5  <0> d           0.256   7.104   0.550  0.00  0.00     0.066 H 
BRANCH   7  10
ATOM     10  C1  <0> d          -0.565   6.704  -1.401  0.00  0.00    -0.059 C 
ATOM     11  H1  <0> d          -1.070   5.886  -1.914  0.00  0.00     0.029 H 
ATOM     12  H2  <0> d          -1.212   7.581  -1.390  0.00  0.00     0.029 H 
ATOM     13  H3  <0> d           0.362   6.944  -1.922  0.00  0.00     0.029 H 
ENDBRANCH   7  10
ENDBRANCH   1   7
BRANCH   2  14
ATOM     14  C7  <0> d           2.832   6.382   0.008  0.00  0.00    -0.036 C 
ATOM     15  H7  <0> d           3.030   6.684  -1.020  0.00  0.00     0.035 H 
ATOM     16  H8  <0> d           2.313   7.186   0.530  0.00  0.00     0.035 H 
ATOM     17  H9  <0> d           3.775   6.169   0.512  0.00  0.00     0.035 H 
ENDBRANCH   2  14
BRANCH   4  18
ATOM     18  C6  <0> d           1.181   1.591  -0.001  0.00  0.00     0.230 C 
ATOM     19  O1  <0> d           2.209   0.943  -0.014  0.00  0.00    -0.643 OA
ATOM     20  O2  <0> d          -0.011   0.963   0.007  0.00  0.00    -0.643 OA
ENDBRANCH   4  18
TORSDOF 4
