REMARK  4 active torsions:
REMARK  status: ('A' for Active; 'I' for Inactive)
REMARK    1  A    between atoms: C1_1  and  C2_2 
REMARK    2  A    between atoms: C3_3  and  C8_11 
REMARK    3  A    between atoms: N2_5  and  C6_8 
REMARK    4  A    between atoms: C4_6  and  C5_7 
ROOT
ATOM      1  C6  <0> d          -1.171  -0.882   0.008  0.00  0.00     0.095 C 
ATOM      2  C7  <0> d          -1.576  -1.169  -1.378  0.00  0.00     0.081 C 
ATOM      3  N3  <0> d          -1.889  -1.390  -2.447  0.00  0.00    -0.195 NA
ATOM      4  H7  <0> d          -0.921  -1.823   0.519  0.00  0.00     0.089 H 
ATOM      5  H8  <0> d          -1.998  -0.386   0.537  0.00  0.00     0.089 H 
ENDROOT
BRANCH   1   6
ATOM      6  N2  <0> d           0.002  -0.004   0.002  0.00  0.00    -0.261 N 
ATOM      7  N1  <0> d           1.341  -0.417  -0.013  0.00  0.00    -0.176 NA
ATOM      8  C3  <0> d           2.098   0.650  -0.015  0.00  0.00     0.059 A 
ATOM      9  C2  <0> d           1.267   1.775  -0.001  0.00  0.00    -0.012 A 
ATOM     10  C4  <0> d          -0.016   1.345   0.009  0.00  0.00     0.035 A 
BRANCH   8  11
ATOM     11  C8  <0> d           3.604   0.664  -0.029  0.00  0.00    -0.033 C 
ATOM     12  H9  <0> d           3.981  -0.369  -0.038  0.00  0.00     0.035 H 
ATOM     13  H10 <0> d           3.975   1.182   0.869  0.00  0.00     0.035 H 
ATOM     14  H11 <0> d           3.958   1.191  -0.927  0.00  0.00     0.035 H 
ENDBRANCH   8  11
BRANCH   9  15
ATOM     15  C1  <0> d           1.720   3.212   0.003  0.00  0.00    -0.047 C 
ATOM     16  H1  <0> d           2.820   3.250  -0.007  0.00  0.00     0.033 H 
ATOM     17  H2  <0> d           1.345   3.713   0.907  0.00  0.00     0.033 H 
ATOM     18  H3  <0> d           1.328   3.723  -0.889  0.00  0.00     0.033 H 
ENDBRANCH   9  15
BRANCH  10  19
ATOM     19  C5  <0> d          -1.245   2.217   0.020  0.00  0.00    -0.035 C 
ATOM     20  H4  <0> d          -2.144   1.583   0.027  0.00  0.00     0.035 H 
ATOM     21  H5  <0> d          -1.252   2.853  -0.877  0.00  0.00     0.035 H 
ATOM     22  H6  <0> d          -1.237   2.851   0.919  0.00  0.00     0.035 H 
ENDBRANCH  10  19
ENDBRANCH   1   6
TORSDOF 4
