REMARK  2 active torsions:
REMARK  status: ('A' for Active; 'I' for Inactive)
REMARK    1  A    between atoms: C6_6  and  C7_7 
REMARK    2  A    between atoms: C7_7  and  O1_8 
ROOT
ATOM      1  C1  <0> d           2.886  -1.646   1.677  0.00  0.00    -0.072 A 
ATOM      2  C2  <0> d           1.617  -1.552   1.135  0.00  0.00    -0.047 A 
ATOM      3  C3  <0> d           1.183  -0.356   0.589  0.00  0.00     0.105 A 
ATOM      4  C4  <0> d           2.029   0.752   0.587  0.00  0.00     0.105 A 
ATOM      5  C5  <0> d           3.298   0.650   1.131  0.00  0.00    -0.040 A 
ATOM      6  C6  <0> d           3.724  -0.547   1.675  0.00  0.00    -0.032 A 
ATOM      7  O2  <0> d           1.376   1.797  -0.001  0.00  0.00    -0.323 OA
ATOM      8  C8  <0> d          -0.018   1.436   0.010  0.00  0.00     0.115 C 
ATOM      9  O3  <0> d           0.002  -0.004   0.002  0.00  0.00    -0.323 OA
ATOM     10  H1  <0> d           3.222  -2.580   2.103  0.00  0.00     0.084 H 
ATOM     11  H2  <0> d           0.964  -2.412   1.139  0.00  0.00     0.087 H 
ATOM     12  H3  <0> d           3.955   1.507   1.130  0.00  0.00     0.088 H 
ATOM     13  H7  <0> d          -0.519   1.817  -0.880  0.00  0.00     0.118 H 
ATOM     14  H8  <0> d          -0.502   1.807   0.913  0.00  0.00     0.118 H 
ENDROOT
BRANCH   6  15
ATOM     15  C7  <0> d           5.106  -0.655   2.267  0.00  0.00     0.041 C 
ATOM     16  H4  <0> d           5.407   0.315   2.665  0.00  0.00     0.081 H 
ATOM     17  H5  <0> d           5.101  -1.391   3.071  0.00  0.00     0.081 H 
BRANCH  15  18
ATOM     18  O1  <0> d           6.028  -1.062   1.254  0.00  0.00    -0.396 OA
ATOM     19  H6  <0> d           6.939  -1.151   1.565  0.00  0.00     0.209 HD
ENDBRANCH  15  18
ENDBRANCH   6  15
TORSDOF 2
