REMARK  6 active torsions:
REMARK  status: ('A' for Active; 'I' for Inactive)
REMARK    1  A    between atoms: C1_1  and  C2_2 
REMARK    2  A    between atoms: C2_2  and  C3_3 
REMARK    3  A    between atoms: C2_2  and  C4_4 
REMARK    4  A    between atoms: C4_4  and  O1_5 
REMARK    5  A    between atoms: O1_5  and  C5_6 
REMARK    6  A    between atoms: C5_6  and  C6_7 
ROOT
ATOM      1  C6  <0> d          -0.018   1.468   0.010  0.00  0.00     0.034 C 
ATOM      2  C7  <0> d           0.002  -0.004   0.002  0.00  0.00     0.061 C 
ATOM      3  N1  <0> d           0.018  -1.140  -0.004  0.00  0.00    -0.197 NA
ATOM      4  H12 <0> d           1.005   1.845   0.002  0.00  0.00     0.058 H 
ATOM      5  H13 <0> d          -0.545   1.829  -0.873  0.00  0.00     0.058 H 
ENDROOT
BRANCH   1   6
ATOM      6  C5  <0> d          -0.734   1.961   1.269  0.00  0.00     0.031 C 
ATOM      7  H10 <0> d          -1.757   1.584   1.277  0.00  0.00     0.075 H 
ATOM      8  H11 <0> d          -0.207   1.600   2.152  0.00  0.00     0.075 H 
BRANCH   6   9
ATOM      9  O1  <0> d          -0.753   3.390   1.277  0.00  0.00    -0.390 OA
BRANCH   9  10
ATOM     10  C4  <0> d          -1.403   3.956   2.417  0.00  0.00     0.022 C 
ATOM     11  H8  <0> d          -2.440   3.620   2.448  0.00  0.00     0.074 H 
ATOM     12  H9  <0> d          -0.890   3.637   3.324  0.00  0.00     0.074 H 
BRANCH  10  13
ATOM     13  C2  <0> d          -1.364   5.483   2.320  0.00  0.00    -0.041 C 
ATOM     14  H4  <0> d          -1.799   5.798   1.371  0.00  0.00     0.042 H 
BRANCH  13  15
ATOM     15  C1  <0> d          -2.167   6.087   3.474  0.00  0.00    -0.071 C 
ATOM     16  H1  <0> d          -1.733   5.772   4.423  0.00  0.00     0.028 H 
ATOM     17  H2  <0> d          -2.139   7.175   3.405  0.00  0.00     0.028 H 
ATOM     18  H3  <0> d          -3.200   5.746   3.416  0.00  0.00     0.028 H 
ENDBRANCH  13  15
BRANCH  13  19
ATOM     19  C3  <0> d           0.086   5.962   2.401  0.00  0.00    -0.071 C 
ATOM     20  H5  <0> d           0.658   5.531   1.579  0.00  0.00     0.028 H 
ATOM     21  H6  <0> d           0.114   7.050   2.332  0.00  0.00     0.028 H 
ATOM     22  H7  <0> d           0.520   5.647   3.350  0.00  0.00     0.028 H 
ENDBRANCH  13  19
ENDBRANCH  10  13
ENDBRANCH   9  10
ENDBRANCH   6   9
ENDBRANCH   1   6
TORSDOF 6
