REMARK  3 active torsions:
REMARK  status: ('A' for Active; 'I' for Inactive)
REMARK    1  A    between atoms: C3_3  and  O2_10 
REMARK    2  A    between atoms: C4_4  and  N1_9 
REMARK    3  A    between atoms: C6_6  and  C7_7 
ROOT
ATOM      1  C1  <0> d          -1.217   1.747   0.017  0.00  0.00    -0.064 A 
ATOM      2  C2  <0> d          -0.013   1.076   0.008  0.00  0.00    -0.048 A 
ATOM      3  C3  <0> d           1.181   1.784   0.000  0.00  0.00     0.091 A 
ATOM      4  C4  <0> d           1.167   3.180   0.007  0.00  0.00     0.060 A 
ATOM      5  C5  <0> d          -0.037   3.859   0.022  0.00  0.00    -0.038 A 
ATOM      6  C6  <0> d          -1.238   3.144   0.030  0.00  0.00     0.043 A 
ATOM      7  H1  <0> d          -2.143   1.192   0.019  0.00  0.00     0.085 H 
ATOM      8  H2  <0> d           0.002  -0.004   0.002  0.00  0.00     0.087 H 
ATOM      9  H3  <0> d          -0.050   4.939   0.027  0.00  0.00     0.088 H 
ENDROOT
BRANCH   4  10
ATOM     10  N1  <0> d           2.373   3.892  -0.001  0.00  0.00    -0.397 N 
ATOM     11  H4  <0> d           3.217   3.415  -0.011  0.00  0.00     0.156 HD
ATOM     12  H5  <0> d           2.363   4.862   0.004  0.00  0.00     0.156 HD
ENDBRANCH   4  10
BRANCH   3  13
ATOM     13  O2  <0> d           2.364   1.118  -0.014  0.00  0.00    -0.358 OA
ATOM     14  H6  <0> d           2.698   0.929  -0.902  0.00  0.00     0.217 HD
ENDBRANCH   3  13
BRANCH   6  15
ATOM     15  C7  <0> d          -2.526   3.863   0.046  0.00  0.00     0.209 C 
ATOM     16  O1  <0> d          -2.544   5.077   0.052  0.00  0.00    -0.644 OA
ATOM     17  O3  <0> d          -3.683   3.172   0.054  0.00  0.00    -0.644 OA
ENDBRANCH   6  15
TORSDOF 3
