REMARK  3 active torsions:
REMARK  status: ('A' for Active; 'I' for Inactive)
REMARK    1  A    between atoms: C1_1  and  O1_2 
REMARK    2  A    between atoms: O1_2  and  C2_3 
REMARK    3  A    between atoms: C2_3  and  C3_5 
ROOT
ATOM      1  C3  <0> d          -1.302   1.931   0.019  0.00  0.00     0.039 A 
ATOM      2  C4  <0> d          -1.324   3.328   0.032  0.00  0.00    -0.064 A 
ATOM      3  C5  <0> d          -2.530   3.996   0.035  0.00  0.00    -0.045 A 
ATOM      4  C6  <0> d          -3.720   3.284   0.037  0.00  0.00     0.116 A 
ATOM      5  C7  <0> d          -3.704   1.897   0.030  0.00  0.00    -0.045 A 
ATOM      6  C8  <0> d          -2.504   1.219   0.021  0.00  0.00    -0.064 A 
ATOM      7  F1  <0> d          -4.899   3.943   0.045  0.00  0.00    -0.206 F 
ATOM      8  H4  <0> d          -0.398   3.884   0.036  0.00  0.00     0.085 H 
ATOM      9  H5  <0> d          -2.548   5.075   0.041  0.00  0.00     0.088 H 
ATOM     10  H6  <0> d          -4.634   1.347   0.031  0.00  0.00     0.088 H 
ATOM     11  H7  <0> d          -2.493   0.139   0.014  0.00  0.00     0.085 H 
ENDROOT
BRANCH   1  12
ATOM     12  C2  <0> d          -0.014   1.211   0.009  0.00  0.00     0.292 C 
ATOM     13  O2  <0> d           0.002  -0.004   0.002  0.00  0.00    -0.259 OA
BRANCH  12  14
ATOM     14  O1  <0> d           1.143   1.900   0.001  0.00  0.00    -0.323 OA
BRANCH  14  15
ATOM     15  C1  <0> d           2.371   1.126  -0.015  0.00  0.00     0.013 C 
ATOM     16  H1  <0> d           2.413   0.493   0.872  0.00  0.00     0.067 H 
ATOM     17  H2  <0> d           2.396   0.502  -0.908  0.00  0.00     0.067 H 
ATOM     18  H3  <0> d           3.227   1.802  -0.019  0.00  0.00     0.067 H 
ENDBRANCH  14  15
ENDBRANCH  12  14
ENDBRANCH   1  12
TORSDOF 3
