REMARK  3 active torsions:
REMARK  status: ('A' for Active; 'I' for Inactive)
REMARK    1  A    between atoms: C1_1  and  N1_2 
REMARK    2  A    between atoms: C2_3  and  N3_11 
REMARK    3  A    between atoms: N2_7  and  C6_10 
ROOT
ATOM      1  N1  <0> d          -0.698   1.558   1.213  0.00  0.00    -0.290 N 
ATOM      2  C2  <0> d           0.020   1.789   2.361  0.00  0.00     0.109 A 
ATOM      3  C3  <0> d          -0.628   2.230   3.482  0.00  0.00     0.025 A 
ATOM      4  C4  <0> d          -2.016   2.436   3.430  0.00  0.00     0.254 A 
ATOM      5  O1  <0> d          -2.615   2.829   4.416  0.00  0.00    -0.268 OA
ATOM      6  N2  <0> d          -2.682   2.197   2.283  0.00  0.00    -0.271 N 
ATOM      7  C5  <0> d          -2.027   1.769   1.188  0.00  0.00     0.332 A 
ATOM      8  O2  <0> d          -2.647   1.564   0.162  0.00  0.00    -0.246 OA
ATOM      9  H4  <0> d          -0.081   2.417   4.393  0.00  0.00     0.098 H 
ENDROOT
BRANCH   1  10
ATOM     10  C1  <0> d          -0.013   1.086   0.008  0.00  0.00    -0.008 C 
ATOM     11  H1  <0> d           0.002  -0.004   0.002  0.00  0.00     0.057 H 
ATOM     12  H2  <0> d           1.010   1.463   0.000  0.00  0.00     0.057 H 
ATOM     13  H3  <0> d          -0.540   1.447  -0.875  0.00  0.00     0.057 H 
ENDBRANCH   1  10
BRANCH   2  14
ATOM     14  N3  <0> d           1.375   1.580   2.384  0.00  0.00    -0.385 N 
ATOM     15  H8  <0> d           1.831   1.268   1.586  0.00  0.00     0.157 HD
ATOM     16  H9  <0> d           1.878   1.745   3.197  0.00  0.00     0.157 HD
ENDBRANCH   2  14
BRANCH   6  17
ATOM     17  C6  <0> d          -4.130   2.411   2.225  0.00  0.00    -0.007 C 
ATOM     18  H5  <0> d          -4.484   2.760   3.195  0.00  0.00     0.057 H 
ATOM     19  H6  <0> d          -4.357   3.159   1.465  0.00  0.00     0.057 H 
ATOM     20  H7  <0> d          -4.626   1.474   1.973  0.00  0.00     0.057 H 
ENDBRANCH   6  17
TORSDOF 3
