REMARK  3 active torsions:
REMARK  status: ('A' for Active; 'I' for Inactive)
REMARK    1  A    between atoms: C1_1  and  C2_2 
REMARK    2  A    between atoms: C2_2  and  C6_8 
REMARK    3  A    between atoms: C4_4  and  C5_6 
ROOT
ATOM      1  C2  <0> d           0.056   1.153   1.703  0.00  0.00     0.059 A 
ATOM      2  C3  <0> d           1.321   1.948   1.374  0.00  0.00    -0.034 A 
ATOM      3  C4  <0> d           0.308   1.633   0.272  0.00  0.00     0.048 A 
ATOM      4  H1  <0> d           0.587   0.883  -0.469  0.00  0.00     0.058 H 
ATOM      5  H5  <0> d           2.267   1.406   1.359  0.00  0.00     0.036 H 
ATOM      6  H6  <0> d           1.375   2.977   1.729  0.00  0.00     0.036 H 
ENDROOT
BRANCH   1   7
ATOM      7  C1  <0> d           0.215  -0.343   1.984  0.00  0.00    -0.059 C 
ATOM      8  H2  <0> d           1.236  -0.650   1.753  0.00  0.00     0.029 H 
ATOM      9  H3  <0> d           0.007  -0.539   3.036  0.00  0.00     0.029 H 
ATOM     10  H4  <0> d          -0.483  -0.906   1.365  0.00  0.00     0.029 H 
ENDBRANCH   1   7
BRANCH   1  11
ATOM     11  C6  <0> d          -1.020   1.852   2.492  0.00  0.00     0.182 C 
ATOM     12  O2  <0> d          -0.730   2.486   3.479  0.00  0.00    -0.647 OA
ATOM     13  O4  <0> d          -2.301   1.770   2.099  0.00  0.00    -0.647 OA
ENDBRANCH   1  11
BRANCH   3  14
ATOM     14  C5  <0> d          -0.539   2.769  -0.240  0.00  0.00     0.178 C 
ATOM     15  O1  <0> d          -0.708   3.752   0.442  0.00  0.00    -0.648 OA
ATOM     16  O3  <0> d          -1.107   2.688  -1.454  0.00  0.00    -0.648 OA
ENDBRANCH   3  14
TORSDOF 3
