REMARK  5 active torsions:
REMARK  status: ('A' for Active; 'I' for Inactive)
REMARK    1  A    between atoms: C1_1  and  C2_2 
REMARK    2  A    between atoms: C2_2  and  C3_3 
REMARK    3  A    between atoms: C2_2  and  C4_4 
REMARK    4  A    between atoms: C4_4  and  C5_6 
REMARK    5  A    between atoms: C4_4  and  O2_8 
ROOT
ATOM      1  C2  <0> d          -0.013   1.086   0.008  0.00  0.00    -0.026 C 
ATOM      2  H5  <0> d           0.002  -0.004   0.002  0.00  0.00     0.043 H 
ENDROOT
BRANCH   1   3
ATOM      3  C1  <0> d           1.423   1.615  -0.003  0.00  0.00    -0.070 C 
ATOM      4  H2  <0> d           1.408   2.705   0.003  0.00  0.00     0.028 H 
ATOM      5  H3  <0> d           1.950   1.254   0.880  0.00  0.00     0.028 H 
ATOM      6  H4  <0> d           1.933   1.264  -0.900  0.00  0.00     0.028 H 
ENDBRANCH   1   3
BRANCH   1   7
ATOM      7  C3  <0> d          -0.753   1.593  -1.232  0.00  0.00    -0.070 C 
ATOM      8  H6  <0> d          -0.767   2.683  -1.226  0.00  0.00     0.028 H 
ATOM      9  H7  <0> d          -0.242   1.241  -2.128  0.00  0.00     0.028 H 
ATOM     10  H8  <0> d          -1.775   1.215  -1.224  0.00  0.00     0.028 H 
ENDBRANCH   1   7
BRANCH   1  11
ATOM     11  C4  <0> d          -0.729   1.579   1.267  0.00  0.00     0.122 C 
ATOM     12  H1  <0> d          -0.744   2.669   1.273  0.00  0.00     0.100 H 
BRANCH  11  13
ATOM     13  C5  <0> d          -2.143   1.058   1.278  0.00  0.00     0.203 C 
ATOM     14  O1  <0> d          -2.494   0.281   2.134  0.00  0.00    -0.646 OA
ATOM     15  O3  <0> d          -3.012   1.456   0.336  0.00  0.00    -0.646 OA
ENDBRANCH  11  13
BRANCH  11  16
ATOM     16  O2  <0> d          -0.038   1.106   2.425  0.00  0.00    -0.384 OA
ATOM     17  H9  <0> d           0.014   0.142   2.485  0.00  0.00     0.210 HD
ENDBRANCH  11  16
ENDBRANCH   1  11
TORSDOF 5
