REMARK  6 active torsions:
REMARK  status: ('A' for Active; 'I' for Inactive)
REMARK    1  A    between atoms: C1_1  and  C2_2 
REMARK    2  A    between atoms: C2_2  and  C3_3 
REMARK    3  A    between atoms: C3_3  and  C4_4 
REMARK    4  A    between atoms: C5_5  and  C6_6 
REMARK    5  A    between atoms: C7_7  and  C8_8 
REMARK    6  A    between atoms: C8_8  and  C9_10 
ROOT
ATOM      1  C3  <0> d           0.718  -0.497  -1.257  0.00  0.00    -0.009 C 
ATOM      2  H6  <0> d           0.191  -0.136  -2.140  0.00  0.00     0.051 H 
ATOM      3  H7  <0> d           1.741  -0.120  -1.264  0.00  0.00     0.051 H 
ENDROOT
BRANCH   1   4
ATOM      4  C2  <0> d           0.002  -0.004   0.002  0.00  0.00    -0.059 C 
ATOM      5  H4  <0> d           0.529  -0.365   0.885  0.00  0.00     0.033 H 
ATOM      6  H5  <0> d          -1.020  -0.381   0.010  0.00  0.00     0.033 H 
BRANCH   4   7
ATOM      7  C1  <0> d          -0.019   1.526   0.010  0.00  0.00    -0.076 C 
ATOM      8  H1  <0> d           1.004   1.903   0.003  0.00  0.00     0.027 H 
ATOM      9  H2  <0> d          -0.546   1.887  -0.873  0.00  0.00     0.027 H 
ATOM     10  H3  <0> d          -0.529   1.877   0.907  0.00  0.00     0.027 H 
ENDBRANCH   4   7
ENDBRANCH   1   4
BRANCH   1  11
ATOM     11  C4  <0> d           0.738  -1.969  -1.265  0.00  0.00    -0.092 C 
ATOM     12  C5  <0> d           0.754  -3.143  -1.271  0.00  0.00    -0.015 C 
BRANCH  12  13
ATOM     13  C6  <0> d           0.773  -4.520  -1.279  0.00  0.00    -0.007 C 
ATOM     14  C7  <0> d           0.789  -5.694  -1.285  0.00  0.00    -0.015 C 
BRANCH  14  15
ATOM     15  C8  <0> d           0.808  -7.126  -1.293  0.00  0.00     0.199 C 
ATOM     16  O1  <0> d           1.334  -7.721  -2.212  0.00  0.00    -0.284 OA
BRANCH  15  17
ATOM     17  C9  <0> d           0.177  -7.894  -0.161  0.00  0.00    -0.010 C 
ATOM     18  H8  <0> d          -0.870  -8.089  -0.393  0.00  0.00     0.039 H 
ATOM     19  H9  <0> d           0.701  -8.840  -0.027  0.00  0.00     0.039 H 
ATOM     20  H10 <0> d           0.243  -7.309   0.756  0.00  0.00     0.039 H 
ENDBRANCH  15  17
ENDBRANCH  14  15
ENDBRANCH  12  13
ENDBRANCH   1  11
TORSDOF 6
