REMARK  5 active torsions:
REMARK  status: ('A' for Active; 'I' for Inactive)
REMARK    1  A    between atoms: C1_1  and  C2_2 
REMARK    2  A    between atoms: C2_2  and  O1_3 
REMARK    3  A    between atoms: O1_3  and  C3_4 
REMARK    4  A    between atoms: C6_7  and  C10_11 
REMARK    5  A    between atoms: C8_9  and  C9_10 
ROOT
ATOM      1  C3  <0> d           0.002  -0.004   0.002  0.00  0.00     0.074 A 
ATOM      2  C4  <0> d           1.212  -0.683  -0.013  0.00  0.00    -0.050 A 
ATOM      3  C5  <0> d           1.228  -2.064  -0.021  0.00  0.00    -0.075 A 
ATOM      4  C6  <0> d           0.040  -2.770  -0.013  0.00  0.00    -0.061 A 
ATOM      5  C7  <0> d          -1.167  -2.096   0.003  0.00  0.00    -0.069 A 
ATOM      6  C8  <0> d          -1.189  -0.715   0.015  0.00  0.00    -0.028 A 
ATOM      7  H6  <0> d           2.141  -0.131  -0.019  0.00  0.00     0.087 H 
ATOM      8  H7  <0> d           2.170  -2.592  -0.033  0.00  0.00     0.084 H 
ATOM      9  H8  <0> d          -2.095  -2.651   0.009  0.00  0.00     0.085 H 
ENDROOT
BRANCH   1  10
ATOM     10  O1  <0> d          -0.016   1.355   0.009  0.00  0.00    -0.351 OA
BRANCH  10  11
ATOM     11  C2  <0> d           1.248   2.021   0.001  0.00  0.00     0.023 C 
ATOM     12  H4  <0> d           1.817   1.731   0.884  0.00  0.00     0.074 H 
ATOM     13  H5  <0> d           1.800   1.740  -0.896  0.00  0.00     0.074 H 
BRANCH  11  14
ATOM     14  C1  <0> d           1.027   3.535   0.011  0.00  0.00    -0.056 C 
ATOM     15  H1  <0> d           0.458   3.825  -0.872  0.00  0.00     0.030 H 
ATOM     16  H2  <0> d           0.474   3.815   0.908  0.00  0.00     0.030 H 
ATOM     17  H3  <0> d           1.991   4.043   0.005  0.00  0.00     0.030 H 
ENDBRANCH  11  14
ENDBRANCH  10  11
ENDBRANCH   1  10
BRANCH   6  18
ATOM     18  C9  <0> d          -2.505   0.019   0.038  0.00  0.00    -0.049 C 
ATOM     19  H9  <0> d          -2.837   0.201  -0.984  0.00  0.00     0.033 H 
ATOM     20  H10 <0> d          -3.248  -0.585   0.559  0.00  0.00     0.033 H 
ATOM     21  H11 <0> d          -2.382   0.970   0.555  0.00  0.00     0.033 H 
ENDBRANCH   6  18
BRANCH   4  22
ATOM     22  C10 <0> d           0.060  -4.277  -0.021  0.00  0.00    -0.051 C 
ATOM     23  H12 <0> d           0.075  -4.646   1.005  0.00  0.00     0.033 H 
ATOM     24  H13 <0> d          -0.830  -4.650  -0.528  0.00  0.00     0.033 H 
ATOM     25  H14 <0> d           0.950  -4.626  -0.545  0.00  0.00     0.033 H 
ENDBRANCH   4  22
TORSDOF 5
