REMARK  0 active torsions:
REMARK  status: ('A' for Active; 'I' for Inactive)
ROOT
ATOM      1  C1  <0> d           1.332   1.745  -0.001  0.00  0.00    -0.027 A 
ATOM      2  C2  <0> d           2.074   0.613  -0.015  0.00  0.00    -0.001 A 
ATOM      3  N1  <0> d           1.214  -0.429  -0.012  0.00  0.00    -0.288 N 
ATOM      4  H1  <0> d           1.483  -1.392  -0.019  0.00  0.00     0.188 HD
ATOM      5  N2  <0> d           0.002  -0.004   0.002  0.00  0.00    -0.164 NA
ATOM      6  C3  <0> d          -0.016   1.314   0.009  0.00  0.00     0.158 A 
ATOM      7  C4  <0> d          -1.178   2.151   0.020  0.00  0.00     0.121 C 
ATOM      8  N3  <0> d          -2.100   2.814   0.028  0.00  0.00    -0.190 NA
ATOM      9  H2  <0> d           1.693   2.763   0.001  0.00  0.00     0.090 H 
ATOM     10  H3  <0> d           3.152   0.553  -0.025  0.00  0.00     0.113 H 
ENDROOT
TORSDOF 0
