REMARK  4 active torsions:
REMARK  status: ('A' for Active; 'I' for Inactive)
REMARK    1  A    between atoms: C1_1  and  C2_2 
REMARK    2  A    between atoms: C4_4  and  C6_8 
REMARK    3  A    between atoms: C6_8  and  O2_10 
REMARK    4  A    between atoms: O2_10  and  C7_11 
ROOT
ATOM      1  C2  <0> d          -0.016   1.360   0.009  0.00  0.00     0.006 A 
ATOM      2  C3  <0> d           1.248   1.817  -0.000  0.00  0.00    -0.044 A 
ATOM      3  C4  <0> d           2.115   0.633  -0.015  0.00  0.00     0.056 A 
ATOM      4  C5  <0> d           1.270  -0.456  -0.013  0.00  0.00    -0.007 A 
ATOM      5  N1  <0> d           0.002  -0.004   0.002  0.00  0.00    -0.368 N 
ATOM      6  H1  <0> d          -0.787  -0.569   0.006  0.00  0.00     0.165 HD
ATOM      7  H5  <0> d           1.563   2.850   0.002  0.00  0.00     0.088 H 
ATOM      8  H6  <0> d           1.573  -1.492  -0.021  0.00  0.00     0.112 H 
ENDROOT
BRANCH   3   9
ATOM      9  C6  <0> d           3.586   0.613  -0.029  0.00  0.00     0.294 C 
ATOM     10  O1  <0> d           4.208   1.657  -0.029  0.00  0.00    -0.259 OA
BRANCH   9  11
ATOM     11  O2  <0> d           4.244  -0.563  -0.042  0.00  0.00    -0.322 OA
BRANCH  11  12
ATOM     12  C7  <0> d           5.695  -0.507  -0.056  0.00  0.00     0.013 C 
ATOM     13  H7  <0> d           6.046   0.015   0.834  0.00  0.00     0.067 H 
ATOM     14  H8  <0> d           6.098  -1.520  -0.065  0.00  0.00     0.067 H 
ATOM     15  H9  <0> d           6.029   0.026  -0.946  0.00  0.00     0.067 H 
ENDBRANCH  11  12
ENDBRANCH   9  11
ENDBRANCH   3   9
BRANCH   1  16
ATOM     16  C1  <0> d          -1.256   2.217   0.020  0.00  0.00    -0.037 C 
ATOM     17  H2  <0> d          -1.549   2.419   1.050  0.00  0.00     0.035 H 
ATOM     18  H3  <0> d          -1.051   3.159  -0.490  0.00  0.00     0.035 H 
ATOM     19  H4  <0> d          -2.063   1.695  -0.492  0.00  0.00     0.035 H 
ENDBRANCH   1  16
TORSDOF 4
