REMARK  3 active torsions:
REMARK  status: ('A' for Active; 'I' for Inactive)
REMARK    1  A    between atoms: C3_3  and  C7_10 
REMARK    2  A    between atoms: C4_5  and  C6_7 
REMARK       I    between atoms: C6_7  and  N2_9 
REMARK    3  A    between atoms: C7_10  and  O2_11 
ROOT
ATOM      1  C1  <0> d          -0.240   5.012   0.032  0.00  0.00    -0.079 A 
ATOM      2  C2  <0> d          -0.116   3.631   0.017  0.00  0.00    -0.057 A 
ATOM      3  C3  <0> d           1.147   3.062   0.008  0.00  0.00     0.058 A 
ATOM      4  N1  <0> d           2.226   3.814   0.001  0.00  0.00    -0.246 NA
ATOM      5  C4  <0> d           2.152   5.139   0.009  0.00  0.00     0.124 A 
ATOM      6  C5  <0> d           0.914   5.779   0.025  0.00  0.00    -0.050 A 
ATOM      7  H1  <0> d          -1.213   5.479   0.044  0.00  0.00     0.083 H 
ATOM      8  H2  <0> d          -0.996   3.005   0.018  0.00  0.00     0.086 H 
ATOM      9  H3  <0> d           0.856   6.857   0.032  0.00  0.00     0.087 H 
ENDROOT
BRANCH   3  10
ATOM     10  C7  <0> d           1.286   1.562  -0.002  0.00  0.00     0.056 C 
ATOM     11  H6  <0> d           1.828   1.250  -0.907  0.00  0.00     0.083 H 
ATOM     12  H7  <0> d           1.845   1.240   0.889  0.00  0.00     0.083 H 
BRANCH  10  13
ATOM     13  O2  <0> d          -0.011   0.963   0.007  0.00  0.00    -0.395 OA
ATOM     14  H8  <0> d          -0.111  -0.133   0.002  0.00  0.00     0.209 HD
ENDBRANCH  10  13
ENDBRANCH   3  10
BRANCH   5  15
ATOM     15  C6  <0> d           3.395   5.945   0.002  0.00  0.00     0.268 C 
ATOM     16  O1  <0> d           3.333   7.158   0.009  0.00  0.00    -0.266 OA
ATOM     17  N2  <0> d           4.596   5.332  -0.013  0.00  0.00    -0.365 N 
ATOM     18  H4  <0> d           5.519   5.930  -0.019  0.00  0.00     0.159 HD
ATOM     19  H5  <0> d           4.652   4.233  -0.020  0.00  0.00     0.159 HD
ENDBRANCH   5  15
TORSDOF 3
