REMARK  5 active torsions:
REMARK  status: ('A' for Active; 'I' for Inactive)
REMARK    1  A    between atoms: C1_1  and  C2_2 
REMARK    2  A    between atoms: C7_8  and  C8_9 
REMARK    3  A    between atoms: C7_8  and  C9_11 
REMARK    4  A    between atoms: C8_9  and  O1_10 
REMARK    5  A    between atoms: C9_11  and  O2_12 
ROOT
ATOM      1  C2  <0> d           2.536   3.732   0.025  0.00  0.00    -0.043 C 
ATOM      2  H1  <0> d           3.135   3.335  -0.795  0.00  0.00     0.041 H 
ATOM      3  C3  <0> d           2.368   5.244  -0.147  0.00  0.00    -0.046 C 
ATOM      4  C4  <0> d           1.338   5.761   0.814  0.00  0.00    -0.106 C 
ATOM      5  C5  <0> d           0.475   5.014   1.424  0.00  0.00    -0.106 C 
ATOM      6  C6  <0> d           0.392   3.524   1.265  0.00  0.00    -0.039 C 
ATOM      7  C7  <0> d           1.145   3.085   0.008  0.00  0.00     0.009 C 
ATOM      8  H5  <0> d           2.051   5.459  -1.167  0.00  0.00     0.039 H 
ATOM      9  H6  <0> d           3.322   5.735   0.047  0.00  0.00     0.039 H 
ATOM     10  H7  <0> d           1.314   6.824   1.007  0.00  0.00     0.076 H 
ATOM     11  H8  <0> d          -0.229   5.492   2.089  0.00  0.00     0.076 H 
ATOM     12  H9  <0> d          -0.654   3.227   1.182  0.00  0.00     0.040 H 
ATOM     13  H10 <0> d           0.834   3.042   2.138  0.00  0.00     0.040 H 
ENDROOT
BRANCH   7  14
ATOM     14  C8  <0> d           1.286   1.562  -0.002  0.00  0.00     0.026 C 
ATOM     15  H11 <0> d           1.840   1.243   0.881  0.00  0.00     0.075 H 
ATOM     16  H12 <0> d           1.823   1.252  -0.899  0.00  0.00     0.075 H 
BRANCH  14  17
ATOM     17  O1  <0> d          -0.011   0.963   0.007  0.00  0.00    -0.400 OA
ATOM     18  H13 <0> d           0.002  -0.004   0.002  0.00  0.00     0.209 HD
ENDBRANCH  14  17
ENDBRANCH   7  14
BRANCH   7  19
ATOM     19  C9  <0> d           0.377   3.538  -1.236  0.00  0.00     0.026 C 
ATOM     20  H14 <0> d           0.278   4.624  -1.226  0.00  0.00     0.075 H 
ATOM     21  H15 <0> d           0.920   3.231  -2.130  0.00  0.00     0.075 H 
BRANCH  19  22
ATOM     22  O2  <0> d          -0.921   2.941  -1.238  0.00  0.00    -0.400 OA
ATOM     23  H16 <0> d          -1.465   3.185  -1.999  0.00  0.00     0.209 HD
ENDBRANCH  19  22
ENDBRANCH   7  19
BRANCH   1  24
ATOM     24  C1  <0> d           3.223   3.438   1.359  0.00  0.00    -0.072 C 
ATOM     25  H2  <0> d           3.324   2.360   1.486  0.00  0.00     0.028 H 
ATOM     26  H3  <0> d           4.211   3.899   1.368  0.00  0.00     0.028 H 
ATOM     27  H4  <0> d           2.625   3.846   2.174  0.00  0.00     0.028 H 
ENDBRANCH   1  24
TORSDOF 5
