REMARK  3 active torsions:
REMARK  status: ('A' for Active; 'I' for Inactive)
REMARK    1  A    between atoms: C1_1  and  C2_2 
REMARK    2  A    between atoms: C5_5  and  C7_8 
REMARK    3  A    between atoms: C7_8  and  O1_9 
ROOT
ATOM      1  C2  <0> d           0.895   5.770  -0.058  0.00  0.00     0.030 A 
ATOM      2  C3  <0> d           0.965   5.135   1.168  0.00  0.00    -0.059 A 
ATOM      3  C4  <0> d           1.093   3.755   1.208  0.00  0.00    -0.071 A 
ATOM      4  C5  <0> d           1.147   3.062   0.008  0.00  0.00    -0.017 A 
ATOM      5  C6  <0> d           1.077   3.766  -1.180  0.00  0.00     0.011 A 
ATOM      6  N1  <0> d           0.949   5.079  -1.179  0.00  0.00    -0.265 NA
ATOM      7  H4  <0> d           0.920   5.706   2.083  0.00  0.00     0.086 H 
ATOM      8  H5  <0> d           1.151   3.232   2.151  0.00  0.00     0.084 H 
ATOM      9  H6  <0> d           1.123   3.234  -2.119  0.00  0.00     0.115 H 
ENDROOT
BRANCH   4  10
ATOM     10  C7  <0> d           1.286   1.562  -0.002  0.00  0.00     0.042 C 
ATOM     11  H7  <0> d           1.840   1.243   0.881  0.00  0.00     0.081 H 
ATOM     12  H8  <0> d           1.823   1.252  -0.899  0.00  0.00     0.081 H 
BRANCH  10  13
ATOM     13  O1  <0> d          -0.011   0.963   0.007  0.00  0.00    -0.396 OA
ATOM     14  H9  <0> d           0.002  -0.004   0.002  0.00  0.00     0.209 HD
ENDBRANCH  10  13
ENDBRANCH   4  10
BRANCH   1  15
ATOM     15  C1  <0> d           0.754   7.269  -0.113  0.00  0.00    -0.035 C 
ATOM     16  H1  <0> d           1.744   7.726  -0.135  0.00  0.00     0.035 H 
ATOM     17  H2  <0> d           0.204   7.550  -1.011  0.00  0.00     0.035 H 
ATOM     18  H3  <0> d           0.214   7.616   0.768  0.00  0.00     0.035 H 
ENDBRANCH   1  15
TORSDOF 3
