REMARK  3 active torsions:
REMARK  status: ('A' for Active; 'I' for Inactive)
REMARK    1  A    between atoms: C1_1  and  N1_2 
REMARK    2  A    between atoms: N1_2  and  C2_3 
REMARK    3  A    between atoms: N1_2  and  C3_4 
ROOT
ATOM      1  C3  <0> d          -1.280  -0.519  -0.074  0.00  0.00     0.125 A 
ATOM      2  C4  <0> d          -1.483  -1.907   0.012  0.00  0.00     0.085 A 
ATOM      3  C5  <0> d          -2.789  -2.404  -0.067  0.00  0.00    -0.058 A 
ATOM      4  C6  <0> d          -3.827  -1.502  -0.228  0.00  0.00    -0.064 A 
ATOM      5  C7  <0> d          -3.548  -0.149  -0.305  0.00  0.00     0.004 A 
ATOM      6  N2  <0> d          -2.310   0.299  -0.223  0.00  0.00    -0.247 NA
ATOM      7  C8  <0> d          -0.373  -2.797   0.177  0.00  0.00     0.103 C 
ATOM      8  N3  <0> d           0.507  -3.503   0.309  0.00  0.00    -0.191 NA
ATOM      9  H7  <0> d          -2.982  -3.464  -0.005  0.00  0.00     0.086 H 
ATOM     10  H8  <0> d          -4.846  -1.851  -0.292  0.00  0.00     0.085 H 
ATOM     11  H9  <0> d          -4.359   0.553  -0.430  0.00  0.00     0.114 H 
ENDROOT
BRANCH   1  12
ATOM     12  N1  <0> d           0.002  -0.004   0.002  0.00  0.00    -0.275 NA
BRANCH  12  13
ATOM     13  C1  <0> d           0.361   0.700  -1.236  0.00  0.00    -0.028 C 
ATOM     14  H1  <0> d           0.244   0.019  -2.092  0.00  0.00     0.049 H 
ATOM     15  H2  <0> d           1.407   1.036  -1.177  0.00  0.00     0.049 H 
ATOM     16  H3  <0> d          -0.297   1.571  -1.367  0.00  0.00     0.049 H 
ENDBRANCH  12  13
BRANCH  12  17
ATOM     17  C2  <0> d           0.148   0.876   1.169  0.00  0.00    -0.028 C 
ATOM     18  H4  <0> d          -0.127   0.325   2.080  0.00  0.00     0.049 H 
ATOM     19  H5  <0> d          -0.513   1.748   1.055  0.00  0.00     0.049 H 
ATOM     20  H6  <0> d           1.192   1.214   1.246  0.00  0.00     0.049 H 
ENDBRANCH  12  17
ENDBRANCH   1  12
TORSDOF 3
