REMARK  2 active torsions:
REMARK  status: ('A' for Active; 'I' for Inactive)
REMARK    1  A    between atoms: C4_5  and  C5_6 
REMARK    2  A    between atoms: C5_6  and  O2_7 
ROOT
ATOM      1  C1  <0> d          -0.019   1.549   0.011  0.00  0.00    -0.008 C 
ATOM      2  C2  <0> d           1.498   1.864  -0.002  0.00  0.00     0.023 C 
ATOM      3  O1  <0> d           2.100   0.843   0.810  0.00  0.00    -0.388 OA
ATOM      4  C3  <0> d           1.263  -0.319   0.835  0.00  0.00     0.055 C 
ATOM      5  C4  <0> d           0.002  -0.004   0.002  0.00  0.00     0.147 C 
ATOM      6  F1  <0> d           0.132  -0.493  -1.302  0.00  0.00    -0.238 F 
ATOM      7  H1  <0> d          -0.492   1.930   0.916  0.00  0.00     0.041 H 
ATOM      8  H2  <0> d          -0.509   1.940  -0.881  0.00  0.00     0.041 H 
ATOM      9  H3  <0> d           1.886   1.815  -1.020  0.00  0.00     0.074 H 
ATOM     10  H4  <0> d           1.684   2.848   0.427  0.00  0.00     0.074 H 
ATOM     11  H5  <0> d           1.793  -1.165   0.398  0.00  0.00     0.079 H 
ATOM     12  H6  <0> d           0.980  -0.549   1.862  0.00  0.00     0.079 H 
ENDROOT
BRANCH   5  13
ATOM     13  C5  <0> d          -1.250  -0.569   0.675  0.00  0.00     0.052 C 
ATOM     14  H7  <0> d          -1.294  -0.225   1.708  0.00  0.00     0.079 H 
ATOM     15  H8  <0> d          -2.136  -0.228   0.140  0.00  0.00     0.079 H 
BRANCH  13  16
ATOM     16  O2  <0> d          -1.201  -1.997   0.651  0.00  0.00    -0.398 OA
ATOM     17  H9  <0> d          -1.965  -2.424   1.062  0.00  0.00     0.209 HD
ENDBRANCH  13  16
ENDBRANCH   5  13
TORSDOF 2
