REMARK  4 active torsions:
REMARK  status: ('A' for Active; 'I' for Inactive)
REMARK    1  A    between atoms: C1_1  and  N1_2 
REMARK    2  A    between atoms: C2_3  and  O3_12 
REMARK    3  A    between atoms: C3_5  and  O2_11 
REMARK    4  A    between atoms: N2_7  and  C5_10 
ROOT
ATOM      1  N1  <0> d          -0.018   1.461   0.010  0.00  0.00    -0.308 N 
ATOM      2  C2  <0> d           1.169   2.329   0.003  0.00  0.00     0.148 A 
ATOM      3  H1  <0> d           1.759   2.164  -0.898  0.00  0.00     0.124 H 
ATOM      4  C3  <0> d           0.584   3.755   0.017  0.00  0.00     0.148 A 
ATOM      5  H2  <0> d           0.899   4.289   0.913  0.00  0.00     0.124 H 
ATOM      6  N2  <0> d          -0.871   3.538   0.029  0.00  0.00    -0.308 N 
ATOM      7  C4  <0> d          -1.120   2.222   0.019  0.00  0.00     0.324 A 
ATOM      8  O1  <0> d          -2.245   1.760   0.021  0.00  0.00    -0.247 OA
ENDROOT
BRANCH   1   9
ATOM      9  C1  <0> d           0.002  -0.004   0.002  0.00  0.00    -0.012 C 
ATOM     10  H3  <0> d           0.017  -0.373   1.028  0.00  0.00     0.056 H 
ATOM     11  H4  <0> d          -0.888  -0.377  -0.505  0.00  0.00     0.056 H 
ATOM     12  H5  <0> d           0.892  -0.352  -0.522  0.00  0.00     0.056 H 
ENDBRANCH   1   9
BRANCH   2  13
ATOM     13  O3  <0> d           1.963   2.102   1.169  0.00  0.00    -0.372 OA
ATOM     14  H10 <0> d           2.304   1.200   1.244  0.00  0.00     0.212 HD
ENDBRANCH   2  13
BRANCH   6  15
ATOM     15  C5  <0> d          -1.886   4.594   0.045  0.00  0.00    -0.012 C 
ATOM     16  H6  <0> d          -2.148   4.862  -0.979  0.00  0.00     0.056 H 
ATOM     17  H7  <0> d          -2.775   4.236   0.565  0.00  0.00     0.056 H 
ATOM     18  H8  <0> d          -1.491   5.470   0.560  0.00  0.00     0.056 H 
ENDBRANCH   6  15
BRANCH   4  19
ATOM     19  O2  <0> d           0.974   4.468  -1.158  0.00  0.00    -0.372 OA
ATOM     20  H9  <0> d           0.633   5.372  -1.201  0.00  0.00     0.212 HD
ENDBRANCH   4  19
TORSDOF 4
