REMARK  3 active torsions:
REMARK  status: ('A' for Active; 'I' for Inactive)
REMARK    1  A    between atoms: C1_1  and  C2_2 
REMARK    2  A    between atoms: C4_5  and  O2_9 
REMARK    3  A    between atoms: O2_9  and  C6_10 
ROOT
ATOM      1  C2  <0> d          -4.529   0.416   1.667  0.00  0.00     0.101 A 
ATOM      2  N1  <0> d          -3.867   0.007   0.605  0.00  0.00    -0.245 NA
ATOM      3  C3  <0> d          -2.605   0.360   0.409  0.00  0.00     0.041 A 
ATOM      4  C4  <0> d          -1.976   1.163   1.348  0.00  0.00     0.140 A 
ATOM      5  C5  <0> d          -2.708   1.568   2.469  0.00  0.00     0.215 A 
ATOM      6  N2  <0> d          -3.971   1.180   2.585  0.00  0.00    -0.321 N 
ATOM      7  O1  <0> d          -2.136   2.349   3.419  0.00  0.00    -0.169 OA
ATOM      8  H4  <0> d          -2.106   0.055  -0.402  0.00  0.00     0.119 H 
ATOM      9  H5  <0> d          -4.566   1.496   3.455  0.00  0.00     0.169 HD
ENDROOT
BRANCH   4  10
ATOM     10  O2  <0> d          -0.682   1.548   1.183  0.00  0.00    -0.350 OA
BRANCH  10  11
ATOM     11  C6  <0> d          -0.013   1.087   0.007  0.00  0.00     0.011 C 
ATOM     12  H6  <0> d           1.019   1.468  -0.001  0.00  0.00     0.067 H 
ATOM     13  H7  <0> d          -0.545   1.451  -0.884  0.00  0.00     0.067 H 
ATOM     14  H8  <0> d           0.002  -0.013   0.002  0.00  0.00     0.067 H 
ENDBRANCH  10  11
ENDBRANCH   4  10
BRANCH   1  15
ATOM     15  C1  <0> d          -5.965  -0.007   1.842  0.00  0.00    -0.021 C 
ATOM     16  H1  <0> d          -6.362   0.420   2.775  0.00  0.00     0.037 H 
ATOM     17  H2  <0> d          -6.021  -1.105   1.888  0.00  0.00     0.037 H 
ATOM     18  H3  <0> d          -6.560   0.354   0.990  0.00  0.00     0.037 H 
ENDBRANCH   1  15
TORSDOF 3
