REMARK  2 active torsions:
REMARK  status: ('A' for Active; 'I' for Inactive)
REMARK    1  A    between atoms: C1_1  and  C2_2 
REMARK       I    between atoms: C2_2  and  N1_4 
REMARK    2  A    between atoms: N1_4  and  C3_5 
ROOT
ATOM      1  C3  <0> d           1.248   1.716  -0.001  0.00  0.00     0.012 A 
ATOM      2  C4  <0> d           2.347   1.240  -0.952  0.00  0.00    -0.044 A 
ATOM      3  C5  <0> d           2.490   1.016   0.555  0.00  0.00    -0.044 A 
ATOM      4  H5  <0> d           1.157   2.789   0.167  0.00  0.00     0.072 H 
ATOM      5  H6  <0> d           2.134   0.369  -1.572  0.00  0.00     0.036 H 
ATOM      6  H7  <0> d           2.980   2.000  -1.410  0.00  0.00     0.036 H 
ATOM      7  H8  <0> d           3.216   1.630   1.089  0.00  0.00     0.036 H 
ATOM      8  H9  <0> d           2.370  -0.001   0.928  0.00  0.00     0.036 H 
ENDROOT
BRANCH   1   9
ATOM      9  N1  <0> d          -0.011   0.966   0.007  0.00  0.00    -0.357 N 
ATOM     10  C2  <0> d          -1.187   1.624   0.017  0.00  0.00     0.213 C 
ATOM     11  O1  <0> d          -1.204   2.837   0.023  0.00  0.00    -0.274 OA
ATOM     12  H4  <0> d           0.002  -0.004   0.002  0.00  0.00     0.162 HD
BRANCH  10  13
ATOM     13  C1  <0> d          -2.482   0.853   0.018  0.00  0.00    -0.003 C 
ATOM     14  H1  <0> d          -2.268  -0.216   0.012  0.00  0.00     0.040 H 
ATOM     15  H2  <0> d          -3.053   1.103   0.912  0.00  0.00     0.040 H 
ATOM     16  H3  <0> d          -3.061   1.113  -0.867  0.00  0.00     0.040 H 
ENDBRANCH  10  13
ENDBRANCH   1   9
TORSDOF 2
