REMARK  8 active torsions:
REMARK  status: ('A' for Active; 'I' for Inactive)
REMARK    1  A    between atoms: C1_1  and  C2_2 
REMARK    2  A    between atoms: C2_2  and  O1_3 
REMARK    3  A    between atoms: O1_3  and  C3_4 
REMARK    4  A    between atoms: C3_4  and  C4_5 
REMARK    5  A    between atoms: C4_5  and  C5_7 
REMARK    6  A    between atoms: C5_7  and  C6_8 
REMARK    7  A    between atoms: C5_7  and  C7_9 
REMARK    8  A    between atoms: C5_7  and  C8_10 
ROOT
ATOM      1  C4  <0> d          -2.883  -2.333   0.017  0.00  0.00     0.157 C 
ATOM      2  O2  <0> d          -3.747  -1.490   0.030  0.00  0.00    -0.295 OA
ENDROOT
BRANCH   1   3
ATOM      3  C3  <0> d          -1.432  -1.925   0.005  0.00  0.00     0.075 C 
ATOM      4  H6  <0> d          -0.952  -2.316  -0.891  0.00  0.00     0.086 H 
ATOM      5  H7  <0> d          -0.935  -2.325   0.888  0.00  0.00     0.086 H 
BRANCH   3   6
ATOM      6  O1  <0> d          -1.339  -0.499   0.012  0.00  0.00    -0.384 OA
BRANCH   6   7
ATOM      7  C2  <0> d           0.002  -0.004   0.002  0.00  0.00     0.017 C 
ATOM      8  H4  <0> d           0.512  -0.356  -0.895  0.00  0.00     0.073 H 
ATOM      9  H5  <0> d           0.529  -0.365   0.885  0.00  0.00     0.073 H 
BRANCH   7  10
ATOM     10  C1  <0> d          -0.019   1.526   0.010  0.00  0.00    -0.056 C 
ATOM     11  H1  <0> d           1.004   1.903   0.003  0.00  0.00     0.030 H 
ATOM     12  H2  <0> d          -0.546   1.887  -0.873  0.00  0.00     0.030 H 
ATOM     13  H3  <0> d          -0.529   1.877   0.907  0.00  0.00     0.030 H 
ENDBRANCH   7  10
ENDBRANCH   6   7
ENDBRANCH   3   6
ENDBRANCH   1   3
BRANCH   1  14
ATOM     14  C5  <0> d          -3.254  -3.793   0.013  0.00  0.00     0.012 C 
BRANCH  14  15
ATOM     15  C6  <0> d          -4.778  -3.932   0.027  0.00  0.00    -0.063 C 
ATOM     16  H8  <0> d          -5.195  -3.448  -0.857  0.00  0.00     0.029 H 
ATOM     17  H9  <0> d          -5.047  -4.988   0.024  0.00  0.00     0.029 H 
ATOM     18  H10 <0> d          -5.178  -3.458   0.923  0.00  0.00     0.029 H 
ENDBRANCH  14  15
BRANCH  14  19
ATOM     19  C7  <0> d          -2.693  -4.459  -1.246  0.00  0.00    -0.063 C 
ATOM     20  H11 <0> d          -1.608  -4.360  -1.255  0.00  0.00     0.029 H 
ATOM     21  H12 <0> d          -2.962  -5.515  -1.249  0.00  0.00     0.029 H 
ATOM     22  H13 <0> d          -3.110  -3.975  -2.129  0.00  0.00     0.029 H 
ENDBRANCH  14  19
BRANCH  14  23
ATOM     23  C8  <0> d          -2.669  -4.472   1.253  0.00  0.00    -0.063 C 
ATOM     24  H14 <0> d          -3.069  -3.998   2.149  0.00  0.00     0.029 H 
ATOM     25  H15 <0> d          -2.938  -5.529   1.250  0.00  0.00     0.029 H 
ATOM     26  H16 <0> d          -1.584  -4.374   1.243  0.00  0.00     0.029 H 
ENDBRANCH  14  23
ENDBRANCH   1  14
TORSDOF 8
