REMARK  1 active torsions:
REMARK  status: ('A' for Active; 'I' for Inactive)
REMARK    1  A    between atoms: C1_1  and  C2_2 
ROOT
ATOM      1  C1  <0> d          -0.019   1.526   0.010  0.00  0.00    -0.017 C 
ATOM      2  H1  <0> d           1.004   1.903   0.003  0.00  0.00     0.035 H 
ATOM      3  H2  <0> d          -0.546   1.887  -0.873  0.00  0.00     0.035 H 
ATOM      4  H3  <0> d          -0.529   1.877   0.907  0.00  0.00     0.035 H 
ENDROOT
BRANCH   1   5
ATOM      5  C2  <0> d           0.002  -0.004   0.002  0.00  0.00     0.251 C 
ATOM      6  F1  <0> d           0.679  -0.468   1.135  0.00  0.00    -0.208 F 
ATOM      7 Cl1  <0> d          -1.689  -0.628   0.015  0.00  0.00    -0.066 Cl
ATOM      8 Cl2  <0> d           0.846  -0.586  -1.481  0.00  0.00    -0.066 Cl
ENDBRANCH   1   5
TORSDOF 1
