REMARK  1 active torsions:
REMARK  status: ('A' for Active; 'I' for Inactive)
REMARK    1  A    between atoms: C6_6  and  N1_7 
ROOT
ATOM      1  C1  <0> d           2.883  -1.650   1.680  0.00  0.00    -0.055 A 
ATOM      2  C2  <0> d           1.616  -1.553   1.136  0.00  0.00    -0.046 A 
ATOM      3  C3  <0> d           1.184  -0.356   0.590  0.00  0.00     0.105 A 
ATOM      4  C4  <0> d           2.029   0.752   0.587  0.00  0.00     0.107 A 
ATOM      5  C5  <0> d           3.298   0.654   1.131  0.00  0.00    -0.023 A 
ATOM      6  C6  <0> d           3.727  -0.548   1.679  0.00  0.00     0.028 A 
ATOM      7  O1  <0> d           1.376   1.797  -0.001  0.00  0.00    -0.323 OA
ATOM      8  C7  <0> d          -0.017   1.436   0.010  0.00  0.00     0.115 C 
ATOM      9  O2  <0> d           0.002  -0.004   0.002  0.00  0.00    -0.323 OA
ATOM     10  H1  <0> d           3.217  -2.585   2.106  0.00  0.00     0.087 H 
ATOM     11  H2  <0> d           0.961  -2.412   1.138  0.00  0.00     0.087 H 
ATOM     12  H3  <0> d           3.955   1.511   1.129  0.00  0.00     0.091 H 
ATOM     13  H6  <0> d          -0.519   1.817  -0.880  0.00  0.00     0.118 H 
ATOM     14  H7  <0> d          -0.502   1.807   0.913  0.00  0.00     0.118 H 
ENDROOT
BRANCH   6  15
ATOM     15  N1  <0> d           5.010  -0.648   2.229  0.00  0.00    -0.399 N 
ATOM     16  H4  <0> d           5.309  -1.488   2.612  0.00  0.00     0.156 HD
ATOM     17  H5  <0> d           5.599   0.122   2.228  0.00  0.00     0.156 HD
ENDBRANCH   6  15
TORSDOF 1
