REMARK  9 active torsions:
REMARK  status: ('A' for Active; 'I' for Inactive)
REMARK    1  A    between atoms: C1_1  and  C2_2 
REMARK    2  A    between atoms: C2_2  and  C3_3 
REMARK    3  A    between atoms: C3_3  and  C4_4 
REMARK    4  A    between atoms: C4_4  and  C5_5 
REMARK    5  A    between atoms: C5_5  and  C6_7 
REMARK    6  A    between atoms: C5_5  and  O1_12 
REMARK    7  A    between atoms: C6_7  and  C7_8 
REMARK    8  A    between atoms: C6_7  and  C8_9 
REMARK    9  A    between atoms: C6_7  and  C9_10 
ROOT
ATOM      1  C5  <0> d           0.011   1.072   2.506  0.00  0.00     0.045 C 
ATOM      2  H1  <0> d          -0.499   1.424   3.403  0.00  0.00     0.084 H 
ENDROOT
BRANCH   1   3
ATOM      3  C4  <0> d           1.446   1.602   2.495  0.00  0.00    -0.040 C 
ATOM      4  H9  <0> d           1.983   1.179   1.646  0.00  0.00     0.036 H 
ATOM      5  H10 <0> d           1.432   2.689   2.412  0.00  0.00     0.036 H 
BRANCH   3   6
ATOM      6  C3  <0> d           2.148   1.200   3.794  0.00  0.00    -0.063 C 
ATOM      7  H7  <0> d           1.612   1.622   4.643  0.00  0.00     0.033 H 
ATOM      8  H8  <0> d           2.163   0.113   3.878  0.00  0.00     0.033 H 
BRANCH   6   9
ATOM      9  C2  <0> d           3.584   1.729   3.783  0.00  0.00    -0.068 C 
ATOM     10  H5  <0> d           4.121   1.306   2.934  0.00  0.00     0.032 H 
ATOM     11  H6  <0> d           3.570   2.816   3.700  0.00  0.00     0.032 H 
BRANCH   9  12
ATOM     12  C1  <0> d           4.286   1.327   5.082  0.00  0.00    -0.077 C 
ATOM     13  H2  <0> d           4.300   0.240   5.165  0.00  0.00     0.027 H 
ATOM     14  H3  <0> d           5.308   1.704   5.074  0.00  0.00     0.027 H 
ATOM     15  H4  <0> d           3.749   1.749   5.931  0.00  0.00     0.027 H 
ENDBRANCH   9  12
ENDBRANCH   6   9
ENDBRANCH   3   6
ENDBRANCH   1   3
BRANCH   1  16
ATOM     16  C6  <0> d          -0.729   1.579   1.267  0.00  0.00    -0.005 C 
BRANCH  16  17
ATOM     17  C7  <0> d          -0.013   1.086   0.008  0.00  0.00    -0.064 C 
ATOM     18  H11 <0> d           0.002  -0.004   0.002  0.00  0.00     0.028 H 
ATOM     19  H12 <0> d           1.010   1.463   0.000  0.00  0.00     0.028 H 
ATOM     20  H13 <0> d          -0.540   1.447  -0.875  0.00  0.00     0.028 H 
ENDBRANCH  16  17
BRANCH  16  21
ATOM     21  C8  <0> d          -0.750   3.109   1.275  0.00  0.00    -0.064 C 
ATOM     22  H14 <0> d          -1.277   3.470   0.392  0.00  0.00     0.028 H 
ATOM     23  H15 <0> d          -1.260   3.461   2.172  0.00  0.00     0.028 H 
ATOM     24  H16 <0> d           0.273   3.486   1.268  0.00  0.00     0.028 H 
ENDBRANCH  16  21
BRANCH  16  25
ATOM     25  C9  <0> d          -2.143   1.058   1.278  0.00  0.00    -0.102 C 
ATOM     26  C10 <0> d          -2.570   0.304   0.295  0.00  0.00    -0.124 C 
ATOM     27  H18 <0> d          -1.909   0.057  -0.523  0.00  0.00     0.066 H 
ATOM     28  H19 <0> d          -3.583  -0.070   0.303  0.00  0.00     0.066 H 
ATOM     29  H17 <0> d          -2.803   1.305   2.095  0.00  0.00     0.076 H 
ENDBRANCH  16  25
ENDBRANCH   1  16
BRANCH   1  30
ATOM     30  O1  <0> d           0.030  -0.356   2.498  0.00  0.00    -0.395 OA
ATOM     31  H20 <0> d           0.470  -0.740   1.727  0.00  0.00     0.210 HD
ENDBRANCH   1  30
TORSDOF 9
