REMARK  0 active torsions:
REMARK  status: ('A' for Active; 'I' for Inactive)
ROOT
ATOM      1  C1  <0> d           1.850   1.834  -1.206  0.00  0.00     0.010 A 
ATOM      2  C2  <0> d           1.219   1.531  -0.001  0.00  0.00     0.204 A 
ATOM      3  N1  <0> d           1.841   1.812   1.139  0.00  0.00    -0.215 NA
ATOM      4  C3  <0> d           3.039   2.359   1.136  0.00  0.00     0.091 A 
ATOM      5  N2  <0> d           3.664   2.658   0.015  0.00  0.00    -0.230 NA
ATOM      6  C4  <0> d           3.106   2.413  -1.163  0.00  0.00     0.131 A 
ATOM      7 Cl1  <0> d           3.941   2.813  -2.631  0.00  0.00    -0.062 Cl
ATOM      8  O1  <0> d          -0.011   0.963   0.007  0.00  0.00    -0.170 OA
ATOM      9  H1  <0> d           1.417   1.643  -2.087  0.00  0.00     0.095 H 
ATOM     10  H2  <0> d           3.475   2.546   2.017  0.00  0.00     0.146 H 
ENDROOT
TORSDOF 0
