REMARK  4 active torsions:
REMARK  status: ('A' for Active; 'I' for Inactive)
REMARK    1  A    between atoms: C2_2  and  C3_3 
REMARK    2  A    between atoms: C3_3  and  O1_4 
REMARK    3  A    between atoms: O1_4  and  C4_5 
REMARK    4  A    between atoms: C4_5  and  C5_7 
ROOT
ATOM      1  C5  <0> d          -1.329   1.940   0.019  0.00  0.00     0.095 C 
ATOM      2  C6  <0> d          -2.435   0.968   0.019  0.00  0.00     0.069 C 
ATOM      3  N1  <0> d          -3.289   0.218   0.019  0.00  0.00    -0.197 NA
ATOM      4  H6  <0> d          -1.391   2.561   0.913  0.00  0.00     0.070 H 
ATOM      5  H7  <0> d          -1.400   2.570  -0.867  0.00  0.00     0.070 H 
ENDROOT
BRANCH   1   6
ATOM      6  C4  <0> d          -0.014   1.204   0.009  0.00  0.00     0.272 C 
ATOM      7  O2  <0> d           0.002  -0.004   0.002  0.00  0.00    -0.264 OA
BRANCH   6   8
ATOM      8  O1  <0> d           1.139   1.891   0.001  0.00  0.00    -0.317 OA
BRANCH   8   9
ATOM      9  C3  <0> d           2.367   1.117  -0.015  0.00  0.00     0.043 C 
ATOM     10  H4  <0> d           2.409   0.484   0.872  0.00  0.00     0.081 H 
ATOM     11  H5  <0> d           2.392   0.493  -0.908  0.00  0.00     0.081 H 
BRANCH   9  12
ATOM     12  C2  <0> d           3.550   2.051  -0.021  0.00  0.00    -0.089 C 
ATOM     13  C1  <0> d           4.569   1.823   0.770  0.00  0.00    -0.123 C 
ATOM     14  H1  <0> d           5.416   2.493   0.766  0.00  0.00     0.066 H 
ATOM     15  H2  <0> d           4.561   0.966   1.427  0.00  0.00     0.066 H 
ATOM     16  H3  <0> d           3.557   2.908  -0.678  0.00  0.00     0.078 H 
ENDBRANCH   9  12
ENDBRANCH   8   9
ENDBRANCH   6   8
ENDBRANCH   1   6
TORSDOF 4
