REMARK  1 active torsions:
REMARK  status: ('A' for Active; 'I' for Inactive)
REMARK    1  A    between atoms: C7_9  and  O4_12 
ROOT
ATOM      1  C1  <0> d          -0.017   1.421   0.010  0.00  0.00     0.041 C 
ATOM      2  C2  <0> d           1.385   1.990  -0.001  0.00  0.00    -0.047 C 
ATOM      3  C3  <0> d           2.343   1.275   0.614  0.00  0.00     0.089 A 
ATOM      4  C4  <0> d           2.024  -0.035   1.222  0.00  0.00     0.036 A 
ATOM      5  C5  <0> d           3.152  -0.488   1.777  0.00  0.00     0.004 A 
ATOM      6  C6  <0> d           4.165   0.475   1.532  0.00  0.00     0.288 A 
ATOM      7  O1  <0> d           5.317   0.397   1.916  0.00  0.00    -0.260 OA
ATOM      8  O2  <0> d           3.653   1.493   0.807  0.00  0.00    -0.275 OA
ATOM      9  C7  <0> d           0.637  -0.620   1.135  0.00  0.00     0.158 C 
ATOM     10  H1  <0> d           0.080  -0.395   2.044  0.00  0.00     0.137 H 
ATOM     11  O3  <0> d           0.002  -0.004   0.002  0.00  0.00    -0.353 OA
ATOM     12  H2  <0> d          -0.536   1.766   0.904  0.00  0.00     0.080 H 
ATOM     13  H3  <0> d          -0.553   1.776  -0.871  0.00  0.00     0.080 H 
ATOM     14  H4  <0> d           1.607   2.931  -0.482  0.00  0.00     0.084 H 
ATOM     15  H5  <0> d           3.272  -1.418   2.314  0.00  0.00     0.094 H 
ENDROOT
BRANCH   9  16
ATOM     16  O4  <0> d           0.714  -2.034   0.946  0.00  0.00    -0.367 OA
ATOM     17  H6  <0> d          -0.147  -2.470   0.882  0.00  0.00     0.213 HD
ENDBRANCH   9  16
TORSDOF 1
