REMARK  6 active torsions:
REMARK  status: ('A' for Active; 'I' for Inactive)
REMARK    1  A    between atoms: C1_1  and  C2_2 
REMARK    2  A    between atoms: C2_2  and  C4_4 
REMARK    3  A    between atoms: C5_5  and  C6_6 
REMARK    4  A    between atoms: C6_6  and  C7_7 
REMARK    5  A    between atoms: C6_6  and  C8_8 
REMARK    6  A    between atoms: C6_6  and  O1_9 
ROOT
ATOM      1  C6  <0> d          -1.228   5.802   0.039  0.00  0.00     0.114 C 
ENDROOT
BRANCH   1   2
ATOM      2  C5  <0> d          -1.208   4.330   0.031  0.00  0.00    -0.064 C 
ATOM      3  C4  <0> d          -1.192   3.156   0.025  0.00  0.00    -0.070 C 
BRANCH   3   4
ATOM      4  C2  <0> d          -1.172   1.724   0.017  0.00  0.00    -0.018 C 
ATOM      5  C3  <0> d          -0.013   1.076   0.008  0.00  0.00    -0.108 C 
ATOM      6  H4  <0> d           0.002  -0.004   0.002  0.00  0.00     0.068 H 
ATOM      7  H5  <0> d           0.915   1.629   0.002  0.00  0.00     0.068 H 
BRANCH   4   8
ATOM      8  C1  <0> d          -2.467   0.953   0.019  0.00  0.00    -0.045 C 
ATOM      9  H1  <0> d          -2.774   0.762   1.047  0.00  0.00     0.034 H 
ATOM     10  H2  <0> d          -3.237   1.535  -0.488  0.00  0.00     0.034 H 
ATOM     11  H3  <0> d          -2.326   0.006  -0.501  0.00  0.00     0.034 H 
ENDBRANCH   4   8
ENDBRANCH   3   4
ENDBRANCH   1   2
BRANCH   1  12
ATOM     12  C7  <0> d          -0.507   6.315   1.288  0.00  0.00    -0.038 C 
ATOM     13  H6  <0> d           0.525   5.966   1.281  0.00  0.00     0.033 H 
ATOM     14  H7  <0> d          -0.522   7.405   1.294  0.00  0.00     0.033 H 
ATOM     15  H8  <0> d          -1.012   5.940   2.178  0.00  0.00     0.033 H 
ENDBRANCH   1  12
BRANCH   1  16
ATOM     16  C8  <0> d          -0.519   6.329  -1.210  0.00  0.00    -0.038 C 
ATOM     17  H9  <0> d          -1.032   5.963  -2.100  0.00  0.00     0.033 H 
ATOM     18  H10 <0> d          -0.534   7.418  -1.204  0.00  0.00     0.033 H 
ATOM     19  H11 <0> d           0.513   5.979  -1.217  0.00  0.00     0.033 H 
ENDBRANCH   1  16
BRANCH   1  20
ATOM     20  O1  <0> d          -2.581   6.260   0.048  0.00  0.00    -0.378 OA
ATOM     21  H12 <0> d          -3.099   5.972  -0.716  0.00  0.00     0.211 HD
ENDBRANCH   1  20
TORSDOF 6
