REMARK  1 active torsions:
REMARK  status: ('A' for Active; 'I' for Inactive)
REMARK    1  A    between atoms: C1_1  and  N1_2 
ROOT
ATOM      1  N1  <0> d          -1.023   2.392   0.019  0.00  0.00    -0.254 N 
ATOM      2  C2  <0> d          -0.018   1.502   0.010  0.00  0.00     0.098 A 
ATOM      3  C3  <0> d           1.148   2.232   0.003  0.00  0.00     0.200 A 
ATOM      4  N2  <0> d           0.784   3.511   0.013  0.00  0.00    -0.110 NA
ATOM      5  N3  <0> d          -0.506   3.577   0.025  0.00  0.00    -0.064 NA
ATOM      6  N4  <0> d           2.377   1.621  -0.012  0.00  0.00    -0.221 NA
ATOM      7  C4  <0> d           2.432   0.342  -0.271  0.00  0.00     0.062 C 
ATOM      8  N5  <0> d           1.312  -0.396  -0.551  0.00  0.00    -0.379 N 
ATOM      9  C5  <0> d           0.002  -0.004   0.002  0.00  0.00     0.036 C 
ATOM     10  H4  <0> d           3.393  -0.151  -0.263  0.00  0.00     0.143 H 
ATOM     11  H5  <0> d           1.382  -1.181  -1.117  0.00  0.00     0.160 HD
ATOM     12  H6  <0> d          -0.105  -0.386   1.018  0.00  0.00     0.073 H 
ATOM     13  H7  <0> d          -0.802  -0.386  -0.627  0.00  0.00     0.073 H 
ENDROOT
BRANCH   1  14
ATOM     14  C1  <0> d          -2.454   2.075   0.023  0.00  0.00     0.004 C 
ATOM     15  H1  <0> d          -2.804   1.992   1.052  0.00  0.00     0.059 H 
ATOM     16  H2  <0> d          -3.002   2.869  -0.484  0.00  0.00     0.059 H 
ATOM     17  H3  <0> d          -2.619   1.131  -0.495  0.00  0.00     0.059 H 
ENDBRANCH   1  14
TORSDOF 1
