REMARK  5 active torsions:
REMARK  status: ('A' for Active; 'I' for Inactive)
REMARK    1  A    between atoms: C1_1  and  C2_2 
REMARK    2  A    between atoms: C2_2  and  N1_3 
REMARK    3  A    between atoms: N1_3  and  C3_4 
REMARK    4  A    between atoms: C7_8  and  C10_11 
REMARK    5  A    between atoms: C8_9  and  C9_10 
ROOT
ATOM      1  C3  <0> d           1.178   2.086   0.002  0.00  0.00     0.034 A 
ATOM      2  C4  <0> d          -0.017   1.377   0.010  0.00  0.00    -0.057 A 
ATOM      3  C5  <0> d           0.002  -0.004   0.002  0.00  0.00    -0.080 A 
ATOM      4  C6  <0> d           1.208  -0.681  -0.013  0.00  0.00    -0.077 A 
ATOM      5  C7  <0> d           2.399   0.022  -0.021  0.00  0.00    -0.054 A 
ATOM      6  C8  <0> d           2.387   1.403  -0.014  0.00  0.00    -0.030 A 
ATOM      7  H7  <0> d          -0.959   1.904   0.017  0.00  0.00     0.086 H 
ATOM      8  H8  <0> d          -0.926  -0.556   0.008  0.00  0.00     0.083 H 
ATOM      9  H9  <0> d           1.220  -1.761  -0.018  0.00  0.00     0.084 H 
ENDROOT
BRANCH   1  10
ATOM     10  N1  <0> d           1.163   3.483   0.009  0.00  0.00    -0.390 N 
ATOM     11  H6  <0> d           1.997   3.977   0.004  0.00  0.00     0.159 HD
BRANCH  10  12
ATOM     12  C2  <0> d          -0.114   4.201   0.025  0.00  0.00    -0.011 C 
ATOM     13  H4  <0> d          -0.691   3.936  -0.861  0.00  0.00     0.063 H 
ATOM     14  H5  <0> d          -0.674   3.927   0.919  0.00  0.00     0.063 H 
BRANCH  12  15
ATOM     15  C1  <0> d           0.149   5.708   0.030  0.00  0.00    -0.061 C 
ATOM     16  H1  <0> d           0.709   5.982  -0.864  0.00  0.00     0.029 H 
ATOM     17  H2  <0> d          -0.801   6.243   0.042  0.00  0.00     0.029 H 
ATOM     18  H3  <0> d           0.726   5.973   0.916  0.00  0.00     0.029 H 
ENDBRANCH  12  15
ENDBRANCH  10  12
ENDBRANCH   1  10
BRANCH   6  19
ATOM     19  C9  <0> d           3.686   2.168  -0.022  0.00  0.00    -0.049 C 
ATOM     20  H10 <0> d           3.989   2.358  -1.052  0.00  0.00     0.033 H 
ATOM     21  H11 <0> d           3.552   3.117   0.497  0.00  0.00     0.033 H 
ATOM     22  H12 <0> d           4.455   1.584   0.481  0.00  0.00     0.033 H 
ENDBRANCH   6  19
BRANCH   5  23
ATOM     23  C10 <0> d           3.711  -0.720  -0.037  0.00  0.00    -0.051 C 
ATOM     24  H13 <0> d           4.017  -0.894  -1.068  0.00  0.00     0.033 H 
ATOM     25  H14 <0> d           4.470  -0.126   0.473  0.00  0.00     0.033 H 
ATOM     26  H15 <0> d           3.594  -1.675   0.474  0.00  0.00     0.033 H 
ENDBRANCH   5  23
TORSDOF 5
