REMARK  0 active torsions:
REMARK  status: ('A' for Active; 'I' for Inactive)
ROOT
ATOM      1  C1  <0> d           0.730   5.517   0.022  0.00  0.00    -0.078 A 
ATOM      2  C2  <0> d          -0.673   5.511   0.035  0.00  0.00    -0.066 A 
ATOM      3  C3  <0> d          -1.348   4.339   0.036  0.00  0.00     0.006 A 
ATOM      4  N1  <0> d          -0.678   3.156   0.024  0.00  0.00    -0.226 N 
ATOM      5  C4  <0> d           0.688   3.129   0.011  0.00  0.00     0.151 A 
ATOM      6  C5  <0> d           1.409   4.337   0.010  0.00  0.00    -0.037 A 
ATOM      7  N2  <0> d           1.060   1.854   0.002  0.00  0.00    -0.221 NA
ATOM      8  C6  <0> d          -0.013   1.076   0.008  0.00  0.00     0.108 A 
ATOM      9  N3  <0> d          -1.095   1.817   0.017  0.00  0.00    -0.160 NA
ATOM     10  H1  <0> d           1.268   6.454   0.022  0.00  0.00     0.083 H 
ATOM     11  H2  <0> d          -1.216   6.444   0.044  0.00  0.00     0.085 H 
ATOM     12  H3  <0> d          -2.428   4.343   0.046  0.00  0.00     0.114 H 
ATOM     13  H4  <0> d           2.488   4.328   0.000  0.00  0.00     0.089 H 
ATOM     14  H5  <0> d           0.002  -0.004   0.002  0.00  0.00     0.149 H 
ENDROOT
TORSDOF 0
