REMARK  7 active torsions:
REMARK  status: ('A' for Active; 'I' for Inactive)
REMARK    1  A    between atoms: C1_1  and  C2_2 
REMARK    2  A    between atoms: C2_2  and  C3_3 
REMARK    3  A    between atoms: C3_3  and  C4_5 
REMARK    4  A    between atoms: C4_5  and  O2_6 
REMARK    5  A    between atoms: C4_5  and  O3_8 
REMARK    6  A    between atoms: O2_6  and  C5_7 
REMARK    7  A    between atoms: O3_8  and  C6_9 
ROOT
ATOM      1  C4  <0> d          -0.211   0.862   0.278  0.00  0.00     0.187 C 
ATOM      2  H6  <0> d          -0.297  -0.103   0.528  0.00  0.00     0.141 H 
ENDROOT
BRANCH   1   3
ATOM      3  C3  <0> d          -1.127   1.688   1.144  0.00  0.00     0.180 C 
ATOM      4  O1  <0> d          -2.260   1.906   0.789  0.00  0.00    -0.293 OA
BRANCH   3   5
ATOM      5  C2  <0> d          -0.627   2.244   2.453  0.00  0.00    -0.008 C 
ATOM      6  H4  <0> d          -0.346   1.491   3.049  0.00  0.00     0.044 H 
ATOM      7  H5  <0> d           0.224   2.899   2.269  0.00  0.00     0.044 H 
BRANCH   5   8
ATOM      8  C1  <0> d          -1.746   3.038   3.130  0.00  0.00    -0.070 C 
ATOM      9  H1  <0> d          -1.385   3.440   4.077  0.00  0.00     0.028 H 
ATOM     10  H2  <0> d          -2.053   3.858   2.481  0.00  0.00     0.028 H 
ATOM     11  H3  <0> d          -2.597   2.383   3.314  0.00  0.00     0.028 H 
ENDBRANCH   5   8
ENDBRANCH   3   5
ENDBRANCH   1   3
BRANCH   1  12
ATOM     12  O2  <0> d           1.140   1.286   0.472  0.00  0.00    -0.359 OA
BRANCH  12  13
ATOM     13  C5  <0> d           2.115   0.333   0.045  0.00  0.00     0.007 C 
ATOM     14  H7  <0> d           3.098   0.632   0.409  0.00  0.00     0.066 H 
ATOM     15  H8  <0> d           1.863  -0.649   0.446  0.00  0.00     0.066 H 
ATOM     16  H9  <0> d           2.128   0.289  -1.044  0.00  0.00     0.066 H 
ENDBRANCH  12  13
ENDBRANCH   1  12
BRANCH   1  17
ATOM     17  O3  <0> d          -0.571   1.032  -1.094  0.00  0.00    -0.359 OA
BRANCH  17  18
ATOM     18  C6  <0> d          -0.024   0.041  -1.966  0.00  0.00     0.007 C 
ATOM     19  H10 <0> d          -0.589   0.026  -2.898  0.00  0.00     0.066 H 
ATOM     20  H11 <0> d           1.019   0.279  -2.177  0.00  0.00     0.066 H 
ATOM     21  H12 <0> d          -0.085  -0.936  -1.488  0.00  0.00     0.066 H 
ENDBRANCH  17  18
ENDBRANCH   1  17
TORSDOF 7
