REMARK  2 active torsions:
REMARK  status: ('A' for Active; 'I' for Inactive)
REMARK    1  A    between atoms: C1_1  and  O1_2 
REMARK    2  A    between atoms: O1_2  and  C2_3 
ROOT
ATOM      1  C2  <0> d           3.668   3.333  -0.013  0.00  0.00     0.070 A 
ATOM      2  C3  <0> d           2.481   4.072   0.002  0.00  0.00    -0.050 A 
ATOM      3  C4  <0> d           1.272   3.447   0.009  0.00  0.00    -0.068 A 
ATOM      4  C5  <0> d           1.214   2.043   0.001  0.00  0.00    -0.007 A 
ATOM      5  C6  <0> d          -0.017   1.362   0.009  0.00  0.00    -0.069 A 
ATOM      6  C7  <0> d           0.002  -0.004   0.002  0.00  0.00    -0.065 A 
ATOM      7  C8  <0> d           1.218  -0.683  -0.013  0.00  0.00     0.003 A 
ATOM      8  N1  <0> d           2.364  -0.045  -0.020  0.00  0.00    -0.260 NA
ATOM      9  C9  <0> d           2.416   1.291  -0.014  0.00  0.00     0.069 A 
ATOM     10  C10 <0> d           3.646   1.968  -0.021  0.00  0.00    -0.022 A 
ATOM     11  H4  <0> d           2.523   5.151   0.008  0.00  0.00     0.087 H 
ATOM     12  H5  <0> d           0.362   4.028   0.020  0.00  0.00     0.085 H 
ATOM     13  H6  <0> d          -0.951   1.904   0.017  0.00  0.00     0.085 H 
ATOM     14  H7  <0> d          -0.925  -0.557   0.008  0.00  0.00     0.085 H 
ATOM     15  H8  <0> d           1.217  -1.763  -0.019  0.00  0.00     0.114 H 
ATOM     16  H9  <0> d           4.572   1.410  -0.032  0.00  0.00     0.091 H 
ENDROOT
BRANCH   1  17
ATOM     17  O1  <0> d           4.861   3.984  -0.020  0.00  0.00    -0.356 OA
BRANCH  17  18
ATOM     18  C1  <0> d           4.821   5.412  -0.012  0.00  0.00     0.010 C 
ATOM     19  H1  <0> d           4.289   5.766  -0.895  0.00  0.00     0.066 H 
ATOM     20  H2  <0> d           4.305   5.756   0.885  0.00  0.00     0.066 H 
ATOM     21  H3  <0> d           5.838   5.804  -0.019  0.00  0.00     0.066 H 
ENDBRANCH  17  18
ENDBRANCH   1  17
TORSDOF 2
