REMARK  1 active torsions:
REMARK  status: ('A' for Active; 'I' for Inactive)
REMARK    1  A    between atoms: C1_1  and  N1_2 
ROOT
ATOM      1  N1  <0> d           0.002  -0.004   0.002  0.00  0.00    -0.256 N 
ATOM      2  C2  <0> d           0.008  -0.793  -1.103  0.00  0.00     0.164 A 
ATOM      3  C3  <0> d           0.029  -2.121  -0.648  0.00  0.00     0.098 A 
ATOM      4  C4  <0> d           0.035  -2.080   0.759  0.00  0.00     0.041 A 
ATOM      5  N2  <0> d           0.025  -0.830   1.133  0.00  0.00    -0.182 NA
ATOM      6  C5  <0> d           0.039  -3.192  -1.645  0.00  0.00     0.262 A 
ATOM      7  O1  <0> d           0.057  -4.364  -1.313  0.00  0.00    -0.267 OA
ATOM      8  N3  <0> d           0.028  -2.831  -2.949  0.00  0.00    -0.317 N 
ATOM      9  H1  <0> d           0.034  -3.513  -3.639  0.00  0.00     0.170 HD
ATOM     10  C6  <0> d           0.007  -1.520  -3.297  0.00  0.00     0.069 A 
ATOM     11  N4  <0> d          -0.002  -0.555  -2.424  0.00  0.00    -0.224 NA
ATOM     12  H5  <0> d           0.050  -2.937   1.417  0.00  0.00     0.119 H 
ATOM     13  H6  <0> d          -0.002  -1.265  -4.346  0.00  0.00     0.143 H 
ENDROOT
BRANCH   1  14
ATOM     14  C1  <0> d          -0.018   1.461   0.010  0.00  0.00     0.004 C 
ATOM     15  H2  <0> d           1.005   1.838   0.002  0.00  0.00     0.059 H 
ATOM     16  H3  <0> d          -0.545   1.822  -0.873  0.00  0.00     0.059 H 
ATOM     17  H4  <0> d          -0.528   1.812   0.907  0.00  0.00     0.059 H 
ENDBRANCH   1  14
TORSDOF 1
