REMARK  6 active torsions:
REMARK  status: ('A' for Active; 'I' for Inactive)
REMARK    1  A    between atoms: C1_1  and  C2_2 
REMARK    2  A    between atoms: C2_2  and  C3_4 
REMARK    3  A    between atoms: C2_2  and  N1_7 
REMARK    4  A    between atoms: C3_4  and  C4_5 
REMARK    5  A    between atoms: C3_4  and  C5_6 
REMARK    6  A    between atoms: C6_8  and  N3_12 
ROOT
ATOM      1  C2  <0> d           0.002  -0.004   0.002  0.00  0.00     0.034 C 
ATOM      2  H1  <0> d           0.529  -0.365   0.885  0.00  0.00     0.075 H 
ENDROOT
BRANCH   1   3
ATOM      3  C1  <0> d          -0.019   1.526   0.010  0.00  0.00    -0.055 C 
ATOM      4  H2  <0> d           1.004   1.903   0.003  0.00  0.00     0.030 H 
ATOM      5  H3  <0> d          -0.546   1.887  -0.873  0.00  0.00     0.030 H 
ATOM      6  H4  <0> d          -0.529   1.877   0.907  0.00  0.00     0.030 H 
ENDBRANCH   1   3
BRANCH   1   7
ATOM      7  C3  <0> d           0.718  -0.497  -1.257  0.00  0.00    -0.040 C 
ATOM      8  H5  <0> d           0.191  -0.136  -2.140  0.00  0.00     0.042 H 
BRANCH   7   9
ATOM      9  C4  <0> d           2.154   0.032  -1.268  0.00  0.00    -0.071 C 
ATOM     10  H6  <0> d           2.681  -0.329  -0.385  0.00  0.00     0.028 H 
ATOM     11  H7  <0> d           2.664  -0.319  -2.164  0.00  0.00     0.028 H 
ATOM     12  H8  <0> d           2.139   1.122  -1.262  0.00  0.00     0.028 H 
ENDBRANCH   7   9
BRANCH   7  13
ATOM     13  C5  <0> d           0.739  -2.027  -1.265  0.00  0.00    -0.071 C 
ATOM     14  H9  <0> d          -0.284  -2.405  -1.258  0.00  0.00     0.028 H 
ATOM     15  H10 <0> d           1.249  -2.379  -2.162  0.00  0.00     0.028 H 
ATOM     16  H11 <0> d           1.266  -2.388  -0.382  0.00  0.00     0.028 H 
ENDBRANCH   7  13
ENDBRANCH   1   7
BRANCH   1  17
ATOM     17  N1  <0> d          -1.372  -0.511   0.012  0.00  0.00    -0.273 N 
ATOM     18  N2  <0> d          -2.351  -0.260  -0.958  0.00  0.00    -0.308 N 
ATOM     19  C8  <0> d          -3.447  -0.882  -0.609  0.00  0.00    -0.003 A 
ATOM     20  H16 <0> d          -2.235   0.282  -1.754  0.00  0.00     0.186 HD
ATOM     21  C7  <0> d          -3.212  -1.544   0.599  0.00  0.00    -0.023 A 
ATOM     22  H13 <0> d          -4.377  -0.881  -1.158  0.00  0.00     0.113 H 
ATOM     23  C6  <0> d          -1.922  -1.300   0.963  0.00  0.00     0.117 A 
ATOM     24  H12 <0> d          -3.924  -2.143   1.146  0.00  0.00     0.091 H 
BRANCH  23  25
ATOM     25  N3  <0> d          -1.286  -1.777   2.106  0.00  0.00    -0.384 N 
ATOM     26  H14 <0> d          -0.359  -1.546   2.277  0.00  0.00     0.157 HD
ATOM     27  H15 <0> d          -1.769  -2.340   2.731  0.00  0.00     0.157 HD
ENDBRANCH  23  25
ENDBRANCH   1  17
TORSDOF 6
