REMARK  0 active torsions:
REMARK  status: ('A' for Active; 'I' for Inactive)
ROOT
ATOM      1  C1  <0> d          -0.016   1.361   0.009  0.00  0.00    -0.082 A 
ATOM      2  C2  <0> d           1.169   2.084   0.002  0.00  0.00    -0.081 A 
ATOM      3  C3  <0> d           2.386   1.438  -0.013  0.00  0.00    -0.056 A 
ATOM      4  C4  <0> d           2.430   0.047  -0.021  0.00  0.00     0.043 A 
ATOM      5  C5  <0> d           1.227  -0.684  -0.013  0.00  0.00    -0.007 A 
ATOM      6  C6  <0> d           0.002  -0.004   0.002  0.00  0.00    -0.071 A 
ATOM      7  C7  <0> d           1.577  -2.056  -0.024  0.00  0.00    -0.035 A 
ATOM      8  C8  <0> d           2.934  -2.137  -0.037  0.00  0.00     0.115 A 
ATOM      9  N1  <0> d           3.463  -0.862  -0.036  0.00  0.00    -0.347 N 
ATOM     10  H1  <0> d           4.408  -0.643  -0.044  0.00  0.00     0.167 HD
ATOM     11  C9  <0> d           3.693  -3.351  -0.051  0.00  0.00     0.117 C 
ATOM     12  N2  <0> d           4.295  -4.314  -0.061  0.00  0.00    -0.190 NA
ATOM     13  H2  <0> d          -0.962   1.883   0.026  0.00  0.00     0.083 H 
ATOM     14  H3  <0> d           1.137   3.163   0.008  0.00  0.00     0.083 H 
ATOM     15  H4  <0> d           3.302   2.009  -0.019  0.00  0.00     0.086 H 
ATOM     16  H5  <0> d          -0.925  -0.558   0.008  0.00  0.00     0.084 H 
ATOM     17  H6  <0> d           0.889  -2.889  -0.021  0.00  0.00     0.089 H 
ENDROOT
TORSDOF 0
