REMARK  3 active torsions:
REMARK  status: ('A' for Active; 'I' for Inactive)
REMARK    1  A    between atoms: C1_1  and  C2_2 
REMARK    2  A    between atoms: C2_2  and  C3_4 
REMARK    3  A    between atoms: C2_2  and  N2_7 
REMARK       I    between atoms: C3_4  and  N1_6 
ROOT
ATOM      1  C2  <0> d           0.002  -0.004   0.002  0.00  0.00     0.090 C 
ATOM      2  H1  <0> d           0.512  -0.356  -0.895  0.00  0.00     0.087 H 
ENDROOT
BRANCH   1   3
ATOM      3  C1  <0> d          -0.019   1.526   0.010  0.00  0.00    -0.049 C 
ATOM      4  H2  <0> d           1.004   1.903   0.003  0.00  0.00     0.030 H 
ATOM      5  H3  <0> d          -0.546   1.887  -0.873  0.00  0.00     0.030 H 
ATOM      6  H4  <0> d          -0.529   1.877   0.907  0.00  0.00     0.030 H 
ENDBRANCH   1   3
BRANCH   1   7
ATOM      7  C3  <0> d           0.731  -0.503   1.223  0.00  0.00     0.238 C 
ATOM      8  O1  <0> d           0.159  -1.213   2.023  0.00  0.00    -0.271 OA
ATOM      9  N1  <0> d           2.019  -0.161   1.426  0.00  0.00    -0.368 N 
ATOM     10  H5  <0> d           2.476   0.406   0.786  0.00  0.00     0.159 HD
ATOM     11  H6  <0> d           2.488  -0.483   2.212  0.00  0.00     0.159 HD
ENDBRANCH   1   7
BRANCH   1  12
ATOM     12  N2  <0> d          -1.372  -0.511   0.012  0.00  0.00    -0.337 N 
ATOM     13  C6  <0> d          -2.303  -0.284   0.964  0.00  0.00     0.066 A 
ATOM     14  N3  <0> d          -3.405  -0.896   0.626  0.00  0.00    -0.255 NA
ATOM     15  H9  <0> d          -2.160   0.308   1.856  0.00  0.00     0.143 H 
ATOM     16  C5  <0> d          -3.216  -1.537  -0.537  0.00  0.00     0.018 A 
ATOM     17  C4  <0> d          -1.951  -1.308  -0.938  0.00  0.00    -0.002 A 
ATOM     18  H8  <0> d          -3.950  -2.131  -1.060  0.00  0.00     0.117 H 
ATOM     19  H7  <0> d          -1.483  -1.682  -1.837  0.00  0.00     0.113 H 
ENDBRANCH   1  12
TORSDOF 3
