REMARK  3 active torsions:
REMARK  status: ('A' for Active; 'I' for Inactive)
REMARK    1  A    between atoms: C1_1  and  C2_2 
REMARK    2  A    between atoms: C3_3  and  C6_9 
REMARK    3  A    between atoms: C5_6  and  N3_8 
ROOT
ATOM      1  C2  <0> d           1.319   2.070  -0.007  0.00  0.00     0.068 A 
ATOM      2  C3  <0> d           0.072   1.488   0.259  0.00  0.00     0.083 A 
ATOM      3  C4  <0> d          -0.024   0.090   0.248  0.00  0.00     0.039 A 
ATOM      4  N1  <0> d           1.056  -0.623  -0.010  0.00  0.00    -0.074 NA
ATOM      5  C5  <0> d           2.219  -0.034  -0.257  0.00  0.00     0.720 A 
ATOM      6  N2  <0> d           2.351   1.286  -0.256  0.00  0.00    -0.067 NA
ATOM      7  H4  <0> d          -0.967  -0.396   0.448  0.00  0.00     0.117 H 
ENDROOT
BRANCH   1   8
ATOM      8  C1  <0> d           1.479   3.569  -0.009  0.00  0.00    -0.034 C 
ATOM      9  H1  <0> d           1.631   3.919   1.012  0.00  0.00     0.035 H 
ATOM     10  H2  <0> d           2.341   3.841  -0.618  0.00  0.00     0.035 H 
ATOM     11  H3  <0> d           0.582   4.029  -0.422  0.00  0.00     0.035 H 
ENDBRANCH   1   8
BRANCH   2  12
ATOM     12  C6  <0> d          -1.110   2.325   0.536  0.00  0.00     0.212 C 
ATOM     13  O1  <0> d          -0.988   3.529   0.651  0.00  0.00    -0.644 OA
ATOM     14  O2  <0> d          -2.324   1.755   0.663  0.00  0.00    -0.644 OA
ENDBRANCH   2  12
BRANCH   5  15
ATOM     15  N3  <0> d           3.323  -0.817  -0.521  0.00  0.00    -0.231 N 
ATOM     16  H5  <0> d           3.243  -1.783  -0.525  0.00  0.00     0.174 HD
ATOM     17  H6  <0> d           4.180  -0.401  -0.704  0.00  0.00     0.174 HD
ENDBRANCH   5  15
TORSDOF 3
