REMARK  3 active torsions:
REMARK  status: ('A' for Active; 'I' for Inactive)
REMARK    1  A    between atoms: C1_1  and  C2_2 
REMARK    2  A    between atoms: C2_2  and  N1_3 
REMARK    3  A    between atoms: N1_3  and  C3_4 
ROOT
ATOM      1  C3  <0> d          -1.231   1.648   0.017  0.00  0.00     0.028 A 
ATOM      2  C4  <0> d          -1.251   3.037   0.030  0.00  0.00    -0.056 A 
ATOM      3  C5  <0> d          -2.458   3.708   0.033  0.00  0.00    -0.060 A 
ATOM      4  C6  <0> d          -3.646   2.999   0.035  0.00  0.00     0.034 A 
ATOM      5  C7  <0> d          -3.629   1.615   0.028  0.00  0.00    -0.060 A 
ATOM      6  C8  <0> d          -2.425   0.939   0.019  0.00  0.00    -0.056 A 
ATOM      7 Cl1  <0> d          -5.161   3.846   0.047  0.00  0.00    -0.084 Cl
ATOM      8  H7  <0> d          -0.324   3.591   0.034  0.00  0.00     0.087 H 
ATOM      9  H8  <0> d          -2.474   4.788   0.038  0.00  0.00     0.086 H 
ATOM     10  H9  <0> d          -4.557   1.064   0.029  0.00  0.00     0.086 H 
ATOM     11  H10 <0> d          -2.412  -0.141   0.012  0.00  0.00     0.087 H 
ENDROOT
BRANCH   1  12
ATOM     12  N1  <0> d          -0.011   0.966   0.007  0.00  0.00    -0.390 N 
ATOM     13  H6  <0> d           0.002  -0.004   0.002  0.00  0.00     0.159 HD
BRANCH  12  14
ATOM     14  C2  <0> d           1.248   1.716  -0.001  0.00  0.00    -0.011 C 
ATOM     15  H4  <0> d           1.288   2.348  -0.888  0.00  0.00     0.063 H 
ATOM     16  H5  <0> d           1.305   2.338   0.892  0.00  0.00     0.063 H 
BRANCH  14  17
ATOM     17  C1  <0> d           2.424   0.737  -0.017  0.00  0.00    -0.061 C 
ATOM     18  H1  <0> d           3.360   1.295  -0.023  0.00  0.00     0.029 H 
ATOM     19  H2  <0> d           2.383   0.105   0.870  0.00  0.00     0.029 H 
ATOM     20  H3  <0> d           2.366   0.115  -0.910  0.00  0.00     0.029 H 
ENDBRANCH  14  17
ENDBRANCH  12  14
ENDBRANCH   1  12
TORSDOF 3
