REMARK  2 active torsions:
REMARK  status: ('A' for Active; 'I' for Inactive)
REMARK    1  A    between atoms: C1_1  and  O1_2 
REMARK    2  A    between atoms: O1_2  and  C2_3 
ROOT
ATOM      1  C2  <0> d           1.183   2.057   0.002  0.00  0.00     0.166 A 
ATOM      2  C3  <0> d           1.229   3.445   0.003  0.00  0.00    -0.032 A 
ATOM      3  C4  <0> d           2.459   4.080   0.001  0.00  0.00    -0.074 A 
ATOM      4  C5  <0> d           3.606   3.300  -0.015  0.00  0.00    -0.027 A 
ATOM      5  C6  <0> d           3.487   1.921  -0.021  0.00  0.00     0.212 A 
ATOM      6  N1  <0> d           2.298   1.345  -0.013  0.00  0.00    -0.196 NA
ATOM      7  F1  <0> d           4.600   1.155  -0.035  0.00  0.00    -0.184 F 
ATOM      8  H4  <0> d           0.316   4.022   0.010  0.00  0.00     0.090 H 
ATOM      9  H5  <0> d           2.525   5.157   0.005  0.00  0.00     0.083 H 
ATOM     10  H6  <0> d           4.582   3.764  -0.022  0.00  0.00     0.090 H 
ENDROOT
BRANCH   1  11
ATOM     11  O1  <0> d          -0.017   1.425   0.010  0.00  0.00    -0.339 OA
BRANCH  11  12
ATOM     12  C1  <0> d           0.002  -0.004   0.002  0.00  0.00     0.012 C 
ATOM     13  H1  <0> d           0.529  -0.365   0.885  0.00  0.00     0.067 H 
ATOM     14  H2  <0> d          -1.020  -0.381   0.010  0.00  0.00     0.067 H 
ATOM     15  H3  <0> d           0.512  -0.356  -0.895  0.00  0.00     0.067 H 
ENDBRANCH  11  12
ENDBRANCH   1  11
TORSDOF 2
