REMARK  3 active torsions:
REMARK  status: ('A' for Active; 'I' for Inactive)
REMARK    1  A    between atoms: C1_1  and  C2_2 
REMARK    2  A    between atoms: C7_7  and  C8_8 
REMARK    3  A    between atoms: C8_8  and  C9_9 
ROOT
ATOM      1  C2  <0> d          -2.906   0.404   1.210  0.00  0.00    -0.055 A 
ATOM      2  C3  <0> d          -3.945  -0.508   1.210  0.00  0.00    -0.077 A 
ATOM      3  C4  <0> d          -4.539  -0.879   0.019  0.00  0.00    -0.082 A 
ATOM      4  C5  <0> d          -4.094  -0.338  -1.173  0.00  0.00    -0.082 A 
ATOM      5  C6  <0> d          -3.059   0.578  -1.173  0.00  0.00    -0.076 A 
ATOM      6  C7  <0> d          -2.462   0.945   0.019  0.00  0.00    -0.042 A 
ATOM      7  H4  <0> d          -4.293  -0.931   2.142  0.00  0.00     0.084 H 
ATOM      8  H5  <0> d          -5.351  -1.592   0.019  0.00  0.00     0.083 H 
ATOM      9  H6  <0> d          -4.559  -0.628  -2.104  0.00  0.00     0.083 H 
ATOM     10  H7  <0> d          -2.715   1.004  -2.103  0.00  0.00     0.084 H 
ENDROOT
BRANCH   6  11
ATOM     11  C8  <0> d          -1.329   1.940   0.019  0.00  0.00     0.040 C 
ATOM     12  H8  <0> d          -1.391   2.561   0.913  0.00  0.00     0.056 H 
ATOM     13  H9  <0> d          -1.400   2.570  -0.867  0.00  0.00     0.056 H 
BRANCH  11  14
ATOM     14  C9  <0> d          -0.014   1.204   0.009  0.00  0.00     0.176 C 
ATOM     15  O1  <0> d           0.002  -0.004   0.002  0.00  0.00    -0.648 OA
ATOM     16  O2  <0> d           1.139   1.891   0.001  0.00  0.00    -0.648 OA
ENDBRANCH  11  14
ENDBRANCH   6  11
BRANCH   1  17
ATOM     17  C1  <0> d          -2.259   0.809   2.510  0.00  0.00    -0.051 C 
ATOM     18  H1  <0> d          -2.778   1.675   2.920  0.00  0.00     0.033 H 
ATOM     19  H2  <0> d          -2.316  -0.018   3.217  0.00  0.00     0.033 H 
ATOM     20  H3  <0> d          -1.214   1.063   2.332  0.00  0.00     0.033 H 
ENDBRANCH   1  17
TORSDOF 3
