REMARK  2 active torsions:
REMARK  status: ('A' for Active; 'I' for Inactive)
REMARK    1  A    between atoms: C1_1  and  C2_2 
REMARK    2  A    between atoms: C2_2  and  C3_3 
ROOT
ATOM      1  C3  <0> d          -0.018   1.461   0.010  0.00  0.00    -0.031 A 
ATOM      2  C4  <0> d           1.260   1.871   0.000  0.00  0.00    -0.016 A 
ATOM      3  N1  <0> d           2.097   0.788  -0.014  0.00  0.00    -0.365 N 
ATOM      4  H1  <0> d           3.066   0.833  -0.023  0.00  0.00     0.165 HD
ATOM      5  C5  <0> d           1.359  -0.374  -0.013  0.00  0.00     0.042 A 
ATOM      6  C6  <0> d           0.002  -0.004   0.002  0.00  0.00    -0.002 A 
ATOM      7  C7  <0> d          -0.988  -0.988   0.007  0.00  0.00    -0.070 A 
ATOM      8  C8  <0> d          -0.633  -2.308  -0.003  0.00  0.00    -0.082 A 
ATOM      9  C9  <0> d           0.704  -2.678  -0.018  0.00  0.00    -0.081 A 
ATOM     10  C10 <0> d           1.698  -1.723  -0.023  0.00  0.00    -0.056 A 
ATOM     11  H7  <0> d           1.581   2.902   0.002  0.00  0.00     0.112 H 
ATOM     12  H8  <0> d          -2.031  -0.707   0.018  0.00  0.00     0.084 H 
ATOM     13  H9  <0> d          -1.400  -3.068   0.001  0.00  0.00     0.083 H 
ATOM     14  H10 <0> d           0.969  -3.725  -0.026  0.00  0.00     0.083 H 
ATOM     15  H11 <0> d           2.736  -2.022  -0.034  0.00  0.00     0.086 H 
ENDROOT
BRANCH   1  16
ATOM     16  C2  <0> d          -1.241   2.341   0.021  0.00  0.00    -0.042 C 
ATOM     17  H5  <0> d          -0.995   3.311  -0.409  0.00  0.00     0.039 H 
ATOM     18  H6  <0> d          -2.031   1.872  -0.567  0.00  0.00     0.039 H 
BRANCH  16  19
ATOM     19  C1  <0> d          -1.722   2.528   1.461  0.00  0.00    -0.073 C 
ATOM     20  H2  <0> d          -1.968   1.558   1.892  0.00  0.00     0.028 H 
ATOM     21  H3  <0> d          -0.932   2.997   2.049  0.00  0.00     0.028 H 
ATOM     22  H4  <0> d          -2.607   3.165   1.469  0.00  0.00     0.028 H 
ENDBRANCH  16  19
ENDBRANCH   1  16
TORSDOF 2
