REMARK  1 active torsions:
REMARK  status: ('A' for Active; 'I' for Inactive)
REMARK    1  A    between atoms: C1_1  and  C2_2 
ROOT
ATOM      1  C2  <0> d          -0.718   1.572   1.248  0.00  0.00    -0.029 A 
ATOM      2  C3  <0> d          -0.859   2.904   1.484  0.00  0.00    -0.011 A 
ATOM      3  N1  <0> d          -1.504   3.314   2.607  0.00  0.00    -0.317 N 
ATOM      4  H1  <0> d          -1.633   4.388   2.807  0.00  0.00     0.170 HD
ATOM      5  C4  <0> d          -1.986   2.407   3.478  0.00  0.00     0.345 A 
ATOM      6  O1  <0> d          -2.560   2.787   4.485  0.00  0.00    -0.245 OA
ATOM      7  N2  <0> d          -1.846   1.098   3.254  0.00  0.00    -0.206 NA
ATOM      8  C5  <0> d          -1.232   0.660   2.175  0.00  0.00     0.015 A 
ATOM      9  H5  <0> d          -0.466   3.627   0.785  0.00  0.00     0.112 H 
ATOM     10  H6  <0> d          -1.125  -0.402   2.006  0.00  0.00     0.115 H 
ENDROOT
BRANCH   1  11
ATOM     11  C1  <0> d          -0.013   1.086   0.008  0.00  0.00    -0.049 C 
ATOM     12  H2  <0> d           0.316   1.949  -0.589  0.00  0.00     0.033 H 
ATOM     13  H3  <0> d          -0.701   0.469  -0.588  0.00  0.00     0.033 H 
ATOM     14  H4  <0> d           0.863   0.485   0.296  0.00  0.00     0.033 H 
ENDBRANCH   1  11
TORSDOF 1
