REMARK  0 active torsions:
REMARK  status: ('A' for Active; 'I' for Inactive)
ROOT
ATOM      1  C1  <0> d           1.134   3.175   0.008  0.00  0.00    -0.082 A 
ATOM      2  C2  <0> d           1.171   1.787   0.001  0.00  0.00    -0.082 A 
ATOM      3  C3  <0> d          -0.013   1.076   0.008  0.00  0.00    -0.066 A 
ATOM      4  C4  <0> d          -1.213   1.754   0.017  0.00  0.00     0.015 A 
ATOM      5  C5  <0> d          -1.278   3.164   0.032  0.00  0.00    -0.019 A 
ATOM      6  C6  <0> d          -0.043   3.855   0.023  0.00  0.00    -0.072 A 
ATOM      7  C7  <0> d          -2.627   3.709   0.048  0.00  0.00    -0.065 A 
ATOM      8  C8  <0> d          -3.674   2.871   0.035  0.00  0.00    -0.043 A 
ATOM      9  S1  <0> d          -2.916   1.258   0.023  0.00  0.00    -0.101 SA
ATOM     10  H1  <0> d           2.062   3.728   0.002  0.00  0.00     0.083 H 
ATOM     11  H2  <0> d           2.118   1.268  -0.012  0.00  0.00     0.083 H 
ATOM     12  H3  <0> d           0.002  -0.004   0.002  0.00  0.00     0.085 H 
ATOM     13  H4  <0> d          -0.036   4.935   0.029  0.00  0.00     0.084 H 
ATOM     14  H5  <0> d          -2.784   4.778   0.055  0.00  0.00     0.085 H 
ATOM     15  H6  <0> d          -4.726   3.116   0.041  0.00  0.00     0.095 H 
ENDROOT
TORSDOF 0
