REMARK  4 active torsions:
REMARK  status: ('A' for Active; 'I' for Inactive)
REMARK    1  A    between atoms: C1_1  and  C2_2 
REMARK    2  A    between atoms: C4_4  and  C6_7 
REMARK    3  A    between atoms: C6_7  and  O3_9 
REMARK    4  A    between atoms: O3_9  and  C7_10 
ROOT
ATOM      1  C2  <0> d           0.002  -0.004   0.002  0.00  0.00     0.049 A 
ATOM      2  C3  <0> d          -1.080  -0.796   0.003  0.00  0.00    -0.037 A 
ATOM      3  C4  <0> d          -0.571  -2.176  -0.007  0.00  0.00     0.064 A 
ATOM      4  C5  <0> d           0.789  -2.065  -0.013  0.00  0.00     0.035 A 
ATOM      5  O1  <0> d           1.106  -0.767  -0.013  0.00  0.00    -0.326 OA
ATOM      6  H4  <0> d          -2.115  -0.485   0.010  0.00  0.00     0.088 H 
ATOM      7  H5  <0> d           1.490  -2.887  -0.020  0.00  0.00     0.125 H 
ENDROOT
BRANCH   3   8
ATOM      8  C6  <0> d          -1.363  -3.417  -0.010  0.00  0.00     0.294 C 
ATOM      9  O2  <0> d          -2.578  -3.363  -0.004  0.00  0.00    -0.259 OA
BRANCH   8  10
ATOM     10  O3  <0> d          -0.742  -4.613  -0.019  0.00  0.00    -0.322 OA
BRANCH  10  11
ATOM     11  C7  <0> d          -1.573  -5.776  -0.022  0.00  0.00     0.013 C 
ATOM     12  H6  <0> d          -2.206  -5.768  -0.909  0.00  0.00     0.067 H 
ATOM     13  H7  <0> d          -0.948  -6.669  -0.030  0.00  0.00     0.067 H 
ATOM     14  H8  <0> d          -2.198  -5.778   0.871  0.00  0.00     0.067 H 
ENDBRANCH  10  11
ENDBRANCH   8  10
ENDBRANCH   3   8
BRANCH   1  15
ATOM     15  C1  <0> d          -0.018   1.503   0.010  0.00  0.00    -0.031 C 
ATOM     16  H1  <0> d           1.004   1.880   0.003  0.00  0.00     0.036 H 
ATOM     17  H2  <0> d          -0.545   1.864  -0.873  0.00  0.00     0.036 H 
ATOM     18  H3  <0> d          -0.529   1.854   0.907  0.00  0.00     0.036 H 
ENDBRANCH   1  15
TORSDOF 4
