REMARK  3 active torsions:
REMARK  status: ('A' for Active; 'I' for Inactive)
REMARK    1  A    between atoms: C1_1  and  C2_2 
REMARK    2  A    between atoms: C2_2  and  C3_4 
REMARK    3  A    between atoms: C2_2  and  O2_9 
ROOT
ATOM      1  C3  <0> d           1.057   1.892   0.002  0.00  0.00     0.080 A 
ATOM      2  C4  <0> d          -0.013   1.076   0.008  0.00  0.00    -0.050 A 
ATOM      3  C5  <0> d          -1.159   1.903   0.017  0.00  0.00    -0.059 A 
ATOM      4  C6  <0> d          -0.722   3.175   0.026  0.00  0.00     0.019 A 
ATOM      5  O1  <0> d           0.621   3.162   0.013  0.00  0.00    -0.324 OA
ATOM      6  H5  <0> d           0.002  -0.004   0.002  0.00  0.00     0.087 H 
ATOM      7  H6  <0> d          -2.189   1.576   0.020  0.00  0.00     0.086 H 
ATOM      8  H7  <0> d          -1.345   4.057   0.037  0.00  0.00     0.123 H 
ENDROOT
BRANCH   1   9
ATOM      9  C2  <0> d           2.499   1.455  -0.015  0.00  0.00     0.078 C 
ATOM     10  H1  <0> d           2.572   0.461  -0.456  0.00  0.00     0.093 H 
BRANCH   9  11
ATOM     11  C1  <0> d           3.038   1.419   1.417  0.00  0.00    -0.047 C 
ATOM     12  H2  <0> d           4.081   1.103   1.405  0.00  0.00     0.031 H 
ATOM     13  H3  <0> d           2.964   2.413   1.858  0.00  0.00     0.031 H 
ATOM     14  H4  <0> d           2.452   0.716   2.008  0.00  0.00     0.031 H 
ENDBRANCH   9  11
BRANCH   9  15
ATOM     15  O2  <0> d           3.267   2.378  -0.790  0.00  0.00    -0.389 OA
ATOM     16  H8  <0> d           4.207   2.159  -0.844  0.00  0.00     0.210 HD
ENDBRANCH   9  15
ENDBRANCH   1   9
TORSDOF 3
