REMARK  2 active torsions:
REMARK  status: ('A' for Active; 'I' for Inactive)
REMARK    1  A    between atoms: C1_1  and  C2_2 
REMARK    2  A    between atoms: N1_6  and  C6_7 
ROOT
ATOM      1  C2  <0> d          -2.028   1.809   1.321  0.00  0.00     0.008 A 
ATOM      2  C3  <0> d          -2.295   2.225   2.581  0.00  0.00    -0.059 A 
ATOM      3  C4  <0> d          -1.088   2.246   3.290  0.00  0.00    -0.045 A 
ATOM      4  C5  <0> d          -0.101   1.828   2.423  0.00  0.00     0.116 A 
ATOM      5  N1  <0> d          -0.698   1.558   1.213  0.00  0.00    -0.347 N 
ATOM      6  C7  <0> d           1.292   1.696   2.726  0.00  0.00     0.117 C 
ATOM      7  N2  <0> d           2.398   1.593   2.967  0.00  0.00    -0.190 NA
ATOM      8  H4  <0> d          -3.265   2.497   2.970  0.00  0.00     0.086 H 
ATOM      9  H5  <0> d          -0.955   2.535   4.322  0.00  0.00     0.088 H 
ENDROOT
BRANCH   5  10
ATOM     10  C6  <0> d          -0.013   1.086   0.008  0.00  0.00    -0.013 C 
ATOM     11  H6  <0> d           0.002  -0.004   0.002  0.00  0.00     0.057 H 
ATOM     12  H7  <0> d           1.010   1.463   0.000  0.00  0.00     0.057 H 
ATOM     13  H8  <0> d          -0.540   1.447  -0.875  0.00  0.00     0.057 H 
ENDBRANCH   5  10
BRANCH   1  14
ATOM     14  C1  <0> d          -3.043   1.646   0.219  0.00  0.00    -0.037 C 
ATOM     15  H1  <0> d          -3.447   0.634   0.243  0.00  0.00     0.035 H 
ATOM     16  H2  <0> d          -3.851   2.364   0.360  0.00  0.00     0.035 H 
ATOM     17  H3  <0> d          -2.565   1.823  -0.745  0.00  0.00     0.035 H 
ENDBRANCH   1  14
TORSDOF 2
