REMARK  3 active torsions:
REMARK  status: ('A' for Active; 'I' for Inactive)
REMARK    1  A    between atoms: C1_1  and  N1_2 
REMARK       I    between atoms: N1_2  and  C2_3 
REMARK    2  A    between atoms: C2_3  and  C3_5 
REMARK    3  A    between atoms: C4_6  and  N2_10 
ROOT
ATOM      1  C3  <0> d           0.624  -2.090   0.996  0.00  0.00     0.098 A 
ATOM      2  C4  <0> d           1.181  -2.967   1.926  0.00  0.00     0.049 A 
ATOM      3  C5  <0> d           1.034  -4.310   1.637  0.00  0.00    -0.050 A 
ATOM      4  C6  <0> d           0.382  -4.672   0.508  0.00  0.00    -0.042 A 
ATOM      5  S1  <0> d          -0.065  -3.217  -0.202  0.00  0.00    -0.094 SA
ATOM      6  H5  <0> d           1.435  -5.061   2.302  0.00  0.00     0.087 H 
ATOM      7  H6  <0> d           0.189  -5.671   0.146  0.00  0.00     0.095 H 
ENDROOT
BRANCH   1   8
ATOM      8  C2  <0> d           0.604  -0.675   1.004  0.00  0.00     0.260 C 
ATOM      9  N1  <0> d           0.002  -0.004   0.002  0.00  0.00    -0.361 N 
ATOM     10  H4  <0> d          -0.418  -0.491  -0.724  0.00  0.00     0.162 HD
ATOM     11  O1  <0> d           1.132  -0.064   1.915  0.00  0.00    -0.267 OA
BRANCH   9  12
ATOM     12  C1  <0> d          -0.018   1.461   0.010  0.00  0.00    -0.018 C 
ATOM     13  H1  <0> d           1.005   1.838   0.002  0.00  0.00     0.056 H 
ATOM     14  H2  <0> d          -0.545   1.822  -0.873  0.00  0.00     0.056 H 
ATOM     15  H3  <0> d          -0.528   1.812   0.907  0.00  0.00     0.056 H 
ENDBRANCH   9  12
ENDBRANCH   1   8
BRANCH   2  16
ATOM     16  N2  <0> d           1.840  -2.520   3.068  0.00  0.00    -0.398 N 
ATOM     17  H7  <0> d           1.924  -1.569   3.239  0.00  0.00     0.156 HD
ATOM     18  H8  <0> d           2.215  -3.160   3.694  0.00  0.00     0.156 HD
ENDBRANCH   2  16
TORSDOF 3
