REMARK  5 active torsions:
REMARK  status: ('A' for Active; 'I' for Inactive)
REMARK    1  A    between atoms: C1_1  and  C2_2 
REMARK    2  A    between atoms: C2_2  and  C3_3 
REMARK    3  A    between atoms: C3_3  and  C4_4 
REMARK    4  A    between atoms: C4_4  and  N1_5 
REMARK    5  A    between atoms: C5_7  and  N5_10 
ROOT
ATOM      1  C4  <0> d          -0.729   1.579   1.267  0.00  0.00     0.037 C 
ATOM      2  H8  <0> d          -0.744   2.669   1.273  0.00  0.00     0.070 H 
ATOM      3  H9  <0> d          -1.751   1.202   1.275  0.00  0.00     0.070 H 
ENDROOT
BRANCH   1   4
ATOM      4  C3  <0> d          -0.013   1.086   0.008  0.00  0.00    -0.047 C 
ATOM      5  H6  <0> d           0.002  -0.004   0.002  0.00  0.00     0.035 H 
ATOM      6  H7  <0> d           1.010   1.463   0.000  0.00  0.00     0.035 H 
BRANCH   4   7
ATOM      7  C2  <0> d          -0.753   1.593  -1.232  0.00  0.00    -0.067 C 
ATOM      8  H4  <0> d          -1.775   1.215  -1.224  0.00  0.00     0.032 H 
ATOM      9  H5  <0> d          -0.767   2.683  -1.226  0.00  0.00     0.032 H 
BRANCH   7  10
ATOM     10  C1  <0> d          -0.037   1.099  -2.490  0.00  0.00    -0.076 C 
ATOM     11  H1  <0> d          -0.564   1.460  -3.373  0.00  0.00     0.027 H 
ATOM     12  H2  <0> d           0.986   1.476  -2.498  0.00  0.00     0.027 H 
ATOM     13  H3  <0> d          -0.022   0.009  -2.496  0.00  0.00     0.027 H 
ENDBRANCH   7  10
ENDBRANCH   4   7
ENDBRANCH   1   4
BRANCH   1  14
ATOM     14  N1  <0> d          -0.020   1.094   2.454  0.00  0.00    -0.154 N 
ATOM     15  N4  <0> d          -0.240  -0.012   3.079  0.00  0.00    -0.031 NA
ATOM     16  N3  <0> d           0.569  -0.115   4.072  0.00  0.00     0.065 NA
ATOM     17  C5  <0> d           1.358   0.959   4.128  0.00  0.00     0.758 A 
ATOM     18  N2  <0> d           1.023   1.748   3.129  0.00  0.00     0.041 NA
BRANCH  17  19
ATOM     19  N5  <0> d           2.356   1.203   5.074  0.00  0.00    -0.228 N 
ATOM     20  H10 <0> d           2.878   2.019   5.030  0.00  0.00     0.174 HD
ATOM     21  H11 <0> d           2.527   0.555   5.776  0.00  0.00     0.174 HD
ENDBRANCH  17  19
ENDBRANCH   1  14
TORSDOF 5
