REMARK  4 active torsions:
REMARK  status: ('A' for Active; 'I' for Inactive)
REMARK    1  A    between atoms: C1_1  and  C2_2 
REMARK    2  A    between atoms: C2_2  and  C3_3 
REMARK    3  A    between atoms: C3_3  and  C4_4 
REMARK    4  A    between atoms: C4_4  and  N1_5 
ROOT
ATOM      1  C4  <0> d          -0.013   1.086   0.008  0.00  0.00    -0.002 C 
ATOM      2  H8  <0> d           0.002  -0.004   0.002  0.00  0.00     0.064 H 
ATOM      3  H9  <0> d           1.010   1.463   0.000  0.00  0.00     0.064 H 
ENDROOT
BRANCH   1   4
ATOM      4  C3  <0> d          -0.729   1.579   1.267  0.00  0.00    -0.050 C 
ATOM      5  H6  <0> d          -0.744   2.669   1.273  0.00  0.00     0.035 H 
ATOM      6  H7  <0> d          -1.751   1.202   1.275  0.00  0.00     0.035 H 
BRANCH   4   7
ATOM      7  C2  <0> d           0.011   1.072   2.506  0.00  0.00    -0.067 C 
ATOM      8  H4  <0> d           0.026  -0.018   2.500  0.00  0.00     0.032 H 
ATOM      9  H5  <0> d           1.034   1.450   2.499  0.00  0.00     0.032 H 
BRANCH   7  10
ATOM     10  C1  <0> d          -0.705   1.566   3.765  0.00  0.00    -0.076 C 
ATOM     11  H1  <0> d          -0.720   2.656   3.771  0.00  0.00     0.027 H 
ATOM     12  H2  <0> d          -1.728   1.188   3.773  0.00  0.00     0.027 H 
ATOM     13  H3  <0> d          -0.178   1.205   4.648  0.00  0.00     0.027 H 
ENDBRANCH   7  10
ENDBRANCH   4   7
ENDBRANCH   1   4
BRANCH   1  14
ATOM     14  N1  <0> d          -0.721   1.571  -1.179  0.00  0.00    -0.352 N 
ATOM     15  C8  <0> d          -0.459   2.737  -1.795  0.00  0.00     0.219 C 
ATOM     16  C7  <0> d          -1.386   2.921  -2.976  0.00  0.00     0.011 C 
ATOM     17  O1  <0> d           0.396   3.526  -1.453  0.00  0.00    -0.273 OA
ATOM     18  C6  <0> d          -2.518   1.895  -2.734  0.00  0.00    -0.042 C 
ATOM     19  H14 <0> d          -1.787   3.934  -2.993  0.00  0.00     0.047 H 
ATOM     20  H15 <0> d          -0.864   2.703  -3.908  0.00  0.00     0.047 H 
ATOM     21  C5  <0> d          -1.804   0.844  -1.852  0.00  0.00    -0.002 C 
ATOM     22  H12 <0> d          -3.352   2.353  -2.204  0.00  0.00     0.036 H 
ATOM     23  H13 <0> d          -2.850   1.452  -3.673  0.00  0.00     0.036 H 
ATOM     24  H10 <0> d          -1.395   0.045  -2.470  0.00  0.00     0.064 H 
ATOM     25  H11 <0> d          -2.498   0.436  -1.117  0.00  0.00     0.064 H 
ENDBRANCH   1  14
TORSDOF 4
