REMARK  2 active torsions:
REMARK  status: ('A' for Active; 'I' for Inactive)
REMARK    1  A    between atoms: C2_2  and  N4_12 
REMARK    2  A    between atoms: C6_6  and  N1_7 
ROOT
ATOM      1  C1  <0> d          -3.463   2.636   0.048  0.00  0.00    -0.032 A 
ATOM      2  C2  <0> d          -3.026   3.960   0.051  0.00  0.00     0.030 A 
ATOM      3  C3  <0> d          -1.675   4.254   0.041  0.00  0.00    -0.030 A 
ATOM      4  C4  <0> d          -0.739   3.223   0.026  0.00  0.00     0.066 A 
ATOM      5  C5  <0> d          -1.173   1.885   0.017  0.00  0.00     0.037 A 
ATOM      6  C6  <0> d          -2.552   1.600   0.034  0.00  0.00     0.042 A 
ATOM      7  C7  <0> d          -0.013   1.076   0.008  0.00  0.00     0.036 A 
ATOM      8  N2  <0> d           1.034   1.849   0.002  0.00  0.00    -0.186 NA
ATOM      9  N3  <0> d           0.632   3.190   0.013  0.00  0.00    -0.278 N 
ATOM     10  H1  <0> d           1.239   3.985   0.012  0.00  0.00     0.189 HD
ATOM     11  H2  <0> d          -4.521   2.420   0.056  0.00  0.00     0.090 H 
ATOM     12  H3  <0> d          -1.345   5.283   0.043  0.00  0.00     0.090 H 
ATOM     13  H6  <0> d           0.002  -0.004   0.002  0.00  0.00     0.118 H 
ENDROOT
BRANCH   2  14
ATOM     14  N4  <0> d          -3.961   4.998   0.066  0.00  0.00    -0.399 N 
ATOM     15  H7  <0> d          -3.661   5.920   0.068  0.00  0.00     0.156 HD
ATOM     16  H8  <0> d          -4.909   4.796   0.073  0.00  0.00     0.156 HD
ENDBRANCH   2  14
BRANCH   6  17
ATOM     17  N1  <0> d          -2.994   0.278   0.031  0.00  0.00    -0.398 N 
ATOM     18  H4  <0> d          -3.944   0.085   0.038  0.00  0.00     0.156 HD
ATOM     19  H5  <0> d          -2.351  -0.448   0.021  0.00  0.00     0.156 HD
ENDBRANCH   6  17
TORSDOF 2
