REMARK  8 active torsions:
REMARK  status: ('A' for Active; 'I' for Inactive)
REMARK    1  A    between atoms: C1_1  and  C2_2 
REMARK    2  A    between atoms: C2_2  and  C3_3 
REMARK    3  A    between atoms: C2_2  and  C4_4 
REMARK    4  A    between atoms: C4_4  and  C5_6 
REMARK    5  A    between atoms: C4_4  and  O2_11 
REMARK    6  A    between atoms: C5_6  and  C6_8 
REMARK    7  A    between atoms: C6_8  and  C7_9 
REMARK    8  A    between atoms: C6_8  and  C8_10 
ROOT
ATOM      1  C4  <0> d           0.073   0.884   2.243  0.00  0.00     0.096 C 
ATOM      2  H1  <0> d           1.009   1.218   2.132  0.00  0.00     0.095 H 
ENDROOT
BRANCH   1   3
ATOM      3  C2  <0> d          -0.822   1.512   1.173  0.00  0.00    -0.029 C 
ATOM      4  H5  <0> d          -1.857   1.220   1.348  0.00  0.00     0.043 H 
BRANCH   3   5
ATOM      5  C1  <0> d          -0.382   1.025  -0.210  0.00  0.00    -0.070 C 
ATOM      6  H2  <0> d          -0.467  -0.061  -0.256  0.00  0.00     0.028 H 
ATOM      7  H3  <0> d           0.653   1.317  -0.385  0.00  0.00     0.028 H 
ATOM      8  H4  <0> d          -1.020   1.472  -0.972  0.00  0.00     0.028 H 
ENDBRANCH   3   5
BRANCH   3   9
ATOM      9  C3  <0> d          -0.703   3.036   1.238  0.00  0.00    -0.070 C 
ATOM     10  H6  <0> d          -1.343   3.483   0.477  0.00  0.00     0.028 H 
ATOM     11  H7  <0> d          -1.014   3.382   2.224  0.00  0.00     0.028 H 
ATOM     12  H8  <0> d           0.332   3.328   1.060  0.00  0.00     0.028 H 
ENDBRANCH   3   9
ENDBRANCH   1   3
BRANCH   1  13
ATOM     13  C5  <0> d          -0.437   1.262   3.610  0.00  0.00     0.159 C 
ATOM     14  O1  <0> d           0.035   2.211   4.189  0.00  0.00    -0.295 OA
BRANCH  13  15
ATOM     15  C6  <0> d          -1.536   0.457   4.253  0.00  0.00    -0.001 C 
ATOM     16  H9  <0> d          -1.476  -0.493   3.947  0.00  0.00     0.050 H 
BRANCH  15  17
ATOM     17  C7  <0> d          -1.386   0.513   5.775  0.00  0.00    -0.067 C 
ATOM     18  H10 <0> d          -1.452   1.549   6.108  0.00  0.00     0.028 H 
ATOM     19  H11 <0> d          -2.181  -0.069   6.240  0.00  0.00     0.028 H 
ATOM     20  H12 <0> d          -0.419   0.100   6.060  0.00  0.00     0.028 H 
ENDBRANCH  15  17
BRANCH  15  21
ATOM     21  C8  <0> d          -2.894   1.036   3.853  0.00  0.00    -0.067 C 
ATOM     22  H13 <0> d          -2.960   2.072   4.186  0.00  0.00     0.028 H 
ATOM     23  H14 <0> d          -3.001   0.996   2.769  0.00  0.00     0.028 H 
ATOM     24  H15 <0> d          -3.690   0.454   4.318  0.00  0.00     0.028 H 
ENDBRANCH  15  21
ENDBRANCH  13  15
ENDBRANCH   1  13
BRANCH   1  25
ATOM     25  O2  <0> d           0.055  -0.538   2.105  0.00  0.00    -0.388 OA
ATOM     26  H16 <0> d          -0.823  -0.932   2.200  0.00  0.00     0.210 HD
ENDBRANCH   1  25
TORSDOF 8
