REMARK  5 active torsions:
REMARK  status: ('A' for Active; 'I' for Inactive)
REMARK    1  A    between atoms: C1_1  and  C2_2 
REMARK    2  A    between atoms: C2_2  and  C3_3 
REMARK    3  A    between atoms: C3_3  and  C4_5 
REMARK    4  A    between atoms: C3_3  and  C5_6 
REMARK    5  A    between atoms: C8_9  and  N1_12 
ROOT
ATOM      1  C5  <0> d          -0.074   0.981   2.485  0.00  0.00    -0.054 A 
ATOM      2  C6  <0> d           1.264   1.223   2.738  0.00  0.00    -0.074 A 
ATOM      3  C7  <0> d           1.866   0.680   3.856  0.00  0.00    -0.057 A 
ATOM      4  C8  <0> d           1.129  -0.119   4.721  0.00  0.00     0.025 A 
ATOM      5  C9  <0> d          -0.213  -0.365   4.461  0.00  0.00    -0.057 A 
ATOM      6  C10 <0> d          -0.810   0.185   3.344  0.00  0.00    -0.074 A 
ATOM      7  H10 <0> d           1.837   1.840   2.063  0.00  0.00     0.084 H 
ATOM      8  H11 <0> d           2.910   0.874   4.056  0.00  0.00     0.086 H 
ATOM      9  H12 <0> d          -0.789  -0.986   5.131  0.00  0.00     0.086 H 
ATOM     10  H13 <0> d          -1.854  -0.006   3.140  0.00  0.00     0.084 H 
ENDROOT
BRANCH   1  11
ATOM     11  C3  <0> d          -0.729   1.579   1.267  0.00  0.00    -0.032 C 
ATOM     12  H1  <0> d          -1.776   1.277   1.232  0.00  0.00     0.046 H 
BRANCH  11  13
ATOM     13  C2  <0> d          -0.013   1.086   0.008  0.00  0.00    -0.062 C 
ATOM     14  H5  <0> d           0.002  -0.004   0.002  0.00  0.00     0.033 H 
ATOM     15  H6  <0> d           1.010   1.463   0.000  0.00  0.00     0.033 H 
BRANCH  13  16
ATOM     16  C1  <0> d          -0.753   1.593  -1.232  0.00  0.00    -0.076 C 
ATOM     17  H2  <0> d          -1.775   1.215  -1.224  0.00  0.00     0.027 H 
ATOM     18  H3  <0> d          -0.767   2.683  -1.226  0.00  0.00     0.027 H 
ATOM     19  H4  <0> d          -0.242   1.241  -2.128  0.00  0.00     0.027 H 
ENDBRANCH  13  16
ENDBRANCH  11  13
BRANCH  11  20
ATOM     20  C4  <0> d          -0.641   3.105   1.339  0.00  0.00    -0.069 C 
ATOM     21  H7  <0> d          -1.151   3.457   2.235  0.00  0.00     0.028 H 
ATOM     22  H8  <0> d           0.406   3.407   1.374  0.00  0.00     0.028 H 
ATOM     23  H9  <0> d          -1.115   3.538   0.458  0.00  0.00     0.028 H 
ENDBRANCH  11  20
ENDBRANCH   1  11
BRANCH   4  24
ATOM     24  N1  <0> d           1.736  -0.674   5.850  0.00  0.00    -0.399 N 
ATOM     25  H14 <0> d           1.221  -1.232   6.453  0.00  0.00     0.156 HD
ATOM     26  H15 <0> d           2.674  -0.502   6.030  0.00  0.00     0.156 HD
ENDBRANCH   4  24
TORSDOF 5
