REMARK  2 active torsions:
REMARK  status: ('A' for Active; 'I' for Inactive)
REMARK    1  A    between atoms: C1_1  and  C2_2 
REMARK    2  A    between atoms: C3_3  and  N1_4 
ROOT
ATOM      1  N1  <0> d           0.036  -2.533  -0.012  0.00  0.00    -0.169 N 
ATOM      2  C4  <0> d           1.151  -3.341  -0.033  0.00  0.00     0.100 A 
ATOM      3  C5  <0> d           2.520  -3.099  -0.039  0.00  0.00    -0.052 A 
ATOM      4  C6  <0> d           3.400  -4.157  -0.053  0.00  0.00    -0.081 A 
ATOM      5  C7  <0> d           2.929  -5.464  -0.056  0.00  0.00    -0.081 A 
ATOM      6  C8  <0> d           1.590  -5.723  -0.044  0.00  0.00    -0.051 A 
ATOM      7  C9  <0> d           0.674  -4.663  -0.029  0.00  0.00     0.110 A 
ATOM      8  N2  <0> d          -0.679  -4.610  -0.016  0.00  0.00    -0.129 NA
ATOM      9  N3  <0> d          -1.076  -3.387  -0.006  0.00  0.00    -0.052 NA
ATOM     10  H4  <0> d           2.891  -2.085  -0.037  0.00  0.00     0.087 H 
ATOM     11  H5  <0> d           4.464  -3.971  -0.062  0.00  0.00     0.083 H 
ATOM     12  H6  <0> d           3.632  -6.285  -0.067  0.00  0.00     0.083 H 
ATOM     13  H7  <0> d           1.237  -6.744  -0.046  0.00  0.00     0.087 H 
ENDROOT
BRANCH   1  14
ATOM     14  C3  <0> d           0.018  -1.178  -0.004  0.00  0.00     0.037 C 
ATOM     15  C2  <0> d           0.002  -0.004   0.002  0.00  0.00    -0.086 C 
BRANCH  15  16
ATOM     16  C1  <0> d          -0.018   1.468   0.010  0.00  0.00    -0.019 C 
ATOM     17  H1  <0> d           1.005   1.845   0.002  0.00  0.00     0.044 H 
ATOM     18  H2  <0> d          -0.545   1.829  -0.873  0.00  0.00     0.044 H 
ATOM     19  H3  <0> d          -0.528   1.819   0.907  0.00  0.00     0.044 H 
ENDBRANCH  15  16
ENDBRANCH   1  14
TORSDOF 2
