REMARK  5 active torsions:
REMARK  status: ('A' for Active; 'I' for Inactive)
REMARK    1  A    between atoms: C1_1  and  C2_2 
REMARK    2  A    between atoms: C2_2  and  C3_3 
REMARK    3  A    between atoms: C2_2  and  C4_4 
REMARK    4  A    between atoms: C2_2  and  C5_5 
REMARK    5  A    between atoms: C10_10  and  N1_11 
ROOT
ATOM      1  C5  <0> d           0.961   1.791  -0.265  0.00  0.00    -0.024 A 
ATOM      2  C6  <0> d           1.001   3.121   0.105  0.00  0.00    -0.074 A 
ATOM      3  C7  <0> d          -0.167   3.786   0.430  0.00  0.00    -0.082 A 
ATOM      4  C8  <0> d          -1.380   3.122   0.386  0.00  0.00    -0.081 A 
ATOM      5  C9  <0> d          -1.428   1.793   0.012  0.00  0.00    -0.057 A 
ATOM      6  C10 <0> d          -0.255   1.121  -0.310  0.00  0.00     0.032 A 
ATOM      7  H10 <0> d           1.946   3.643   0.140  0.00  0.00     0.084 H 
ATOM      8  H11 <0> d          -0.133   4.826   0.719  0.00  0.00     0.083 H 
ATOM      9  H12 <0> d          -2.290   3.643   0.640  0.00  0.00     0.083 H 
ATOM     10  H13 <0> d          -2.375   1.276  -0.025  0.00  0.00     0.086 H 
ENDROOT
BRANCH   1  11
ATOM     11  C2  <0> d           2.234   1.068  -0.620  0.00  0.00    -0.022 C 
BRANCH  11  12
ATOM     12  C1  <0> d           3.410   2.045  -0.557  0.00  0.00    -0.066 C 
ATOM     13  H1  <0> d           3.491   2.451   0.451  0.00  0.00     0.028 H 
ATOM     14  H2  <0> d           4.331   1.522  -0.814  0.00  0.00     0.028 H 
ATOM     15  H3  <0> d           3.244   2.858  -1.265  0.00  0.00     0.028 H 
ENDBRANCH  11  12
BRANCH  11  16
ATOM     16  C3  <0> d           2.466  -0.073   0.373  0.00  0.00    -0.066 C 
ATOM     17  H4  <0> d           1.610  -0.747   0.358  0.00  0.00     0.028 H 
ATOM     18  H5  <0> d           3.365  -0.622   0.092  0.00  0.00     0.028 H 
ATOM     19  H6  <0> d           2.589   0.337   1.375  0.00  0.00     0.028 H 
ENDBRANCH  11  16
BRANCH  11  20
ATOM     20  C4  <0> d           2.119   0.497  -2.035  0.00  0.00    -0.066 C 
ATOM     21  H7  <0> d           1.859   1.296  -2.729  0.00  0.00     0.028 H 
ATOM     22  H8  <0> d           3.073   0.058  -2.328  0.00  0.00     0.028 H 
ATOM     23  H9  <0> d           1.345  -0.269  -2.056  0.00  0.00     0.028 H 
ENDBRANCH  11  20
ENDBRANCH   1  11
BRANCH   6  24
ATOM     24  N1  <0> d          -0.300  -0.224  -0.684  0.00  0.00    -0.399 N 
ATOM     25  H14 <0> d           0.524  -0.720  -0.809  0.00  0.00     0.156 HD
ATOM     26  H15 <0> d          -1.155  -0.662  -0.818  0.00  0.00     0.156 HD
ENDBRANCH   6  24
TORSDOF 5
