REMARK  1 active torsions:
REMARK  status: ('A' for Active; 'I' for Inactive)
REMARK    1  A    between atoms: C4_6  and  C6_10 
ROOT
ATOM      1  C1  <0> d          -0.016   1.337   0.009  0.00  0.00     0.021 A 
ATOM      2  C2  <0> d           1.256   1.779  -0.000  0.00  0.00     0.021 A 
ATOM      3  N1  <0> d           2.067   0.673  -0.014  0.00  0.00    -0.247 N 
ATOM      4  C3  <0> d           1.247  -0.420  -0.012  0.00  0.00     0.166 A 
ATOM      5  N2  <0> d           0.002  -0.004   0.002  0.00  0.00    -0.239 NA
ATOM      6  C4  <0> d           2.132  -1.605  -0.027  0.00  0.00     0.105 A 
ATOM      7  C5  <0> d           3.425  -1.128  -0.037  0.00  0.00     0.015 A 
ATOM      8  N3  <0> d           3.391   0.228  -0.029  0.00  0.00    -0.303 N 
ATOM      9  H1  <0> d           4.171   0.804  -0.034  0.00  0.00     0.186 HD
ATOM     10  H2  <0> d          -0.900   1.956   0.025  0.00  0.00     0.117 H 
ATOM     11  H3  <0> d           1.577   2.811   0.002  0.00  0.00     0.117 H 
ATOM     12  H4  <0> d           4.319  -1.734  -0.049  0.00  0.00     0.115 H 
ENDROOT
BRANCH   6  13
ATOM     13  C6  <0> d           1.717  -3.005  -0.030  0.00  0.00     0.214 C 
ATOM     14  O1  <0> d           2.560  -3.894  -0.043  0.00  0.00    -0.644 OA
ATOM     15  O2  <0> d           0.526  -3.291  -0.020  0.00  0.00    -0.644 OA
ENDBRANCH   6  13
TORSDOF 1
