REMARK  6 active torsions:
REMARK  status: ('A' for Active; 'I' for Inactive)
REMARK    1  A    between atoms: C1_1  and  C2_2 
REMARK    2  A    between atoms: C2_2  and  C3_3 
REMARK    3  A    between atoms: C3_3  and  C4_4 
REMARK    4  A    between atoms: C4_4  and  C5_6 
REMARK    5  A    between atoms: C4_4  and  C6_7 
REMARK    6  A    between atoms: C6_7  and  C7_8 
ROOT
ATOM      1  C4  <0> d          -2.479   0.930   0.019  0.00  0.00    -0.049 C 
ATOM      2  H1  <0> d          -2.367   0.252  -0.827  0.00  0.00     0.040 H 
ENDROOT
BRANCH   1   3
ATOM      3  C3  <0> d          -3.811   1.673  -0.097  0.00  0.00    -0.062 C 
ATOM      4  H7  <0> d          -3.964   2.284   0.793  0.00  0.00     0.033 H 
ATOM      5  H8  <0> d          -3.795   2.313  -0.979  0.00  0.00     0.033 H 
BRANCH   3   6
ATOM      6  C2  <0> d          -4.951   0.661  -0.222  0.00  0.00    -0.068 C 
ATOM      7  H5  <0> d          -4.798   0.049  -1.111  0.00  0.00     0.032 H 
ATOM      8  H6  <0> d          -4.967   0.021   0.660  0.00  0.00     0.032 H 
BRANCH   6   9
ATOM      9  C1  <0> d          -6.283   1.404  -0.337  0.00  0.00    -0.077 C 
ATOM     10  H2  <0> d          -6.436   2.015   0.552  0.00  0.00     0.027 H 
ATOM     11  H3  <0> d          -6.267   2.044  -1.220  0.00  0.00     0.027 H 
ATOM     12  H4  <0> d          -7.095   0.683  -0.427  0.00  0.00     0.027 H 
ENDBRANCH   6   9
ENDBRANCH   3   6
ENDBRANCH   1   3
BRANCH   1  13
ATOM     13  C5  <0> d          -2.453   0.128   1.322  0.00  0.00    -0.072 C 
ATOM     14  H9  <0> d          -1.504  -0.402   1.404  0.00  0.00     0.028 H 
ATOM     15  H10 <0> d          -2.566   0.806   2.168  0.00  0.00     0.028 H 
ATOM     16  H11 <0> d          -3.272  -0.591   1.322  0.00  0.00     0.028 H 
ENDBRANCH   1  13
BRANCH   1  17
ATOM     17  C6  <0> d          -1.329   1.940   0.019  0.00  0.00     0.019 C 
ATOM     18  H12 <0> d          -1.391   2.561   0.913  0.00  0.00     0.049 H 
ATOM     19  H13 <0> d          -1.400   2.570  -0.867  0.00  0.00     0.049 H 
BRANCH  17  20
ATOM     20  C7  <0> d          -0.014   1.204   0.009  0.00  0.00     0.172 C 
ATOM     21  O1  <0> d           0.002  -0.004   0.002  0.00  0.00    -0.648 OA
ATOM     22  O2  <0> d           1.139   1.891   0.001  0.00  0.00    -0.648 OA
ENDBRANCH  17  20
ENDBRANCH   1  17
TORSDOF 6
