REMARK  3 active torsions:
REMARK  status: ('A' for Active; 'I' for Inactive)
REMARK    1  A    between atoms: C3_3  and  C4_4 
REMARK    2  A    between atoms: C3_3  and  C5_6 
REMARK    3  A    between atoms: C4_4  and  O1_5 
REMARK       I    between atoms: C5_6  and  N1_8 
ROOT
ATOM      1  C1  <0> d          -0.161   1.230   0.043  0.00  0.00    -0.046 A 
ATOM      2  C2  <0> d           0.219  -0.253   0.050  0.00  0.00    -0.046 A 
ATOM      3  C3  <0> d           1.312   0.817  -0.004  0.00  0.00     0.062 A 
ATOM      4  H1  <0> d          -0.342   1.841   0.939  0.00  0.00     0.035 H 
ATOM      5  H2  <0> d          -0.406   1.815  -0.856  0.00  0.00     0.035 H 
ATOM      6  H3  <0> d          -0.160  -0.723   0.970  0.00  0.00     0.035 H 
ATOM      7  H4  <0> d          -0.225  -0.749  -0.825  0.00  0.00     0.035 H 
ENDROOT
BRANCH   3   8
ATOM      8  C4  <0> d           2.055   1.000  -1.329  0.00  0.00     0.032 C 
ATOM      9  H5  <0> d           1.507   0.483  -2.131  0.00  0.00     0.075 H 
ATOM     10  H6  <0> d           2.126   2.072  -1.565  0.00  0.00     0.075 H 
BRANCH   8  11
ATOM     11  O1  <0> d           3.369   0.449  -1.218  0.00  0.00    -0.400 OA
ATOM     12  H7  <0> d           4.056   0.488  -2.076  0.00  0.00     0.209 HD
ENDBRANCH   8  11
ENDBRANCH   3   8
BRANCH   3  13
ATOM     13  C5  <0> d           2.135   1.034   1.239  0.00  0.00     0.226 C 
ATOM     14  O2  <0> d           2.681   0.094   1.777  0.00  0.00    -0.273 OA
ATOM     15  N1  <0> d           2.266   2.273   1.753  0.00  0.00    -0.369 N 
ATOM     16  H8  <0> d           2.867   2.432   2.660  0.00  0.00     0.159 HD
ATOM     17  H9  <0> d           1.771   3.126   1.264  0.00  0.00     0.159 HD
ENDBRANCH   3  13
TORSDOF 3
