REMARK  2 active torsions:
REMARK  status: ('A' for Active; 'I' for Inactive)
REMARK    1  A    between atoms: C1_1  and  C2_2 
REMARK    2  A    between atoms: C2_2  and  C6_9 
ROOT
ATOM      1  C2  <0> d          -0.753   1.593  -1.232  0.00  0.00     0.115 A 
ATOM      2  C3  <0> d          -0.041   1.141  -2.487  0.00  0.00     0.125 A 
ATOM      3  O1  <0> d           0.179  -0.130  -2.880  0.00  0.00    -0.193 OA
ATOM      4  C4  <0> d           0.327   2.262  -3.135  0.00  0.00     0.024 A 
ATOM      5  C5  <0> d          -0.088   3.392  -2.401  0.00  0.00     0.286 A 
ATOM      6  O2  <0> d          -0.728   3.025  -1.273  0.00  0.00    -0.300 OA
ATOM      7  O3  <0> d           0.107   4.545  -2.739  0.00  0.00    -0.260 OA
ATOM      8  H4  <0> d           0.860   2.292  -4.074  0.00  0.00     0.097 H 
ENDROOT
BRANCH   1   9
ATOM      9  C1  <0> d          -0.013   1.086   0.008  0.00  0.00    -0.042 C 
ATOM     10  H1  <0> d           0.002  -0.004   0.002  0.00  0.00     0.032 H 
ATOM     11  H2  <0> d           1.010   1.463   0.000  0.00  0.00     0.032 H 
ATOM     12  H3  <0> d          -0.523   1.437   0.905  0.00  0.00     0.032 H 
ENDBRANCH   1   9
BRANCH   1  13
ATOM     13  C6  <0> d          -2.197   1.087  -1.229  0.00  0.00    -0.042 C 
ATOM     14  H5  <0> d          -2.703   1.438  -0.331  0.00  0.00     0.032 H 
ATOM     15  H6  <0> d          -2.716   1.465  -2.110  0.00  0.00     0.032 H 
ATOM     16  H7  <0> d          -2.200  -0.003  -1.246  0.00  0.00     0.032 H 
ENDBRANCH   1  13
TORSDOF 2
