REMARK  1 active torsions:
REMARK  status: ('A' for Active; 'I' for Inactive)
REMARK    1  A    between atoms: C6_6  and  N1_7 
ROOT
ATOM      1  C1  <0> d           1.161   3.521   0.009  0.00  0.00    -0.056 A 
ATOM      2  C2  <0> d           1.183   2.145   0.002  0.00  0.00    -0.058 A 
ATOM      3  C3  <0> d          -0.017   1.428   0.010  0.00  0.00     0.083 A 
ATOM      4  C4  <0> d          -1.239   2.114   0.019  0.00  0.00     0.139 A 
ATOM      5  C5  <0> d          -1.252   3.493   0.032  0.00  0.00    -0.019 A 
ATOM      6  C6  <0> d          -0.054   4.201   0.024  0.00  0.00     0.028 A 
ATOM      7  F1  <0> d          -2.401   1.426   0.022  0.00  0.00    -0.204 F 
ATOM      8  C7  <0> d           0.002  -0.004   0.002  0.00  0.00     0.102 C 
ATOM      9  N2  <0> d           0.018  -1.140  -0.004  0.00  0.00    -0.191 NA
ATOM     10  H1  <0> d           2.088   4.075   0.003  0.00  0.00     0.086 H 
ATOM     11  H2  <0> d           2.126   1.620  -0.009  0.00  0.00     0.086 H 
ATOM     12  H3  <0> d          -2.192   4.024   0.043  0.00  0.00     0.091 H 
ENDROOT
BRANCH   6  13
ATOM     13  N1  <0> d          -0.071   5.593   0.031  0.00  0.00    -0.399 N 
ATOM     14  H4  <0> d           0.763   6.088   0.025  0.00  0.00     0.156 HD
ATOM     15  H5  <0> d          -0.917   6.067   0.041  0.00  0.00     0.156 HD
ENDBRANCH   6  13
TORSDOF 1
