REMARK  0 active torsions:
REMARK  status: ('A' for Active; 'I' for Inactive)
ROOT
ATOM      1  C1  <0> d           1.163   3.175   0.007  0.00  0.00    -0.082 A 
ATOM      2  C2  <0> d           1.169   1.787   0.001  0.00  0.00    -0.081 A 
ATOM      3  C3  <0> d          -0.013   1.076   0.008  0.00  0.00    -0.055 A 
ATOM      4  C4  <0> d          -1.222   1.760   0.017  0.00  0.00     0.067 A 
ATOM      5  C5  <0> d          -1.220   3.169   0.030  0.00  0.00     0.064 A 
ATOM      6  C6  <0> d          -0.017   3.868   0.022  0.00  0.00    -0.065 A 
ATOM      7  C7  <0> d          -2.531   3.841   0.045  0.00  0.00     0.299 A 
ATOM      8  O1  <0> d          -2.623   5.056   0.051  0.00  0.00    -0.264 OA
ATOM      9  N1  <0> d          -3.628   3.050   0.051  0.00  0.00    -0.088 NA
ATOM     10  N2  <0> d          -3.538   1.772   0.044  0.00  0.00    -0.064 NA
ATOM     11  N3  <0> d          -2.436   1.113   0.030  0.00  0.00    -0.259 N 
ATOM     12  H1  <0> d          -2.474   0.013   0.030  0.00  0.00     0.191 HD
ATOM     13  H2  <0> d           2.099   3.714   0.001  0.00  0.00     0.083 H 
ATOM     14  H3  <0> d           2.110   1.257  -0.011  0.00  0.00     0.083 H 
ATOM     15  H4  <0> d           0.002  -0.004   0.002  0.00  0.00     0.087 H 
ATOM     16  H5  <0> d          -0.015   4.948   0.028  0.00  0.00     0.085 H 
ENDROOT
TORSDOF 0
