REMARK  3 active torsions:
REMARK  status: ('A' for Active; 'I' for Inactive)
REMARK    1  A    between atoms: C1_1  and  O1_2 
REMARK    2  A    between atoms: O1_2  and  C2_3 
REMARK    3  A    between atoms: C2_3  and  C3_5 
ROOT
ATOM      1  C3  <0> d          -0.814   3.316   0.028  0.00  0.00     0.046 A 
ATOM      2  C4  <0> d          -1.079   1.899   0.017  0.00  0.00    -0.060 A 
ATOM      3  C5  <0> d          -0.013   1.076   0.008  0.00  0.00    -0.044 A 
ATOM      4  S1  <0> d           1.367   2.202   0.001  0.00  0.00    -0.113 SA
ATOM      5  C6  <0> d           0.510   3.706   0.017  0.00  0.00    -0.029 A 
ATOM      6  H4  <0> d          -2.088   1.514   0.018  0.00  0.00     0.085 H 
ATOM      7  H5  <0> d           0.002  -0.004   0.002  0.00  0.00     0.095 H 
ATOM      8  H6  <0> d           0.914   4.708   0.018  0.00  0.00     0.096 H 
ENDROOT
BRANCH   1   9
ATOM      9  C2  <0> d          -1.905   4.301   0.043  0.00  0.00     0.293 C 
ATOM     10  O2  <0> d          -3.062   3.928   0.051  0.00  0.00    -0.259 OA
BRANCH   9  11
ATOM     11  O1  <0> d          -1.623   5.620   0.047  0.00  0.00    -0.323 OA
BRANCH  11  12
ATOM     12  C1  <0> d          -2.750   6.535   0.062  0.00  0.00     0.013 C 
ATOM     13  H1  <0> d          -3.364   6.370  -0.823  0.00  0.00     0.067 H 
ATOM     14  H2  <0> d          -3.348   6.360   0.957  0.00  0.00     0.067 H 
ATOM     15  H3  <0> d          -2.384   7.562   0.065  0.00  0.00     0.067 H 
ENDBRANCH  11  12
ENDBRANCH   9  11
ENDBRANCH   1   9
TORSDOF 3
