REMARK  4 active torsions:
REMARK  status: ('A' for Active; 'I' for Inactive)
REMARK    1  A    between atoms: C1_1  and  C2_2 
REMARK    2  A    between atoms: C2_2  and  C3_3 
REMARK    3  A    between atoms: C2_2  and  C4_4 
REMARK    4  A    between atoms: C2_2  and  C5_5 
ROOT
ATOM      1  C5  <0> d          -0.781   1.620  -1.192  0.00  0.00    -0.041 C 
ATOM      2  H1  <0> d          -0.634   2.675  -1.425  0.00  0.00     0.041 H 
ATOM      3  C6  <0> d           0.172   1.168  -0.056  0.00  0.00    -0.054 C 
ATOM      4  C7  <0> d          -0.536   1.641   1.231  0.00  0.00    -0.009 C 
ATOM      5  C8  <0> d          -2.010   1.776   0.892  0.00  0.00     0.127 C 
ATOM      6  O1  <0> d          -2.886   2.131   1.643  0.00  0.00    -0.298 OA
ATOM      7  C9  <0> d          -2.178   1.385  -0.565  0.00  0.00    -0.006 C 
ATOM      8  H11 <0> d           0.281   0.084  -0.057  0.00  0.00     0.034 H 
ATOM      9  H12 <0> d           1.144   1.650  -0.157  0.00  0.00     0.034 H 
ATOM     10  H13 <0> d          -0.394   0.967   1.956  0.00  0.00     0.044 H 
ATOM     11  H14 <0> d          -0.135   2.604   1.545  0.00  0.00     0.044 H 
ATOM     12  H15 <0> d          -2.854   1.951  -1.037  0.00  0.00     0.044 H 
ATOM     13  H16 <0> d          -2.461   0.335  -0.649  0.00  0.00     0.044 H 
ENDROOT
BRANCH   1  14
ATOM     14  C2  <0> d          -0.591   0.754  -2.438  0.00  0.00    -0.047 C 
BRANCH  14  15
ATOM     15  C1  <0> d          -0.929  -0.701  -2.105  0.00  0.00    -0.069 C 
ATOM     16  H2  <0> d          -1.992  -0.785  -1.883  0.00  0.00     0.028 H 
ATOM     17  H3  <0> d          -0.684  -1.335  -2.958  0.00  0.00     0.028 H 
ATOM     18  H4  <0> d          -0.350  -1.018  -1.238  0.00  0.00     0.028 H 
ENDBRANCH  14  15
BRANCH  14  19
ATOM     19  C3  <0> d          -1.517   1.251  -3.551  0.00  0.00    -0.069 C 
ATOM     20  H5  <0> d          -1.276   2.287  -3.788  0.00  0.00     0.028 H 
ATOM     21  H6  <0> d          -1.381   0.634  -4.439  0.00  0.00     0.028 H 
ATOM     22  H7  <0> d          -2.552   1.185  -3.217  0.00  0.00     0.028 H 
ENDBRANCH  14  19
BRANCH  14  23
ATOM     23  C4  <0> d           0.863   0.846  -2.906  0.00  0.00    -0.069 C 
ATOM     24  H8  <0> d           1.523   0.492  -2.114  0.00  0.00     0.028 H 
ATOM     25  H9  <0> d           0.999   0.229  -3.794  0.00  0.00     0.028 H 
ATOM     26  H10 <0> d           1.104   1.882  -3.143  0.00  0.00     0.028 H 
ENDBRANCH  14  23
ENDBRANCH   1  14
TORSDOF 4
