REMARK  3 active torsions:
REMARK  status: ('A' for Active; 'I' for Inactive)
REMARK    1  A    between atoms: C1_1  and  C2_2 
REMARK    2  A    between atoms: C3_3  and  C4_4 
REMARK    3  A    between atoms: C4_4  and  C5_5 
ROOT
ATOM      1  C2  <0> d          -3.317   0.193   0.019  0.00  0.00    -0.111 C 
ATOM      2  C3  <0> d          -2.435   0.968   0.019  0.00  0.00    -0.097 C 
ENDROOT
BRANCH   2   3
ATOM      3  C4  <0> d          -1.329   1.940   0.019  0.00  0.00     0.071 C 
ATOM      4  H4  <0> d          -1.391   2.561   0.913  0.00  0.00     0.068 H 
ATOM      5  H5  <0> d          -1.400   2.570  -0.867  0.00  0.00     0.068 H 
BRANCH   3   6
ATOM      6  C5  <0> d          -0.014   1.204   0.009  0.00  0.00     0.184 C 
ATOM      7  O1  <0> d           0.002  -0.004   0.002  0.00  0.00    -0.647 OA
ATOM      8  O2  <0> d           1.139   1.891   0.001  0.00  0.00    -0.647 OA
ENDBRANCH   3   6
ENDBRANCH   2   3
BRANCH   1   9
ATOM      9  C1  <0> d          -4.423  -0.778   0.019  0.00  0.00    -0.021 C 
ATOM     10  H1  <0> d          -5.374  -0.246   0.026  0.00  0.00     0.044 H 
ATOM     11  H2  <0> d          -4.361  -1.399  -0.875  0.00  0.00     0.044 H 
ATOM     12  H3  <0> d          -4.352  -1.409   0.905  0.00  0.00     0.044 H 
ENDBRANCH   1   9
TORSDOF 3
