REMARK  3 active torsions:
REMARK  status: ('A' for Active; 'I' for Inactive)
REMARK    1  A    between atoms: C1_1  and  N1_2 
REMARK       I    between atoms: N1_2  and  C2_3 
REMARK    2  A    between atoms: C2_3  and  C3_5 
REMARK    3  A    between atoms: N2_10  and  C7_12 
ROOT
ATOM      1  C3  <0> d          -0.019   1.541   0.011  0.00  0.00     0.047 C 
ATOM      2  H1  <0> d          -0.495   1.919   0.915  0.00  0.00     0.057 H 
ATOM      3  C4  <0> d           1.490   1.876  -0.002  0.00  0.00     0.022 C 
ATOM      4  C5  <0> d           2.147   0.654   0.600  0.00  0.00     0.220 C 
ATOM      5  O2  <0> d           3.283   0.614   1.026  0.00  0.00    -0.273 OA
ATOM      6  N2  <0> d           1.290  -0.381   0.595  0.00  0.00    -0.356 N 
ATOM      7  C6  <0> d           0.002  -0.004   0.002  0.00  0.00     0.009 C 
ATOM      8  H6  <0> d           1.838   2.032  -1.023  0.00  0.00     0.048 H 
ATOM      9  H7  <0> d           1.690   2.757   0.609  0.00  0.00     0.048 H 
ATOM     10  H8  <0> d          -0.819  -0.396   0.603  0.00  0.00     0.065 H 
ATOM     11  H9  <0> d          -0.068  -0.377  -1.020  0.00  0.00     0.065 H 
ENDROOT
BRANCH   1  12
ATOM     12  C2  <0> d          -0.701   2.078  -1.221  0.00  0.00     0.223 C 
ATOM     13  N1  <0> d          -0.821   3.408  -1.400  0.00  0.00    -0.365 N 
ATOM     14  H5  <0> d          -0.468   4.020  -0.735  0.00  0.00     0.161 HD
ATOM     15  O1  <0> d          -1.143   1.312  -2.052  0.00  0.00    -0.273 OA
BRANCH  13  16
ATOM     16  C1  <0> d          -1.484   3.930  -2.597  0.00  0.00    -0.018 C 
ATOM     17  H2  <0> d          -1.485   5.019  -2.566  0.00  0.00     0.056 H 
ATOM     18  H3  <0> d          -0.949   3.592  -3.485  0.00  0.00     0.056 H 
ATOM     19  H4  <0> d          -2.511   3.566  -2.631  0.00  0.00     0.056 H 
ENDBRANCH  13  16
ENDBRANCH   1  12
BRANCH   6  20
ATOM     20  C7  <0> d           1.603  -1.716   1.113  0.00  0.00    -0.016 C 
ATOM     21  H10 <0> d           2.025  -2.326   0.315  0.00  0.00     0.056 H 
ATOM     22  H11 <0> d           2.325  -1.630   1.926  0.00  0.00     0.056 H 
ATOM     23  H12 <0> d           0.691  -2.183   1.486  0.00  0.00     0.056 H 
ENDBRANCH   6  20
TORSDOF 3
