REMARK  4 active torsions:
REMARK  status: ('A' for Active; 'I' for Inactive)
REMARK    1  A    between atoms: C1_1  and  C2_2 
REMARK    2  A    between atoms: C2_2  and  C3_3 
REMARK    3  A    between atoms: C3_3  and  C4_4 
REMARK    4  A    between atoms: C7_9  and  C8_12 
ROOT
ATOM      1  C4  <0> d           1.283   2.021   0.001  0.00  0.00     0.131 C 
ATOM      2  H1  <0> d           1.811   1.726  -0.907  0.00  0.00     0.129 H 
ATOM      3  O1  <0> d           2.018   1.577   1.144  0.00  0.00    -0.361 OA
ATOM      4  C5  <0> d           2.175   0.157   1.213  0.00  0.00     0.025 C 
ATOM      5  C6  <0> d           0.789  -0.498   1.221  0.00  0.00    -0.021 C 
ATOM      6  C7  <0> d           0.002  -0.004   0.002  0.00  0.00     0.040 C 
ATOM      7  H2  <0> d          -1.019  -0.383   0.049  0.00  0.00     0.083 H 
ATOM      8  O2  <0> d          -0.017   1.427   0.010  0.00  0.00    -0.356 OA
ATOM      9  H10 <0> d           2.708  -0.107   2.127  0.00  0.00     0.074 H 
ATOM     10  H11 <0> d           2.738  -0.191   0.347  0.00  0.00     0.074 H 
ATOM     11  H12 <0> d           0.260  -0.222   2.133  0.00  0.00     0.040 H 
ATOM     12  H13 <0> d           0.895  -1.581   1.173  0.00  0.00     0.040 H 
ENDROOT
BRANCH   1  13
ATOM     13  C3  <0> d           1.148   3.544   0.041  0.00  0.00    -0.019 C 
ATOM     14  H8  <0> d           0.514   3.874  -0.782  0.00  0.00     0.040 H 
ATOM     15  H9  <0> d           0.701   3.845   0.988  0.00  0.00     0.040 H 
BRANCH  13  16
ATOM     16  C2  <0> d           2.532   4.183  -0.095  0.00  0.00    -0.064 C 
ATOM     17  H6  <0> d           3.167   3.852   0.728  0.00  0.00     0.032 H 
ATOM     18  H7  <0> d           2.980   3.882  -1.042  0.00  0.00     0.032 H 
BRANCH  16  19
ATOM     19  C1  <0> d           2.397   5.706  -0.055  0.00  0.00    -0.076 C 
ATOM     20  H3  <0> d           3.383   6.161  -0.152  0.00  0.00     0.027 H 
ATOM     21  H4  <0> d           1.763   6.036  -0.878  0.00  0.00     0.027 H 
ATOM     22  H5  <0> d           1.950   6.006   0.892  0.00  0.00     0.027 H 
ENDBRANCH  16  19
ENDBRANCH  13  16
ENDBRANCH   1  13
BRANCH   6  23
ATOM     23  C8  <0> d           0.674  -0.500  -1.280  0.00  0.00    -0.052 C 
ATOM     24  H14 <0> d           1.696  -0.123  -1.323  0.00  0.00     0.030 H 
ATOM     25  H15 <0> d           0.688  -1.590  -1.284  0.00  0.00     0.030 H 
ATOM     26  H16 <0> d           0.117  -0.140  -2.145  0.00  0.00     0.030 H 
ENDBRANCH   6  23
TORSDOF 4
