REMARK  1 active torsions:
REMARK  status: ('A' for Active; 'I' for Inactive)
REMARK    1  A    between atoms: C7_7  and  O1_11 
ROOT
ATOM      1  C1  <0> d          -0.827   1.839   2.458  0.00  0.00    -0.065 C 
ATOM      2  C2  <0> d          -1.939   1.669   1.423  0.00  0.00    -0.062 C 
ATOM      3  C3  <0> d          -1.322   1.837   0.018  0.00  0.00    -0.050 C 
ATOM      4  C4  <0> d          -0.013   1.076   0.008  0.00  0.00    -0.106 C 
ATOM      5  C5  <0> d           1.100   1.763   0.001  0.00  0.00    -0.104 C 
ATOM      6  C6  <0> d           1.058   3.264  -0.015  0.00  0.00    -0.026 C 
ATOM      7  C7  <0> d           1.171   3.824   1.415  0.00  0.00     0.038 C 
ATOM      8  H1  <0> d           1.559   3.057   2.084  0.00  0.00     0.083 H 
ATOM      9  C8  <0> d          -0.254   4.238   1.858  0.00  0.00    -0.041 C 
ATOM     10  C9  <0> d          -0.722   3.267   2.941  0.00  0.00    -0.063 C 
ATOM     11  H2  <0> d           0.123   1.545   2.011  0.00  0.00     0.033 H 
ATOM     12  H3  <0> d          -1.032   1.190   3.310  0.00  0.00     0.033 H 
ATOM     13  H4  <0> d          -2.379   0.676   1.515  0.00  0.00     0.033 H 
ATOM     14  H5  <0> d          -2.706   2.428   1.579  0.00  0.00     0.033 H 
ATOM     15  H6  <0> d          -1.138   2.893  -0.180  0.00  0.00     0.038 H 
ATOM     16  H7  <0> d          -1.993   1.429  -0.738  0.00  0.00     0.038 H 
ATOM     17  H8  <0> d           0.002  -0.004   0.002  0.00  0.00     0.076 H 
ATOM     18  H9  <0> d           2.050   1.251   0.006  0.00  0.00     0.076 H 
ATOM     19  H10 <0> d           1.886   3.641  -0.615  0.00  0.00     0.042 H 
ATOM     20  H11 <0> d           0.116   3.593  -0.456  0.00  0.00     0.042 H 
ATOM     21  H12 <0> d          -0.234   5.252   2.257  0.00  0.00     0.036 H 
ATOM     22  H13 <0> d          -0.931   4.193   1.005  0.00  0.00     0.036 H 
ATOM     23  H14 <0> d          -0.018   3.304   3.772  0.00  0.00     0.033 H 
ATOM     24  H15 <0> d          -1.700   3.588   3.300  0.00  0.00     0.033 H 
ENDROOT
BRANCH   7  25
ATOM     25  O1  <0> d           2.035   4.962   1.425  0.00  0.00    -0.395 OA
ATOM     26  H16 <0> d           2.935   4.775   1.124  0.00  0.00     0.210 HD
ENDBRANCH   7  25
TORSDOF 1
