REMARK  0 active torsions:
REMARK  status: ('A' for Active; 'I' for Inactive)
ROOT
ATOM      1  C1  <0> d          -1.118   1.852   0.017  0.00  0.00    -0.060 A 
ATOM      2  C2  <0> d          -0.013   1.076   0.008  0.00  0.00    -0.022 A 
ATOM      3  N1  <0> d           1.083   1.891   0.002  0.00  0.00    -0.369 N 
ATOM      4  H1  <0> d           2.007   1.596  -0.008  0.00  0.00     0.165 HD
ATOM      5  C3  <0> d           0.664   3.183   0.012  0.00  0.00     0.015 A 
ATOM      6  C4  <0> d          -0.689   3.187   0.026  0.00  0.00    -0.034 A 
ATOM      7  C5  <0> d          -1.535   4.435   0.043  0.00  0.00    -0.039 C 
ATOM      8  C6  <0> d          -0.646   5.616   0.453  0.00  0.00    -0.061 C 
ATOM      9  C7  <0> d           0.627   5.616  -0.397  0.00  0.00    -0.060 C 
ATOM     10  C8  <0> d           1.512   4.431   0.006  0.00  0.00    -0.026 C 
ATOM     11  H2  <0> d          -2.142   1.509   0.019  0.00  0.00     0.086 H 
ATOM     12  H3  <0> d           0.002  -0.004   0.002  0.00  0.00     0.111 H 
ATOM     13  H4  <0> d          -2.346   4.319   0.762  0.00  0.00     0.040 H 
ATOM     14  H5  <0> d          -1.947   4.613  -0.950  0.00  0.00     0.040 H 
ATOM     15  H6  <0> d          -0.380   5.522   1.506  0.00  0.00     0.033 H 
ATOM     16  H7  <0> d          -1.188   6.549   0.297  0.00  0.00     0.033 H 
ATOM     17  H8  <0> d           1.171   6.547  -0.236  0.00  0.00     0.033 H 
ATOM     18  H9  <0> d           0.360   5.528  -1.450  0.00  0.00     0.033 H 
ATOM     19  H10 <0> d           1.922   4.600   1.002  0.00  0.00     0.042 H 
ATOM     20  H11 <0> d           2.325   4.319  -0.711  0.00  0.00     0.042 H 
ENDROOT
TORSDOF 0
