REMARK  1 active torsions:
REMARK  status: ('A' for Active; 'I' for Inactive)
REMARK    1  A    between atoms: C1_1  and  C2_2 
ROOT
ATOM      1  C2  <0> d           2.316   1.379  -0.013  0.00  0.00     0.103 A 
ATOM      2  N1  <0> d           1.159   2.070   0.002  0.00  0.00    -0.311 N 
ATOM      3  H1  <0> d           1.171   3.039   0.007  0.00  0.00     0.170 HD
ATOM      4  C3  <0> d          -0.017   1.407   0.010  0.00  0.00     0.255 A 
ATOM      5  O1  <0> d          -1.074   2.015   0.018  0.00  0.00    -0.268 OA
ATOM      6  C4  <0> d           0.002  -0.004   0.002  0.00  0.00     0.035 A 
ATOM      7  C5  <0> d           1.203  -0.643  -0.013  0.00  0.00     0.048 A 
ATOM      8  N2  <0> d           2.333   0.074  -0.020  0.00  0.00    -0.240 NA
ATOM      9  C6  <0> d           0.991  -2.142  -0.018  0.00  0.00    -0.024 C 
ATOM     10  C7  <0> d          -0.481  -2.339  -0.441  0.00  0.00    -0.056 C 
ATOM     11  C8  <0> d          -1.127  -1.009   0.007  0.00  0.00    -0.034 C 
ATOM     12  H5  <0> d           1.659  -2.616  -0.737  0.00  0.00     0.042 H 
ATOM     13  H6  <0> d           1.158  -2.551   0.979  0.00  0.00     0.042 H 
ATOM     14  H7  <0> d          -0.561  -2.466  -1.520  0.00  0.00     0.034 H 
ATOM     15  H8  <0> d          -0.926  -3.184   0.084  0.00  0.00     0.034 H 
ATOM     16  H9  <0> d          -1.541  -1.109   1.010  0.00  0.00     0.040 H 
ATOM     17  H10 <0> d          -1.903  -0.710  -0.696  0.00  0.00     0.040 H 
ENDROOT
BRANCH   1  18
ATOM     18  C1  <0> d           3.622   2.132  -0.021  0.00  0.00    -0.021 C 
ATOM     19  H2  <0> d           4.450   1.423  -0.033  0.00  0.00     0.037 H 
ATOM     20  H3  <0> d           3.671   2.764  -0.908  0.00  0.00     0.037 H 
ATOM     21  H4  <0> d           3.688   2.754   0.872  0.00  0.00     0.037 H 
ENDBRANCH   1  18
TORSDOF 1
