REMARK  3 active torsions:
REMARK  status: ('A' for Active; 'I' for Inactive)
REMARK    1  A    between atoms: C1_1  and  C2_2 
REMARK    2  A    between atoms: C2_2  and  C3_3 
REMARK    3  A    between atoms: C2_2  and  C4_4 
ROOT
ATOM      1  C4  <0> d           1.097   2.024   0.003  0.00  0.00     0.039 A 
ATOM      2  C5  <0> d           2.331   1.402  -0.013  0.00  0.00    -0.059 A 
ATOM      3  C6  <0> d           2.390   0.017  -0.020  0.00  0.00    -0.078 A 
ATOM      4  C7  <0> d           1.201  -0.695  -0.013  0.00  0.00    -0.044 A 
ATOM      5  C8  <0> d           0.002  -0.004   0.002  0.00  0.00     0.126 A 
ATOM      6  N1  <0> d          -0.016   1.316   0.009  0.00  0.00    -0.241 NA
ATOM      7 Cl1  <0> d          -1.495  -0.883   0.012  0.00  0.00    -0.062 Cl
ATOM      8  H8  <0> d           3.238   1.988  -0.018  0.00  0.00     0.086 H 
ATOM      9  H9  <0> d           3.341  -0.495  -0.032  0.00  0.00     0.083 H 
ATOM     10  H10 <0> d           1.210  -1.775  -0.019  0.00  0.00     0.088 H 
ENDROOT
BRANCH   1  11
ATOM     11  C2  <0> d           1.021   3.529   0.011  0.00  0.00    -0.019 C 
ATOM     12  H4  <0> d           0.056   3.835  -0.418  0.00  0.00     0.048 H 
BRANCH  11  13
ATOM     13  C1  <0> d           1.135   4.037   1.450  0.00  0.00    -0.068 C 
ATOM     14  H1  <0> d           0.310   3.625   2.050  0.00  0.00     0.028 H 
ATOM     15  H2  <0> d           1.079   5.136   1.456  0.00  0.00     0.028 H 
ATOM     16  H3  <0> d           2.096   3.716   1.877  0.00  0.00     0.028 H 
ENDBRANCH  11  13
BRANCH  11  17
ATOM     17  C3  <0> d           2.168   4.102  -0.824  0.00  0.00    -0.068 C 
ATOM     18  H5  <0> d           2.086   3.737  -1.858  0.00  0.00     0.028 H 
ATOM     19  H6  <0> d           3.129   3.781  -0.397  0.00  0.00     0.028 H 
ATOM     20  H7  <0> d           2.112   5.201  -0.818  0.00  0.00     0.028 H 
ENDBRANCH  11  17
ENDBRANCH   1  11
TORSDOF 3
