REMARK  5 active torsions:
REMARK  status: ('A' for Active; 'I' for Inactive)
REMARK    1  A    between atoms: C1_1  and  C2_2 
REMARK    2  A    between atoms: C2_2  and  C3_4 
REMARK    3  A    between atoms: C2_2  and  O3_8 
REMARK    4  A    between atoms: C3_4  and  C4_6 
REMARK    5  A    between atoms: C4_6  and  O2_7 
ROOT
ATOM      1  C2  <0> d           0.002  -0.004   0.002  0.00  0.00     0.091 C 
ATOM      2  H1  <0> d           0.512  -0.356  -0.895  0.00  0.00     0.094 H 
ENDROOT
BRANCH   1   3
ATOM      3  C1  <0> d          -0.019   1.526   0.010  0.00  0.00    -0.046 C 
ATOM      4  H2  <0> d           1.004   1.903   0.003  0.00  0.00     0.031 H 
ATOM      5  H3  <0> d          -0.546   1.887  -0.873  0.00  0.00     0.031 H 
ATOM      6  H4  <0> d          -0.529   1.877   0.907  0.00  0.00     0.031 H 
ENDBRANCH   1   3
BRANCH   1   7
ATOM      7  C3  <0> d          -1.412  -0.526   0.013  0.00  0.00     0.178 C 
ATOM      8  O1  <0> d          -1.905  -0.911   1.045  0.00  0.00    -0.293 OA
BRANCH   7   9
ATOM      9  C4  <0> d          -2.209  -0.567  -1.265  0.00  0.00     0.074 C 
ATOM     10  H5  <0> d          -2.304   0.442  -1.667  0.00  0.00     0.085 H 
ATOM     11  H6  <0> d          -1.700  -1.201  -1.991  0.00  0.00     0.085 H 
BRANCH   9  12
ATOM     12  O2  <0> d          -3.509  -1.097  -0.999  0.00  0.00    -0.393 OA
ATOM     13  H7  <0> d          -4.079  -1.153  -1.778  0.00  0.00     0.209 HD
ENDBRANCH   9  12
ENDBRANCH   7   9
ENDBRANCH   1   7
BRANCH   1  14
ATOM     14  O3  <0> d           0.693  -0.477   1.160  0.00  0.00    -0.388 OA
ATOM     15  H8  <0> d           1.611  -0.180   1.219  0.00  0.00     0.210 HD
ENDBRANCH   1  14
TORSDOF 5
