REMARK  0 active torsions:
REMARK  status: ('A' for Active; 'I' for Inactive)
ROOT
ATOM      1  C1  <0> d          -0.017   1.387   0.010  0.00  0.00    -0.082 A 
ATOM      2  C2  <0> d           1.140   2.147   0.003  0.00  0.00    -0.076 A 
ATOM      3  C3  <0> d           2.383   1.542  -0.043  0.00  0.00    -0.051 A 
ATOM      4  C4  <0> d           2.387   0.163  -0.136  0.00  0.00    -0.041 A 
ATOM      5  C5  <0> d           1.246  -0.614  -0.050  0.00  0.00    -0.051 A 
ATOM      6  C6  <0> d           0.002  -0.004   0.002  0.00  0.00    -0.076 A 
ATOM      7  C7  <0> d           1.642  -2.060   0.034  0.00  0.00    -0.040 C 
ATOM      8  C8  <0> d           3.164  -2.047   0.352  0.00  0.00    -0.054 C 
ATOM      9  C9  <0> d           3.610  -0.710  -0.262  0.00  0.00    -0.027 C 
ATOM     10  H1  <0> d           3.904  -0.834  -1.304  0.00  0.00     0.047 H 
ATOM     11  C10 <0> d           4.695  -0.004   0.554  0.00  0.00    -0.058 C 
ATOM     12  C11 <0> d           4.900   1.390  -0.042  0.00  0.00    -0.061 C 
ATOM     13  C12 <0> d           3.676   2.285   0.037  0.00  0.00    -0.040 C 
ATOM     14  H2  <0> d          -0.971   1.893   0.026  0.00  0.00     0.083 H 
ATOM     15  H3  <0> d           1.071   3.224   0.033  0.00  0.00     0.084 H 
ATOM     16  H4  <0> d          -0.910  -0.582   0.036  0.00  0.00     0.084 H 
ATOM     17  H5  <0> d           1.093  -2.556   0.834  0.00  0.00     0.040 H 
ATOM     18  H6  <0> d           1.459  -2.558  -0.918  0.00  0.00     0.040 H 
ATOM     19  H7  <0> d           3.337  -2.058   1.428  0.00  0.00     0.034 H 
ATOM     20  H8  <0> d           3.669  -2.885  -0.130  0.00  0.00     0.034 H 
ATOM     21  H9  <0> d           4.378   0.083   1.593  0.00  0.00     0.034 H 
ATOM     22  H10 <0> d           5.626  -0.569   0.497  0.00  0.00     0.034 H 
ATOM     23  H11 <0> d           5.720   1.877   0.486  0.00  0.00     0.033 H 
ATOM     24  H12 <0> d           5.183   1.282  -1.089  0.00  0.00     0.033 H 
ATOM     25  H13 <0> d           3.716   3.004  -0.781  0.00  0.00     0.040 H 
ATOM     26  H14 <0> d           3.705   2.832   0.979  0.00  0.00     0.040 H 
ENDROOT
TORSDOF 0
