REMARK  1 active torsions:
REMARK  status: ('A' for Active; 'I' for Inactive)
REMARK    1  A    between atoms: C1_1  and  C2_2 
ROOT
ATOM      1  C2  <0> d           0.002  -0.004   0.002  0.00  0.00     0.165 A 
ATOM      2  C3  <0> d           0.023  -0.778   1.083  0.00  0.00     0.148 A 
ATOM      3  C4  <0> d           0.037  -2.184   0.608  0.00  0.00     0.141 A 
ATOM      4  C5  <0> d           0.059  -2.958   1.689  0.00  0.00     0.132 A 
ATOM      5  N1  <0> d           0.059  -2.158   2.832  0.00  0.00     0.049 N 
ATOM      6  H1  <0> d           0.891  -2.346   3.372  0.00  0.00     0.314 HD
ATOM      7  N2  <0> d           0.037  -0.840   2.476  0.00  0.00    -0.079 NA
ATOM      8  N3  <0> d           0.023  -2.122  -0.785  0.00  0.00    -0.080 NA
ATOM      9  H2  <0> d          -0.838  -0.617  -1.677  0.00  0.00     0.315 HD
ATOM     10  N4  <0> d          -0.004  -0.804  -1.141  0.00  0.00     0.055 N 
ATOM     11  H6  <0> d           0.073  -4.038   1.683  0.00  0.00     0.130 H 
ATOM     12  H7  <0> d           0.808  -0.594  -1.701  0.00  0.00     0.315 HD
ATOM     13  H8  <0> d          -0.756  -2.368   3.388  0.00  0.00     0.314 HD
ENDROOT
BRANCH   1  14
ATOM     14  C1  <0> d          -0.018   1.503   0.010  0.00  0.00    -0.025 C 
ATOM     15  H3  <0> d           1.004   1.880   0.003  0.00  0.00     0.035 H 
ATOM     16  H4  <0> d          -0.545   1.864  -0.873  0.00  0.00     0.035 H 
ATOM     17  H5  <0> d          -0.529   1.854   0.907  0.00  0.00     0.035 H 
ENDBRANCH   1  14
TORSDOF 1
