REMARK  1 active torsions:
REMARK  status: ('A' for Active; 'I' for Inactive)
REMARK    1  A    between atoms: C8_10  and  O1_12 
ROOT
ATOM      1  C1  <0> d           1.956   3.701  -2.243  0.00  0.00    -0.061 C 
ATOM      2  C2  <0> d           0.679   3.525  -1.402  0.00  0.00    -0.059 C 
ATOM      3  C3  <0> d           1.146   3.094   0.008  0.00  0.00    -0.029 C 
ATOM      4  H1  <0> d           0.482   3.448   0.796  0.00  0.00     0.043 H 
ATOM      5  C4  <0> d           2.581   3.672   0.129  0.00  0.00    -0.056 C 
ATOM      6  C5  <0> d           3.140   3.370  -1.306  0.00  0.00    -0.054 C 
ATOM      7  H2  <0> d           4.034   3.949  -1.538  0.00  0.00     0.040 H 
ATOM      8  C6  <0> d           3.370   1.850  -1.375  0.00  0.00    -0.059 C 
ATOM      9  C7  <0> d           2.037   1.138  -1.266  0.00  0.00    -0.040 C 
ATOM     10  C8  <0> d           1.286   1.562  -0.002  0.00  0.00     0.039 C 
ATOM     11  H3  <0> d           1.842   1.241   0.879  0.00  0.00     0.083 H 
ATOM     12  H4  <0> d           1.944   3.015  -3.090  0.00  0.00     0.033 H 
ATOM     13  H5  <0> d           2.033   4.730  -2.596  0.00  0.00     0.033 H 
ATOM     14  H6  <0> d           0.046   2.753  -1.839  0.00  0.00     0.033 H 
ATOM     15  H7  <0> d           0.135   4.468  -1.344  0.00  0.00     0.033 H 
ATOM     16  H8  <0> d           2.555   4.745   0.320  0.00  0.00     0.034 H 
ATOM     17  H9  <0> d           3.147   3.152   0.902  0.00  0.00     0.034 H 
ATOM     18  H10 <0> d           3.848   1.595  -2.321  0.00  0.00     0.033 H 
ATOM     19  H11 <0> d           4.010   1.540  -0.549  0.00  0.00     0.033 H 
ATOM     20  H12 <0> d           2.199   0.060  -1.245  0.00  0.00     0.036 H 
ATOM     21  H13 <0> d           1.441   1.393  -2.142  0.00  0.00     0.036 H 
ENDROOT
BRANCH  10  22
ATOM     22  O1  <0> d          -0.011   0.963   0.007  0.00  0.00    -0.395 OA
ATOM     23  H14 <0> d           0.002  -0.004   0.002  0.00  0.00     0.210 HD
ENDBRANCH  10  22
TORSDOF 1
