REMARK  1 active torsions:
REMARK  status: ('A' for Active; 'I' for Inactive)
REMARK    1  A    between atoms: N2_8  and  C7_10 
ROOT
ATOM      1  C7  <0> d          -1.207  -0.832   0.010  0.00  0.00     0.113 C 
ATOM      2  C8  <0> d          -1.626  -1.101  -1.375  0.00  0.00     0.082 C 
ATOM      3  N4  <0> d          -1.949  -1.309  -2.444  0.00  0.00    -0.195 NA
ATOM      4  H5  <0> d          -0.999  -1.774   0.517  0.00  0.00     0.092 H 
ATOM      5  H6  <0> d          -2.004  -0.305   0.535  0.00  0.00     0.092 H 
ENDROOT
BRANCH   1   6
ATOM      6  N2  <0> d           0.002  -0.004   0.002  0.00  0.00    -0.174 N 
ATOM      7  N1  <0> d          -0.015   1.283   0.009  0.00  0.00    -0.152 NA
ATOM      8  C5  <0> d           1.231   1.728  -0.000  0.00  0.00     0.109 A 
ATOM      9  C4  <0> d           2.062   0.515  -0.015  0.00  0.00     0.109 A 
ATOM     10  C6  <0> d           1.865   2.983  -0.000  0.00  0.00    -0.051 A 
ATOM     11  C3  <0> d           3.461   0.652  -0.028  0.00  0.00    -0.051 A 
ATOM     12  N3  <0> d           1.196  -0.486  -0.012  0.00  0.00    -0.152 NA
ATOM     13  C2  <0> d           4.011   1.894  -0.027  0.00  0.00    -0.081 A 
ATOM     14  H3  <0> d           4.093  -0.223  -0.039  0.00  0.00     0.087 H 
ATOM     15  C1  <0> d           3.223   3.046  -0.014  0.00  0.00    -0.081 A 
ATOM     16  H2  <0> d           5.086   1.993  -0.037  0.00  0.00     0.083 H 
ATOM     17  H1  <0> d           3.704   4.013  -0.014  0.00  0.00     0.083 H 
ATOM     18  H4  <0> d           1.279   3.889   0.010  0.00  0.00     0.087 H 
ENDBRANCH   1   6
TORSDOF 1
