REMARK  5 active torsions:
REMARK  status: ('A' for Active; 'I' for Inactive)
REMARK    1  A    between atoms: C1_1  and  C2_2 
REMARK       I    between atoms: C2_2  and  N1_4 
REMARK    2  A    between atoms: N1_4  and  C3_5 
REMARK    3  A    between atoms: C3_5  and  C4_6 
REMARK    4  A    between atoms: C4_6  and  N2_7 
REMARK       I    between atoms: N2_7  and  C5_8 
REMARK    5  A    between atoms: C5_8  and  C6_10 
ROOT
ATOM      1  C3  <0> d           2.422   1.183  -0.015  0.00  0.00     0.010 C 
ATOM      2  H5  <0> d           2.497   0.553   0.871  0.00  0.00     0.066 H 
ATOM      3  H6  <0> d           2.480   0.562  -0.909  0.00  0.00     0.066 H 
ENDROOT
BRANCH   1   4
ATOM      4  N1  <0> d           1.143   1.898   0.001  0.00  0.00    -0.360 N 
ATOM      5  C2  <0> d          -0.014   1.209   0.009  0.00  0.00     0.213 C 
ATOM      6  O1  <0> d           0.002  -0.004   0.002  0.00  0.00    -0.274 OA
ATOM      7  H4  <0> d           1.130   2.868   0.007  0.00  0.00     0.162 HD
BRANCH   5   8
ATOM      8  C1  <0> d          -1.330   1.944   0.019  0.00  0.00    -0.003 C 
ATOM      9  H1  <0> d          -1.642   2.116   1.049  0.00  0.00     0.040 H 
ATOM     10  H2  <0> d          -1.215   2.901  -0.490  0.00  0.00     0.040 H 
ATOM     11  H3  <0> d          -2.084   1.348  -0.495  0.00  0.00     0.040 H 
ENDBRANCH   5   8
ENDBRANCH   1   4
BRANCH   1  12
ATOM     12  C4  <0> d           3.571   2.193  -0.020  0.00  0.00     0.010 C 
ATOM     13  H7  <0> d           3.497   2.824  -0.906  0.00  0.00     0.066 H 
ATOM     14  H8  <0> d           3.514   2.814   0.874  0.00  0.00     0.066 H 
BRANCH  12  15
ATOM     15  N2  <0> d           4.850   1.478  -0.036  0.00  0.00    -0.360 N 
ATOM     16  C5  <0> d           6.008   2.168  -0.044  0.00  0.00     0.213 C 
ATOM     17  O2  <0> d           5.991   3.380  -0.037  0.00  0.00    -0.274 OA
ATOM     18  H9  <0> d           4.863   0.508  -0.042  0.00  0.00     0.162 HD
BRANCH  16  19
ATOM     19  C6  <0> d           7.323   1.432  -0.060  0.00  0.00    -0.003 C 
ATOM     20  H10 <0> d           7.138   0.358  -0.064  0.00  0.00     0.040 H 
ATOM     21  H11 <0> d           7.882   1.708  -0.954  0.00  0.00     0.040 H 
ATOM     22  H12 <0> d           7.899   1.698   0.826  0.00  0.00     0.040 H 
ENDBRANCH  16  19
ENDBRANCH  12  15
ENDBRANCH   1  12
TORSDOF 5
