REMARK  1 active torsions:
REMARK  status: ('A' for Active; 'I' for Inactive)
REMARK    1  A    between atoms: C2_2  and  O1_10 
ROOT
ATOM      1  C1  <0> d          -0.017   1.395   0.010  0.00  0.00    -0.026 A 
ATOM      2  C2  <0> d           1.197   2.069   0.002  0.00  0.00     0.084 A 
ATOM      3  C3  <0> d           2.377   1.339  -0.013  0.00  0.00     0.036 A 
ATOM      4  N1  <0> d           2.361   0.020  -0.021  0.00  0.00    -0.244 NA
ATOM      5  C4  <0> d           1.235  -0.663  -0.014  0.00  0.00     0.146 A 
ATOM      6  C5  <0> d           0.002  -0.004   0.002  0.00  0.00     0.087 A 
ATOM      7  C6  <0> d          -1.221  -0.749   0.010  0.00  0.00     0.102 C 
ATOM      8  N2  <0> d          -2.192  -1.339   0.017  0.00  0.00    -0.191 NA
ATOM      9 Cl1  <0> d           1.282  -2.398  -0.024  0.00  0.00    -0.061 Cl
ATOM     10  H1  <0> d          -0.951   1.937   0.026  0.00  0.00     0.090 H 
ATOM     11  H2  <0> d           3.324   1.859  -0.020  0.00  0.00     0.119 H 
ENDROOT
BRANCH   2  12
ATOM     12  O1  <0> d           1.229   3.428   0.008  0.00  0.00    -0.359 OA
ATOM     13  H3  <0> d           1.247   3.817   0.893  0.00  0.00     0.217 HD
ENDBRANCH   2  12
TORSDOF 1
