REMARK  2 active torsions:
REMARK  status: ('A' for Active; 'I' for Inactive)
REMARK    1  A    between atoms: C1_1  and  C2_2 
REMARK    2  A    between atoms: C3_4  and  N5_12 
ROOT
ATOM      1  C2  <0> d          -3.529   1.614   0.055  0.00  0.00     0.126 A 
ATOM      2  N1  <0> d          -2.372   0.976   0.046  0.00  0.00    -0.220 NA
ATOM      3  C3  <0> d          -1.220   1.642   0.030  0.00  0.00     0.135 A 
ATOM      4  C4  <0> d          -1.257   3.038   0.029  0.00  0.00     0.143 A 
ATOM      5  C5  <0> d          -2.507   3.678   0.034  0.00  0.00     0.163 A 
ATOM      6  N2  <0> d          -3.613   2.926   0.035  0.00  0.00    -0.214 NA
ATOM      7  N3  <0> d          -2.268   5.003   0.037  0.00  0.00    -0.333 N 
ATOM      8  C6  <0> d          -0.982   5.218   0.029  0.00  0.00     0.066 A 
ATOM      9  N4  <0> d          -0.313   4.043   0.024  0.00  0.00    -0.237 NA
ATOM     10  H1  <0> d          -2.970   5.714   0.044  0.00  0.00     0.168 HD
ATOM     11  H5  <0> d          -0.518   6.194   0.030  0.00  0.00     0.143 H 
ENDROOT
BRANCH   1  12
ATOM     12  C1  <0> d          -4.801   0.806   0.072  0.00  0.00    -0.019 C 
ATOM     13  H2  <0> d          -5.097   0.617   1.104  0.00  0.00     0.037 H 
ATOM     14  H3  <0> d          -5.590   1.361  -0.436  0.00  0.00     0.037 H 
ATOM     15  H4  <0> d          -4.636  -0.142  -0.438  0.00  0.00     0.037 H 
ENDBRANCH   1  12
BRANCH   3  16
ATOM     16  N5  <0> d          -0.011   0.966   0.016  0.00  0.00    -0.285 NA
ATOM     17  H7  <0> d           0.822   1.462   0.000  0.00  0.00     0.125 HD
ATOM     18  H6  <0> d           0.062   0.396   0.834  0.00  0.00     0.125 HD
ENDBRANCH   3  16
TORSDOF 2
