REMARK  4 active torsions:
REMARK  status: ('A' for Active; 'I' for Inactive)
REMARK    1  A    between atoms: C1_1  and  C2_2 
REMARK    2  A    between atoms: C4_5  and  C7_9 
REMARK    3  A    between atoms: C5_6  and  C6_7 
REMARK    4  A    between atoms: C6_7  and  O2_8 
ROOT
ATOM      1  C2  <0> d           0.002  -0.004   0.002  0.00  0.00    -0.029 A 
ATOM      2  C3  <0> d           0.009  -0.800  -1.083  0.00  0.00     0.025 A 
ATOM      3  O1  <0> d           0.028  -2.078  -0.671  0.00  0.00    -0.326 OA
ATOM      4  C4  <0> d           0.034  -2.116   0.671  0.00  0.00     0.057 A 
ATOM      5  C5  <0> d           0.024  -0.853   1.133  0.00  0.00     0.002 A 
ATOM      6  H4  <0> d          -0.001  -0.467  -2.110  0.00  0.00     0.124 H 
ENDROOT
BRANCH   5   7
ATOM      7  C6  <0> d           0.032  -0.424   2.577  0.00  0.00     0.043 C 
ATOM      8  H5  <0> d           0.562  -1.167   3.174  0.00  0.00     0.081 H 
ATOM      9  H6  <0> d           0.534   0.540   2.668  0.00  0.00     0.081 H 
BRANCH   7  10
ATOM     10  O2  <0> d          -1.312  -0.307   3.047  0.00  0.00    -0.396 OA
ATOM     11  H7  <0> d          -1.384  -0.033   3.972  0.00  0.00     0.209 HD
ENDBRANCH   7  10
ENDBRANCH   5   7
BRANCH   1  12
ATOM     12  C1  <0> d          -0.018   1.503   0.010  0.00  0.00    -0.049 C 
ATOM     13  H1  <0> d           1.004   1.880   0.003  0.00  0.00     0.033 H 
ATOM     14  H2  <0> d          -0.545   1.864  -0.873  0.00  0.00     0.033 H 
ATOM     15  H3  <0> d          -0.529   1.854   0.907  0.00  0.00     0.033 H 
ENDBRANCH   1  12
BRANCH   4  16
ATOM     16  C7  <0> d           0.053  -3.363   1.518  0.00  0.00    -0.031 C 
ATOM     17  H8  <0> d           0.062  -4.241   0.871  0.00  0.00     0.036 H 
ATOM     18  H9  <0> d           0.945  -3.364   2.143  0.00  0.00     0.036 H 
ATOM     19  H10 <0> d          -0.834  -3.387   2.150  0.00  0.00     0.036 H 
ENDBRANCH   4  16
TORSDOF 4
