REMARK  4 active torsions:
REMARK  status: ('A' for Active; 'I' for Inactive)
REMARK    1  A    between atoms: C1_1  and  C2_2 
REMARK    2  A    between atoms: C2_2  and  O1_3 
REMARK    3  A    between atoms: O1_3  and  C3_4 
REMARK    4  A    between atoms: C3_4  and  C4_6 
ROOT
ATOM      1  C4  <0> d          -0.739   1.585   1.264  0.00  0.00     0.034 C 
ATOM      2  H1  <0> d          -1.796   1.323   1.204  0.00  0.00     0.056 H 
ATOM      3  C5  <0> d          -0.013   1.086   0.008  0.00  0.00    -0.050 C 
ATOM      4  C6  <0> d          -0.761   1.597  -1.225  0.00  0.00    -0.049 C 
ATOM      5  C7  <0> d          -1.020   3.070  -1.099  0.00  0.00    -0.106 C 
ATOM      6  C8  <0> d          -0.952   3.725   0.015  0.00  0.00    -0.106 C 
ATOM      7  C9  <0> d          -0.595   3.106   1.335  0.00  0.00    -0.038 C 
ATOM      8  H7  <0> d           0.002  -0.004   0.002  0.00  0.00     0.034 H 
ATOM      9  H8  <0> d           1.009   1.466   0.000  0.00  0.00     0.034 H 
ATOM     10  H9  <0> d          -0.160   1.411  -2.115  0.00  0.00     0.038 H 
ATOM     11  H10 <0> d          -1.712   1.071  -1.314  0.00  0.00     0.038 H 
ATOM     12  H11 <0> d          -1.280   3.617  -1.993  0.00  0.00     0.076 H 
ATOM     13  H12 <0> d          -1.166   4.784  -0.006  0.00  0.00     0.076 H 
ATOM     14  H13 <0> d           0.436   3.356   1.584  0.00  0.00     0.040 H 
ATOM     15  H14 <0> d          -1.258   3.495   2.108  0.00  0.00     0.040 H 
ENDROOT
BRANCH   1  16
ATOM     16  C3  <0> d          -0.125   0.956   2.488  0.00  0.00     0.263 C 
ATOM     17  O2  <0> d           0.799   0.186   2.372  0.00  0.00    -0.265 OA
BRANCH  16  18
ATOM     18  O1  <0> d          -0.605   1.250   3.706  0.00  0.00    -0.322 OA
BRANCH  18  19
ATOM     19  C2  <0> d           0.035   0.608   4.840  0.00  0.00     0.025 C 
ATOM     20  H5  <0> d          -0.056  -0.474   4.743  0.00  0.00     0.074 H 
ATOM     21  H6  <0> d           1.089   0.883   4.866  0.00  0.00     0.074 H 
BRANCH  19  22
ATOM     22  C1  <0> d          -0.644   1.062   6.134  0.00  0.00    -0.056 C 
ATOM     23  H2  <0> d          -0.163   0.580   6.985  0.00  0.00     0.030 H 
ATOM     24  H3  <0> d          -0.553   2.144   6.231  0.00  0.00     0.030 H 
ATOM     25  H4  <0> d          -1.698   0.787   6.107  0.00  0.00     0.030 H 
ENDBRANCH  19  22
ENDBRANCH  18  19
ENDBRANCH  16  18
ENDBRANCH   1  16
TORSDOF 4
