REMARK  1 active torsions:
REMARK  status: ('A' for Active; 'I' for Inactive)
REMARK    1  A    between atoms: C3_4  and  C5_8 
ROOT
ATOM      1  C1  <0> d          -0.756   1.594  -1.231  0.00  0.00     0.039 C 
ATOM      2  C2  <0> d          -0.013   1.086   0.008  0.00  0.00     0.040 C 
ATOM      3  O1  <0> d          -0.685   1.548   1.183  0.00  0.00    -0.371 OA
ATOM      4  C3  <0> d          -0.799   2.973   1.254  0.00  0.00     0.142 C 
ATOM      5  H1  <0> d           0.228   3.365   1.306  0.00  0.00     0.103 H 
ATOM      6  C4  <0> d          -1.542   3.482   0.016  0.00  0.00     0.053 C 
ATOM      7  O2  <0> d          -0.868   3.019  -1.159  0.00  0.00    -0.386 OA
ATOM      8  H2  <0> d          -1.761   1.149  -1.268  0.00  0.00     0.077 H 
ATOM      9  H3  <0> d          -0.198   1.316  -2.137  0.00  0.00     0.077 H 
ATOM     10  H4  <0> d           0.003  -0.014   0.001  0.00  0.00     0.077 H 
ATOM     11  H5  <0> d           1.019   1.467  -0.001  0.00  0.00     0.077 H 
ATOM     12  H6  <0> d          -2.574   3.100   0.025  0.00  0.00     0.079 H 
ATOM     13  H7  <0> d          -1.558   4.582   0.024  0.00  0.00     0.079 H 
ENDROOT
BRANCH   4  14
ATOM     14  C5  <0> d          -1.565   3.356   2.494  0.00  0.00     0.205 C 
ATOM     15  O3  <0> d          -2.046   2.498   3.196  0.00  0.00    -0.646 OA
ATOM     16  O4  <0> d          -1.713   4.650   2.819  0.00  0.00    -0.646 OA
ENDBRANCH   4  14
TORSDOF 1
