REMARK  5 active torsions:
REMARK  status: ('A' for Active; 'I' for Inactive)
REMARK    1  A    between atoms: C4_5  and  C6_7 
REMARK    2  A    between atoms: C6_7  and  C7_8 
REMARK    3  A    between atoms: C6_7  and  C8_10 
REMARK    4  A    between atoms: C7_8  and  O1_9 
REMARK    5  A    between atoms: C8_10  and  O2_11 
ROOT
ATOM      1  C6  <0> d          -0.217   5.298   0.032  0.00  0.00     0.029 C 
ATOM      2  H5  <0> d          -1.171   5.610  -0.391  0.00  0.00     0.056 H 
ENDROOT
BRANCH   1   3
ATOM      3  C4  <0> d          -0.132   3.793   0.024  0.00  0.00     0.042 A 
ATOM      4  N1  <0> d          -1.239   3.078   0.030  0.00  0.00    -0.265 NA
ATOM      5  C3  <0> d          -1.214   1.759   0.017  0.00  0.00     0.003 A 
ATOM      6  C2  <0> d          -0.013   1.076   0.008  0.00  0.00    -0.066 A 
ATOM      7  H3  <0> d          -2.142   1.207   0.018  0.00  0.00     0.114 H 
ATOM      8  C1  <0> d           1.174   1.794   0.001  0.00  0.00    -0.080 A 
ATOM      9  H2  <0> d           0.002  -0.004   0.002  0.00  0.00     0.085 H 
ATOM     10  C5  <0> d           1.107   3.179   0.009  0.00  0.00    -0.059 A 
ATOM     11  H1  <0> d           2.127   1.287  -0.011  0.00  0.00     0.083 H 
ATOM     12  H4  <0> d           2.010   3.770   0.004  0.00  0.00     0.086 H 
ENDBRANCH   1   3
BRANCH   1  13
ATOM     13  C7  <0> d          -0.106   5.807   1.471  0.00  0.00     0.027 C 
ATOM     14  H6  <0> d          -0.866   5.325   2.086  0.00  0.00     0.075 H 
ATOM     15  H7  <0> d           0.883   5.571   1.864  0.00  0.00     0.075 H 
BRANCH  13  16
ATOM     16  O1  <0> d          -0.303   7.222   1.492  0.00  0.00    -0.400 OA
ATOM     17  H8  <0> d          -0.246   7.614   2.374  0.00  0.00     0.209 HD
ENDBRANCH  13  16
ENDBRANCH   1  13
BRANCH   1  18
ATOM     18  C8  <0> d           0.926   5.878  -0.803  0.00  0.00     0.027 C 
ATOM     19  H9  <0> d           0.918   6.965  -0.725  0.00  0.00     0.075 H 
ATOM     20  H10 <0> d           1.877   5.494  -0.434  0.00  0.00     0.075 H 
BRANCH  18  21
ATOM     21  O2  <0> d           0.757   5.497  -2.170  0.00  0.00    -0.400 OA
ATOM     22  H11 <0> d           1.448   5.831  -2.760  0.00  0.00     0.209 HD
ENDBRANCH  18  21
ENDBRANCH   1  18
TORSDOF 5
