REMARK  4 active torsions:
REMARK  status: ('A' for Active; 'I' for Inactive)
REMARK    1  A    between atoms: C1_1  and  O1_2 
REMARK    2  A    between atoms: O1_2  and  C2_3 
REMARK    3  A    between atoms: C4_5  and  N3_10 
REMARK    4  A    between atoms: C5_6  and  N2_9 
ROOT
ATOM      1  C2  <0> d           0.625  -0.618   1.041  0.00  0.00     0.165 A 
ATOM      2  C3  <0> d           0.681  -2.003   1.084  0.00  0.00    -0.004 A 
ATOM      3  C4  <0> d           1.322  -2.621   2.152  0.00  0.00     0.058 A 
ATOM      4  C5  <0> d           1.888  -1.811   3.145  0.00  0.00     0.070 A 
ATOM      5  C6  <0> d           1.790  -0.437   3.029  0.00  0.00     0.032 A 
ATOM      6  N1  <0> d           1.176   0.113   1.995  0.00  0.00    -0.235 NA
ATOM      7  H4  <0> d           0.232  -2.594   0.299  0.00  0.00     0.093 H 
ATOM      8  H5  <0> d           2.224   0.195   3.790  0.00  0.00     0.118 H 
ENDROOT
BRANCH   1   9
ATOM      9  O1  <0> d           0.002  -0.004   0.002  0.00  0.00    -0.339 OA
BRANCH   9  10
ATOM     10  C1  <0> d          -0.017   1.425   0.010  0.00  0.00     0.012 C 
ATOM     11  H1  <0> d           1.005   1.802   0.002  0.00  0.00     0.067 H 
ATOM     12  H2  <0> d          -0.544   1.786  -0.873  0.00  0.00     0.067 H 
ATOM     13  H3  <0> d          -0.527   1.776   0.907  0.00  0.00     0.067 H 
ENDBRANCH   9  10
ENDBRANCH   1   9
BRANCH   3  14
ATOM     14  N3  <0> d           1.399  -4.011   2.232  0.00  0.00    -0.397 N 
ATOM     15  H8  <0> d           1.002  -4.560   1.537  0.00  0.00     0.156 HD
ATOM     16  H9  <0> d           1.849  -4.430   2.983  0.00  0.00     0.156 HD
ENDBRANCH   3  14
BRANCH   4  17
ATOM     17  N2  <0> d           2.545  -2.387   4.243  0.00  0.00    -0.396 N 
ATOM     18  H6  <0> d           2.610  -3.352   4.318  0.00  0.00     0.156 HD
ATOM     19  H7  <0> d           2.935  -1.820   4.927  0.00  0.00     0.156 HD
ENDBRANCH   4  17
TORSDOF 4
