REMARK  3 active torsions:
REMARK  status: ('A' for Active; 'I' for Inactive)
REMARK    1  A    between atoms: C1_1  and  O1_2 
REMARK    2  A    between atoms: O1_2  and  C2_3 
REMARK    3  A    between atoms: C5_7  and  N2_10 
ROOT
ATOM      1  C2  <0> d          -1.201  -0.638   0.010  0.00  0.00     0.109 A 
ATOM      2  C3  <0> d          -2.380   0.093   0.019  0.00  0.00     0.036 A 
ATOM      3  N1  <0> d          -3.551  -0.513   0.027  0.00  0.00    -0.268 NA
ATOM      4  C4  <0> d          -3.654  -1.827   0.026  0.00  0.00     0.029 A 
ATOM      5  C5  <0> d          -2.521  -2.630   0.017  0.00  0.00     0.068 A 
ATOM      6  C6  <0> d          -1.265  -2.027   0.003  0.00  0.00     0.096 A 
ATOM      7 Cl1  <0> d           0.182  -2.985  -0.015  0.00  0.00    -0.079 Cl
ATOM      8  H4  <0> d          -2.338   1.172   0.021  0.00  0.00     0.119 H 
ATOM      9  H5  <0> d          -4.632  -2.285   0.032  0.00  0.00     0.118 H 
ENDROOT
BRANCH   1  10
ATOM     10  O1  <0> d           0.002  -0.004   0.002  0.00  0.00    -0.353 OA
BRANCH  10  11
ATOM     11  C1  <0> d          -0.017   1.425   0.010  0.00  0.00     0.011 C 
ATOM     12  H1  <0> d           1.005   1.802   0.002  0.00  0.00     0.066 H 
ATOM     13  H2  <0> d          -0.544   1.786  -0.873  0.00  0.00     0.066 H 
ATOM     14  H3  <0> d          -0.527   1.776   0.907  0.00  0.00     0.066 H 
ENDBRANCH  10  11
ENDBRANCH   1  10
BRANCH   5  15
ATOM     15  N2  <0> d          -2.639  -4.022   0.015  0.00  0.00    -0.397 N 
ATOM     16  H6  <0> d          -3.517  -4.435   0.021  0.00  0.00     0.156 HD
ATOM     17  H7  <0> d          -1.843  -4.576   0.009  0.00  0.00     0.156 HD
ENDBRANCH   5  15
TORSDOF 3
