REMARK  4 active torsions:
REMARK  status: ('A' for Active; 'I' for Inactive)
REMARK    1  A    between atoms: C1_1  and  C2_2 
REMARK    2  A    between atoms: C2_2  and  C3_4 
REMARK    3  A    between atoms: C2_2  and  O2_6 
REMARK    4  A    between atoms: O2_6  and  C4_7 
ROOT
ATOM      1  C2  <0> d           1.235   3.094   0.007  0.00  0.00     0.118 C 
ATOM      2  H1  <0> d           0.668   3.476   0.856  0.00  0.00     0.099 H 
ENDROOT
BRANCH   1   3
ATOM      3  C1  <0> d           0.633   3.635  -1.292  0.00  0.00    -0.043 C 
ATOM      4  H2  <0> d           0.675   4.724  -1.286  0.00  0.00     0.031 H 
ATOM      5  H3  <0> d           1.200   3.253  -2.141  0.00  0.00     0.031 H 
ATOM      6  H4  <0> d          -0.405   3.312  -1.373  0.00  0.00     0.031 H 
ENDBRANCH   1   3
BRANCH   1   7
ATOM      7  C3  <0> d           1.177   1.588  -0.001  0.00  0.00     0.202 C 
ATOM      8  O1  <0> d           2.199   0.944  -0.014  0.00  0.00    -0.646 OA
ATOM      9  O3  <0> d          -0.011   0.963   0.007  0.00  0.00    -0.646 OA
ENDBRANCH   1   7
BRANCH   1  10
ATOM     10  O2  <0> d           2.596   3.518   0.114  0.00  0.00    -0.380 OA
BRANCH  10  11
ATOM     11  C4  <0> d           2.764   4.768   0.784  0.00  0.00     0.005 C 
ATOM     12  H5  <0> d           3.824   5.019   0.824  0.00  0.00     0.066 H 
ATOM     13  H6  <0> d           2.227   5.546   0.242  0.00  0.00     0.066 H 
ATOM     14  H7  <0> d           2.370   4.693   1.798  0.00  0.00     0.066 H 
ENDBRANCH  10  11
ENDBRANCH   1  10
TORSDOF 4
