REMARK  2 active torsions:
REMARK  status: ('A' for Active; 'I' for Inactive)
REMARK    1  A    between atoms: C1_1  and  C2_2 
REMARK    2  A    between atoms: C6_6  and  N2_8 
ROOT
ATOM      1  C2  <0> d          -2.353   3.653   0.034  0.00  0.00     0.053 A 
ATOM      2  C3  <0> d          -3.583   2.994   0.036  0.00  0.00     0.069 A 
ATOM      3  C4  <0> d          -3.605   1.591   0.028  0.00  0.00    -0.057 A 
ATOM      4  C5  <0> d          -2.412   0.920   0.018  0.00  0.00    -0.038 A 
ATOM      5  C6  <0> d          -1.221   1.642   0.017  0.00  0.00     0.121 A 
ATOM      6  N1  <0> d          -1.228   2.968   0.029  0.00  0.00    -0.235 NA
ATOM      7  C7  <0> d          -4.806   3.739   0.046  0.00  0.00     0.101 C 
ATOM      8  N3  <0> d          -5.776   4.330   0.054  0.00  0.00    -0.191 NA
ATOM      9  H4  <0> d          -4.541   1.053   0.030  0.00  0.00     0.086 H 
ATOM     10  H5  <0> d          -2.394  -0.160   0.013  0.00  0.00     0.089 H 
ENDROOT
BRANCH   1  11
ATOM     11  C1  <0> d          -2.311   5.159   0.043  0.00  0.00    -0.034 C 
ATOM     12  H1  <0> d          -3.337   5.555   0.046  0.00  0.00     0.035 H 
ATOM     13  H2  <0> d          -1.783   5.517  -0.853  0.00  0.00     0.035 H 
ATOM     14  H3  <0> d          -1.782   5.506   0.943  0.00  0.00     0.035 H 
ENDBRANCH   1  11
BRANCH   5  15
ATOM     15  N2  <0> d          -0.011   0.966   0.007  0.00  0.00    -0.384 N 
ATOM     16  H6  <0> d           0.934   1.529   0.006  0.00  0.00     0.157 HD
ATOM     17  H7  <0> d           0.004  -0.134   0.001  0.00  0.00     0.157 HD
ENDBRANCH   5  15
TORSDOF 2
