REMARK  2 active torsions:
REMARK  status: ('A' for Active; 'I' for Inactive)
REMARK    1  A    between atoms: C4_5  and  C6_7 
REMARK    2  A    between atoms: C6_7  and  C7_8 
ROOT
ATOM      1  C1  <0> d           1.174   1.794   0.001  0.00  0.00    -0.080 A 
ATOM      2  C2  <0> d          -0.013   1.076   0.008  0.00  0.00    -0.066 A 
ATOM      3  C3  <0> d          -1.214   1.759   0.017  0.00  0.00     0.003 A 
ATOM      4  N1  <0> d          -1.239   3.078   0.030  0.00  0.00    -0.265 NA
ATOM      5  C4  <0> d          -0.132   3.793   0.024  0.00  0.00     0.044 A 
ATOM      6  C5  <0> d           1.107   3.179   0.009  0.00  0.00    -0.059 A 
ATOM      7  H1  <0> d           2.127   1.287  -0.011  0.00  0.00     0.083 H 
ATOM      8  H2  <0> d           0.002  -0.004   0.002  0.00  0.00     0.085 H 
ATOM      9  H3  <0> d          -2.142   1.207   0.018  0.00  0.00     0.114 H 
ATOM     10  H4  <0> d           2.010   3.770   0.004  0.00  0.00     0.086 H 
ENDROOT
BRANCH   5  11
ATOM     11  C6  <0> d          -0.217   5.298   0.032  0.00  0.00     0.055 C 
ATOM     12  H5  <0> d          -0.662   5.631   0.970  0.00  0.00     0.058 H 
ATOM     13  H6  <0> d           0.784   5.719  -0.065  0.00  0.00     0.058 H 
BRANCH  11  14
ATOM     14  C7  <0> d          -1.070   5.759  -1.121  0.00  0.00     0.178 C 
ATOM     15  O1  <0> d          -1.559   4.949  -1.873  0.00  0.00    -0.648 OA
ATOM     16  O2  <0> d          -1.287   7.070  -1.313  0.00  0.00    -0.648 OA
ENDBRANCH  11  14
ENDBRANCH   5  11
TORSDOF 2
