REMARK  0 active torsions:
REMARK  status: ('A' for Active; 'I' for Inactive)
ROOT
ATOM      1  C1  <0> d          -2.966   1.295   2.337  0.00  0.00    -0.059 A 
ATOM      2  C2  <0> d          -4.316   1.011   2.273  0.00  0.00     0.002 A 
ATOM      3  N1  <0> d          -4.884   0.709   1.122  0.00  0.00    -0.273 NA
ATOM      4  C3  <0> d          -4.194   0.665   0.002  0.00  0.00     0.008 A 
ATOM      5  C4  <0> d          -2.834   0.936  -0.012  0.00  0.00    -0.034 A 
ATOM      6  C5  <0> d          -2.207   1.260   1.173  0.00  0.00    -0.049 A 
ATOM      7  C6  <0> d          -0.736   1.583   1.259  0.00  0.00    -0.040 C 
ATOM      8  C7  <0> d          -0.013   1.086   0.008  0.00  0.00    -0.061 C 
ATOM      9  C8  <0> d          -0.762   1.598  -1.228  0.00  0.00    -0.061 C 
ATOM     10  C9  <0> d          -2.099   0.864  -1.323  0.00  0.00    -0.039 C 
ATOM     11  H1  <0> d          -2.504   1.542   3.282  0.00  0.00     0.086 H 
ATOM     12  H2  <0> d          -4.911   1.036   3.174  0.00  0.00     0.114 H 
ATOM     13  H3  <0> d          -4.695   0.413  -0.922  0.00  0.00     0.115 H 
ATOM     14  H4  <0> d          -0.308   1.102   2.138  0.00  0.00     0.040 H 
ATOM     15  H5  <0> d          -0.609   2.662   1.344  0.00  0.00     0.040 H 
ATOM     16  H6  <0> d           0.002  -0.004   0.002  0.00  0.00     0.033 H 
ATOM     17  H7  <0> d           1.009   1.466   0.000  0.00  0.00     0.033 H 
ATOM     18  H8  <0> d          -0.939   2.669  -1.131  0.00  0.00     0.033 H 
ATOM     19  H9  <0> d          -0.170   1.403  -2.122  0.00  0.00     0.033 H 
ATOM     20  H10 <0> d          -2.707   1.323  -2.103  0.00  0.00     0.040 H 
ATOM     21  H11 <0> d          -1.919  -0.181  -1.575  0.00  0.00     0.040 H 
ENDROOT
TORSDOF 0
