REMARK  6 active torsions:
REMARK  status: ('A' for Active; 'I' for Inactive)
REMARK    1  A    between atoms: C1_1  and  O1_2 
REMARK    2  A    between atoms: O1_2  and  C2_3 
REMARK    3  A    between atoms: C2_3  and  C3_4 
REMARK    4  A    between atoms: C3_4  and  O2_5 
REMARK    5  A    between atoms: O2_5  and  C4_6 
REMARK    6  A    between atoms: C4_6  and  C5_7 
ROOT
ATOM      1  C5  <0> d          -1.433  -0.534   0.013  0.00  0.00     0.034 C 
ATOM      2  C6  <0> d          -1.413  -2.006   0.005  0.00  0.00     0.061 C 
ATOM      3  N1  <0> d          -1.398  -3.141  -0.002  0.00  0.00    -0.197 NA
ATOM      4  H10 <0> d          -1.944  -0.182   0.910  0.00  0.00     0.058 H 
ATOM      5  H11 <0> d          -1.960  -0.173  -0.870  0.00  0.00     0.058 H 
ENDROOT
BRANCH   1   6
ATOM      6  C4  <0> d           0.002  -0.004   0.002  0.00  0.00     0.031 C 
ATOM      7  H8  <0> d           0.512  -0.356  -0.895  0.00  0.00     0.075 H 
ATOM      8  H9  <0> d           0.529  -0.365   0.885  0.00  0.00     0.075 H 
BRANCH   6   9
ATOM      9  O2  <0> d          -0.017   1.425   0.010  0.00  0.00    -0.388 OA
BRANCH   9  10
ATOM     10  C3  <0> d           1.280   2.024   0.001  0.00  0.00     0.039 C 
ATOM     11  H6  <0> d           1.834   1.705   0.884  0.00  0.00     0.077 H 
ATOM     12  H7  <0> d           1.817   1.714  -0.896  0.00  0.00     0.077 H 
BRANCH  10  13
ATOM     13  C2  <0> d           1.139   3.547   0.010  0.00  0.00     0.039 C 
ATOM     14  H4  <0> d           2.123   4.004  -0.086  0.00  0.00     0.077 H 
ATOM     15  H5  <0> d           0.510   3.859  -0.824  0.00  0.00     0.077 H 
BRANCH  13  16
ATOM     16  O1  <0> d           0.539   3.962   1.239  0.00  0.00    -0.394 OA
BRANCH  16  17
ATOM     17  C1  <0> d           0.361   5.376   1.351  0.00  0.00     0.004 C 
ATOM     18  H1  <0> d           1.330   5.870   1.282  0.00  0.00     0.066 H 
ATOM     19  H2  <0> d          -0.284   5.725   0.544  0.00  0.00     0.066 H 
ATOM     20  H3  <0> d          -0.099   5.609   2.311  0.00  0.00     0.066 H 
ENDBRANCH  16  17
ENDBRANCH  13  16
ENDBRANCH  10  13
ENDBRANCH   9  10
ENDBRANCH   6   9
ENDBRANCH   1   6
TORSDOF 6
