REMARK  3 active torsions:
REMARK  status: ('A' for Active; 'I' for Inactive)
REMARK    1  A    between atoms: C1_1  and  O1_2 
REMARK    2  A    between atoms: O1_2  and  C2_3 
REMARK    3  A    between atoms: C7_8  and  C8_9 
ROOT
ATOM      1  C2  <0> d          -0.150   1.183   2.377  0.00  0.00     0.085 A 
ATOM      2  C3  <0> d           0.990   0.393   2.421  0.00  0.00    -0.050 A 
ATOM      3  C4  <0> d           1.533   0.028   3.636  0.00  0.00    -0.080 A 
ATOM      4  C5  <0> d           0.940   0.437   4.820  0.00  0.00    -0.082 A 
ATOM      5  C6  <0> d          -0.195   1.217   4.796  0.00  0.00    -0.064 A 
ATOM      6  C7  <0> d          -0.753   1.598   3.573  0.00  0.00     0.074 A 
ATOM      7  H4  <0> d           1.455   0.067   1.502  0.00  0.00     0.087 H 
ATOM      8  H5  <0> d           2.422  -0.584   3.665  0.00  0.00     0.083 H 
ATOM      9  H6  <0> d           1.371   0.143   5.766  0.00  0.00     0.083 H 
ATOM     10  H7  <0> d          -0.654   1.533   5.722  0.00  0.00     0.085 H 
ENDROOT
BRANCH   1  11
ATOM     11  O1  <0> d          -0.682   1.547   1.184  0.00  0.00    -0.355 OA
BRANCH  11  12
ATOM     12  C1  <0> d          -0.013   1.086   0.008  0.00  0.00     0.010 C 
ATOM     13  H1  <0> d           0.002  -0.004   0.002  0.00  0.00     0.066 H 
ATOM     14  H2  <0> d           1.010   1.463   0.000  0.00  0.00     0.066 H 
ATOM     15  H3  <0> d          -0.540   1.447  -0.875  0.00  0.00     0.066 H 
ENDBRANCH  11  12
ENDBRANCH   1  11
BRANCH   6  16
ATOM     16  C8  <0> d          -1.968   2.432   3.540  0.00  0.00     0.212 C 
ATOM     17  O2  <0> d          -2.450   2.761   2.474  0.00  0.00    -0.644 OA
ATOM     18  O3  <0> d          -2.544   2.829   4.691  0.00  0.00    -0.644 OA
ENDBRANCH   6  16
TORSDOF 3
