REMARK  2 active torsions:
REMARK  status: ('A' for Active; 'I' for Inactive)
REMARK    1  A    between atoms: C3_4  and  C5_9 
REMARK    2  A    between atoms: C4_6  and  N4_8 
REMARK       I    between atoms: C5_9  and  N5_11 
ROOT
ATOM      1  C1  <0> d          -3.331   4.549   0.044  0.00  0.00     0.123 C 
ATOM      2  N1  <0> d          -3.823   5.573   0.052  0.00  0.00    -0.190 NA
ATOM      3  C2  <0> d          -2.711   3.258   0.033  0.00  0.00     0.188 A 
ATOM      4  C3  <0> d          -3.351   2.025   0.030  0.00  0.00     0.156 A 
ATOM      5  N2  <0> d          -2.400   1.075   0.020  0.00  0.00    -0.182 N 
ATOM      6  C4  <0> d          -1.214   1.639   0.017  0.00  0.00     0.700 A 
ATOM      7  N3  <0> d          -1.359   2.991   0.030  0.00  0.00    -0.051 NA
ATOM      8  H5  <0> d          -2.684   0.012   0.015  0.00  0.00     0.184 HD
ENDROOT
BRANCH   4   9
ATOM      9  C5  <0> d          -4.810   1.800   0.037  0.00  0.00     0.269 C 
ATOM     10  O1  <0> d          -5.571   2.748   0.046  0.00  0.00    -0.266 OA
ATOM     11  N5  <0> d          -5.298   0.544   0.033  0.00  0.00    -0.365 N 
ATOM     12  H3  <0> d          -6.385   0.376   0.038  0.00  0.00     0.159 HD
ATOM     13  H4  <0> d          -4.609  -0.314   0.024  0.00  0.00     0.159 HD
ENDBRANCH   4   9
BRANCH   6  14
ATOM     14  N4  <0> d          -0.011   0.966   0.007  0.00  0.00    -0.233 N 
ATOM     15  H1  <0> d           0.934   1.529   0.006  0.00  0.00     0.174 HD
ATOM     16  H2  <0> d           0.004  -0.134   0.002  0.00  0.00     0.174 HD
ENDBRANCH   6  14
TORSDOF 2
