REMARK  4 active torsions:
REMARK  status: ('A' for Active; 'I' for Inactive)
REMARK    1  A    between atoms: C1_1  and  C2_2 
REMARK    2  A    between atoms: C5_5  and  S1_9 
REMARK    3  A    between atoms: C6_6  and  O1_8 
REMARK    4  A    between atoms: S1_9  and  C8_10 
ROOT
ATOM      1  C2  <0> d          -1.241   3.133   0.031  0.00  0.00    -0.059 A 
ATOM      2  C3  <0> d          -1.218   1.751   0.017  0.00  0.00    -0.076 A 
ATOM      3  C4  <0> d          -0.013   1.076   0.008  0.00  0.00    -0.064 A 
ATOM      4  C5  <0> d           1.180   1.786   0.000  0.00  0.00     0.033 A 
ATOM      5  C6  <0> d           1.156   3.180   0.008  0.00  0.00     0.083 A 
ATOM      6  C7  <0> d          -0.057   3.848   0.023  0.00  0.00    -0.044 A 
ATOM      7  H4  <0> d          -2.146   1.197   0.019  0.00  0.00     0.084 H 
ATOM      8  H5  <0> d           0.002  -0.004   0.002  0.00  0.00     0.085 H 
ATOM      9  H6  <0> d          -0.078   4.928   0.029  0.00  0.00     0.088 H 
ENDROOT
BRANCH   4  10
ATOM     10  S1  <0> d           2.719   0.929  -0.020  0.00  0.00    -0.132 SA
BRANCH  10  11
ATOM     11  C8  <0> d           2.246  -0.822  -0.025  0.00  0.00    -0.030 C 
ATOM     12  H8  <0> d           1.664  -1.044   0.870  0.00  0.00     0.042 H 
ATOM     13  H9  <0> d           1.647  -1.034  -0.910  0.00  0.00     0.042 H 
ATOM     14  H10 <0> d           3.143  -1.441  -0.037  0.00  0.00     0.042 H 
ENDBRANCH  10  11
ENDBRANCH   4  10
BRANCH   5  15
ATOM     15  O1  <0> d           2.321   3.882   0.001  0.00  0.00    -0.359 OA
ATOM     16  H7  <0> d           2.650   4.089  -0.884  0.00  0.00     0.217 HD
ENDBRANCH   5  15
BRANCH   1  17
ATOM     17  C1  <0> d          -2.559   3.863   0.047  0.00  0.00    -0.051 C 
ATOM     18  H1  <0> d          -2.887   4.044  -0.977  0.00  0.00     0.033 H 
ATOM     19  H2  <0> d          -3.303   3.258   0.565  0.00  0.00     0.033 H 
ATOM     20  H3  <0> d          -2.441   4.815   0.565  0.00  0.00     0.033 H 
ENDBRANCH   1  17
TORSDOF 4
