REMARK  2 active torsions:
REMARK  status: ('A' for Active; 'I' for Inactive)
REMARK    1  A    between atoms: C1_1  and  C2_2 
REMARK    2  A    between atoms: C2_2  and  C4_6 
ROOT
ATOM      1  C2  <0> d           1.151   3.592   0.010  0.00  0.00     0.052 C 
ATOM      2  H1  <0> d           0.118   3.942   0.021  0.00  0.00     0.069 H 
ATOM      3  C3  <0> d           1.849   4.086   1.208  0.00  0.00     0.068 C 
ATOM      4  N1  <0> d           2.388   4.468   2.132  0.00  0.00    -0.197 NA
ENDROOT
BRANCH   1   5
ATOM      5  C1  <0> d           1.853   4.119  -1.243  0.00  0.00    -0.057 C 
ATOM      6  H2  <0> d           1.336   3.753  -2.130  0.00  0.00     0.029 H 
ATOM      7  H3  <0> d           1.838   5.208  -1.238  0.00  0.00     0.029 H 
ATOM      8  H4  <0> d           2.885   3.769  -1.255  0.00  0.00     0.029 H 
ENDBRANCH   1   5
BRANCH   1   9
ATOM      9  C4  <0> d           1.171   2.086   0.002  0.00  0.00    -0.041 A 
ATOM     10  C9  <0> d           2.377   1.411  -0.014  0.00  0.00    -0.076 A 
ATOM     11  C8  <0> d           2.396   0.029  -0.021  0.00  0.00    -0.082 A 
ATOM     12  H9  <0> d           3.305   1.963  -0.019  0.00  0.00     0.084 H 
ATOM     13  C7  <0> d           1.208  -0.679  -0.014  0.00  0.00    -0.083 A 
ATOM     14  H8  <0> d           3.339  -0.499  -0.033  0.00  0.00     0.083 H 
ATOM     15  C6  <0> d           0.002  -0.004   0.002  0.00  0.00    -0.082 A 
ATOM     16  H7  <0> d           1.223  -1.759  -0.020  0.00  0.00     0.083 H 
ATOM     17  C5  <0> d          -0.017   1.378   0.010  0.00  0.00    -0.076 A 
ATOM     18  H6  <0> d          -0.926  -0.557   0.008  0.00  0.00     0.083 H 
ATOM     19  H5  <0> d          -0.959   1.905   0.017  0.00  0.00     0.084 H 
ENDBRANCH   1   9
TORSDOF 2
