REMARK  4 active torsions:
REMARK  status: ('A' for Active; 'I' for Inactive)
REMARK    1  A    between atoms: C1_1  and  C2_2 
REMARK    2  A    between atoms: C2_2  and  C3_3 
REMARK    3  A    between atoms: C2_2  and  C4_4 
REMARK    4  A    between atoms: C2_2  and  O1_9 
ROOT
ATOM      1  C4  <0> d          -0.789   1.611   1.242  0.00  0.00    -0.025 C 
ATOM      2  C5  <0> d          -0.013   1.086   0.008  0.00  0.00    -0.059 C 
ATOM      3  C6  <0> d          -0.809   1.622  -1.200  0.00  0.00    -0.065 C 
ATOM      4  C7  <0> d          -2.243   1.875  -0.703  0.00  0.00    -0.065 C 
ATOM      5  C8  <0> d          -2.268   1.485   0.789  0.00  0.00    -0.059 C 
ATOM      6  H7  <0> d          -0.534   2.651   1.444  0.00  0.00     0.044 H 
ATOM      7  H8  <0> d           0.002  -0.004   0.002  0.00  0.00     0.033 H 
ATOM      8  H9  <0> d           1.003   1.480   0.000  0.00  0.00     0.033 H 
ATOM      9  H10 <0> d          -0.367   2.552  -1.555  0.00  0.00     0.033 H 
ATOM     10  H11 <0> d          -0.816   0.882  -2.000  0.00  0.00     0.033 H 
ATOM     11  H12 <0> d          -2.497   2.929  -0.818  0.00  0.00     0.033 H 
ATOM     12  H13 <0> d          -2.946   1.258  -1.263  0.00  0.00     0.033 H 
ATOM     13  H14 <0> d          -2.899   2.172   1.353  0.00  0.00     0.033 H 
ATOM     14  H15 <0> d          -2.620   0.460   0.909  0.00  0.00     0.033 H 
ENDROOT
BRANCH   1  15
ATOM     15  C2  <0> d          -0.516   0.735   2.466  0.00  0.00     0.054 C 
BRANCH  15  16
ATOM     16  C1  <0> d          -1.390   1.203   3.632  0.00  0.00    -0.048 C 
ATOM     17  H1  <0> d          -2.441   1.121   3.354  0.00  0.00     0.031 H 
ATOM     18  H2  <0> d          -1.196   0.579   4.505  0.00  0.00     0.031 H 
ATOM     19  H3  <0> d          -1.156   2.241   3.868  0.00  0.00     0.031 H 
ENDBRANCH  15  16
BRANCH  15  20
ATOM     20  C3  <0> d          -0.845  -0.722   2.135  0.00  0.00    -0.048 C 
ATOM     21  H4  <0> d          -0.222  -1.055   1.304  0.00  0.00     0.031 H 
ATOM     22  H5  <0> d          -0.651  -1.346   3.007  0.00  0.00     0.031 H 
ATOM     23  H6  <0> d          -1.896  -0.803   1.857  0.00  0.00     0.031 H 
ENDBRANCH  15  20
BRANCH  15  24
ATOM     24  O1  <0> d           0.861   0.842   2.831  0.00  0.00    -0.390 OA
ATOM     25  H16 <0> d           1.141   1.740   3.055  0.00  0.00     0.210 HD
ENDBRANCH  15  24
ENDBRANCH   1  15
TORSDOF 4
