REMARK  4 active torsions:
REMARK  status: ('A' for Active; 'I' for Inactive)
REMARK    1  A    between atoms: C1_1  and  C2_2 
REMARK    2  A    between atoms: C3_4  and  C4_7 
REMARK    3  A    between atoms: C4_7  and  C5_8 
REMARK    4  A    between atoms: C5_8  and  C6_9 
ROOT
ATOM      1  C2  <0> d           1.302  -0.348  -0.012  0.00  0.00     0.152 A 
ATOM      2  N1  <0> d           0.002  -0.004   0.002  0.00  0.00    -0.209 NA
ATOM      3  C3  <0> d          -0.016   1.307   0.009  0.00  0.00     0.173 A 
ATOM      4  O1  <0> d           1.258   1.713  -0.001  0.00  0.00    -0.196 OA
ATOM      5  N2  <0> d           1.996   0.750  -0.013  0.00  0.00    -0.112 NA
ENDROOT
BRANCH   3   6
ATOM      6  C4  <0> d          -1.238   2.188   0.020  0.00  0.00     0.007 C 
ATOM      7  H4  <0> d          -1.015   3.125  -0.490  0.00  0.00     0.046 H 
ATOM      8  H5  <0> d          -2.056   1.681  -0.492  0.00  0.00     0.046 H 
BRANCH   6   9
ATOM      9  C5  <0> d          -1.645   2.478   1.466  0.00  0.00     0.022 C 
ATOM     10  H6  <0> d          -1.868   1.541   1.976  0.00  0.00     0.049 H 
ATOM     11  H7  <0> d          -0.827   2.985   1.979  0.00  0.00     0.049 H 
BRANCH   9  12
ATOM     12  C6  <0> d          -2.868   3.359   1.477  0.00  0.00     0.172 C 
ATOM     13  O2  <0> d          -3.363   3.718   0.435  0.00  0.00    -0.648 OA
ATOM     14  O3  <0> d          -3.406   3.745   2.644  0.00  0.00    -0.648 OA
ENDBRANCH   9  12
ENDBRANCH   6   9
ENDBRANCH   3   6
BRANCH   1  15
ATOM     15  C1  <0> d           1.853  -1.751  -0.025  0.00  0.00    -0.017 C 
ATOM     16  H1  <0> d           1.976  -2.084  -1.055  0.00  0.00     0.038 H 
ATOM     17  H2  <0> d           2.819  -1.766   0.480  0.00  0.00     0.038 H 
ATOM     18  H3  <0> d           1.163  -2.417   0.493  0.00  0.00     0.038 H 
ENDBRANCH   1  15
TORSDOF 4
