REMARK  4 active torsions:
REMARK  status: ('A' for Active; 'I' for Inactive)
REMARK    1  A    between atoms: C1_1  and  C2_2 
REMARK    2  A    between atoms: C2_2  and  C3_4 
REMARK    3  A    between atoms: C2_2  and  O1_13 
REMARK    4  A    between atoms: C4_5  and  C5_6 
ROOT
ATOM      1  C5  <0> d          -0.739   1.585   1.264  0.00  0.00    -0.035 C 
ATOM      2  H2  <0> d          -1.796   1.323   1.204  0.00  0.00     0.046 H 
ATOM      3  C6  <0> d          -0.013   1.086   0.008  0.00  0.00    -0.056 C 
ATOM      4  C7  <0> d          -0.761   1.597  -1.225  0.00  0.00    -0.050 C 
ATOM      5  C8  <0> d          -1.020   3.070  -1.099  0.00  0.00    -0.106 C 
ATOM      6  C9  <0> d          -0.952   3.725   0.015  0.00  0.00    -0.106 C 
ATOM      7  C10 <0> d          -0.594   3.106   1.335  0.00  0.00    -0.044 C 
ATOM      8  H8  <0> d           0.002  -0.004   0.002  0.00  0.00     0.034 H 
ATOM      9  H9  <0> d           1.009   1.466   0.000  0.00  0.00     0.034 H 
ATOM     10  H10 <0> d          -0.160   1.411  -2.115  0.00  0.00     0.038 H 
ATOM     11  H11 <0> d          -1.712   1.071  -1.314  0.00  0.00     0.038 H 
ATOM     12  H12 <0> d          -1.280   3.617  -1.993  0.00  0.00     0.076 H 
ATOM     13  H13 <0> d          -1.166   4.784  -0.006  0.00  0.00     0.076 H 
ATOM     14  H14 <0> d           0.437   3.356   1.583  0.00  0.00     0.039 H 
ATOM     15  H15 <0> d          -1.256   3.495   2.108  0.00  0.00     0.039 H 
ENDROOT
BRANCH   1  16
ATOM     16  C4  <0> d          -0.125   0.956   2.488  0.00  0.00    -0.100 C 
ATOM     17  C3  <0> d          -0.858   0.214   3.280  0.00  0.00    -0.080 C 
ATOM     18  H6  <0> d          -1.902   0.052   3.056  0.00  0.00     0.080 H 
ATOM     19  H7  <0> d           0.919   1.117   2.712  0.00  0.00     0.077 H 
BRANCH  17  20
ATOM     20  C2  <0> d          -0.244  -0.415   4.504  0.00  0.00     0.048 C 
ATOM     21  H1  <0> d           0.809  -0.142   4.564  0.00  0.00     0.088 H 
BRANCH  20  22
ATOM     22  C1  <0> d          -0.972   0.085   5.754  0.00  0.00    -0.049 C 
ATOM     23  H3  <0> d          -0.528  -0.370   6.639  0.00  0.00     0.031 H 
ATOM     24  H4  <0> d          -0.880   1.169   5.818  0.00  0.00     0.031 H 
ATOM     25  H5  <0> d          -2.025  -0.188   5.695  0.00  0.00     0.031 H 
ENDBRANCH  20  22
BRANCH  20  26
ATOM     26  O1  <0> d          -0.364  -1.837   4.420  0.00  0.00    -0.392 OA
ATOM     27  H16 <0> d           0.011  -2.308   5.177  0.00  0.00     0.210 HD
ENDBRANCH  20  26
ENDBRANCH  17  20
ENDBRANCH   1  16
TORSDOF 4
