REMARK  4 active torsions:
REMARK  status: ('A' for Active; 'I' for Inactive)
REMARK    1  A    between atoms: C1_1  and  C2_2 
REMARK    2  A    between atoms: C2_2  and  C5_6 
REMARK    3  A    between atoms: C3_3  and  C4_4 
REMARK    4  A    between atoms: C4_4  and  O1_5 
ROOT
ATOM      1  C5  <0> d           2.851   3.158   1.683  0.00  0.00    -0.083 C 
ATOM      2  C6  <0> d           3.628   2.636   2.391  0.00  0.00    -0.149 C 
ATOM      3  H8  <0> d           4.323   2.170   3.025  0.00  0.00     0.166 H 
ENDROOT
BRANCH   1   4
ATOM      4  C2  <0> d           1.903   3.795   0.818  0.00  0.00    -0.011 C 
ATOM      5  C3  <0> d           1.147   3.062   0.008  0.00  0.00    -0.067 C 
ATOM      6  H4  <0> d           0.432   3.542  -0.644  0.00  0.00     0.081 H 
BRANCH   4   7
ATOM      7  C1  <0> d           1.764   5.295   0.827  0.00  0.00    -0.044 C 
ATOM      8  H1  <0> d           1.014   5.586   1.563  0.00  0.00     0.034 H 
ATOM      9  H2  <0> d           2.721   5.747   1.087  0.00  0.00     0.034 H 
ATOM     10  H3  <0> d           1.456   5.638  -0.161  0.00  0.00     0.034 H 
ENDBRANCH   4   7
BRANCH   5  11
ATOM     11  C4  <0> d           1.286   1.562  -0.002  0.00  0.00     0.033 C 
ATOM     12  H5  <0> d           1.840   1.243   0.881  0.00  0.00     0.080 H 
ATOM     13  H6  <0> d           1.823   1.252  -0.899  0.00  0.00     0.080 H 
BRANCH  11  14
ATOM     14  O1  <0> d          -0.011   0.963   0.007  0.00  0.00    -0.397 OA
ATOM     15  H7  <0> d           0.002  -0.004   0.002  0.00  0.00     0.209 HD
ENDBRANCH  11  14
ENDBRANCH   5  11
ENDBRANCH   1   4
TORSDOF 4
