REMARK  2 active torsions:
REMARK  status: ('A' for Active; 'I' for Inactive)
REMARK    1  A    between atoms: C1_1  and  C2_2 
REMARK    2  A    between atoms: C9_11  and  N3_12 
ROOT
ATOM      1  C2  <0> d           0.002  -0.004   0.002  0.00  0.00    -0.030 A 
ATOM      2  C3  <0> d           0.006  -0.682  -1.179  0.00  0.00    -0.075 A 
ATOM      3  C4  <0> d           0.025  -2.075  -1.209  0.00  0.00    -0.081 A 
ATOM      4  C5  <0> d           0.041  -2.799  -0.054  0.00  0.00    -0.068 A 
ATOM      5  C6  <0> d           0.037  -2.133   1.176  0.00  0.00     0.023 A 
ATOM      6  C7  <0> d           0.023  -0.716   1.212  0.00  0.00     0.097 A 
ATOM      7  N1  <0> d           0.025  -0.093   2.395  0.00  0.00    -0.149 NA
ATOM      8  N2  <0> d           0.044  -0.745   3.501  0.00  0.00    -0.160 NA
ATOM      9  C8  <0> d           0.063  -2.067   3.568  0.00  0.00     0.050 A 
ATOM     10  C9  <0> d           0.053  -2.829   2.409  0.00  0.00     0.058 A 
ATOM     11  H4  <0> d          -0.007  -0.131  -2.108  0.00  0.00     0.084 H 
ATOM     12  H5  <0> d           0.027  -2.587  -2.160  0.00  0.00     0.083 H 
ATOM     13  H6  <0> d           0.055  -3.878  -0.089  0.00  0.00     0.085 H 
ATOM     14  H7  <0> d           0.078  -2.555   4.531  0.00  0.00     0.121 H 
ENDROOT
BRANCH   1  15
ATOM     15  C1  <0> d          -0.018   1.503   0.010  0.00  0.00    -0.049 C 
ATOM     16  H1  <0> d           1.004   1.880   0.003  0.00  0.00     0.033 H 
ATOM     17  H2  <0> d          -0.545   1.864  -0.873  0.00  0.00     0.033 H 
ATOM     18  H3  <0> d          -0.529   1.854   0.907  0.00  0.00     0.033 H 
ENDBRANCH   1  15
BRANCH  10  19
ATOM     19  N3  <0> d           0.072  -4.215   2.456  0.00  0.00    -0.397 N 
ATOM     20  H8  <0> d           0.076  -4.728   1.633  0.00  0.00     0.156 HD
ATOM     21  H9  <0> d           0.082  -4.671   3.312  0.00  0.00     0.156 HD
ENDBRANCH  10  19
TORSDOF 2
