REMARK  2 active torsions:
REMARK  status: ('A' for Active; 'I' for Inactive)
REMARK    1  A    between atoms: C1_1  and  C2_2 
REMARK    2  A    between atoms: C8_12  and  C9_14 
ROOT
ATOM      1  C2  <0> d          -2.212   0.941   0.827  0.00  0.00    -0.053 C 
ATOM      2  H1  <0> d          -2.089  -0.150   1.033  0.00  0.00     0.040 H 
ATOM      3  C3  <0> d          -2.317   1.097  -0.706  0.00  0.00    -0.058 C 
ATOM      4  C4  <0> d          -0.935   1.667  -1.130  0.00  0.00    -0.049 C 
ATOM      5  H2  <0> d          -0.617   1.446  -2.151  0.00  0.00     0.040 H 
ATOM      6  C5  <0> d          -0.013   1.081   0.008  0.00  0.00    -0.056 C 
ATOM      7  C6  <0> d          -0.888   1.640   1.209  0.00  0.00    -0.035 C 
ATOM      8  H3  <0> d          -0.487   1.397   2.202  0.00  0.00     0.042 H 
ATOM      9  C7  <0> d          -0.875   3.134   0.822  0.00  0.00     0.037 C 
ATOM     10  H4  <0> d           0.121   3.549   1.119  0.00  0.00     0.064 H 
ATOM     11  C8  <0> d          -0.925   3.167  -0.722  0.00  0.00    -0.038 C 
ATOM     12  H5  <0> d          -0.004   3.639  -1.099  0.00  0.00     0.042 H 
ATOM     13  C10 <0> d          -1.888   3.983   1.434  0.00  0.00     0.064 C 
ATOM     14  N1  <0> d          -2.678   4.644   1.912  0.00  0.00    -0.197 NA
ATOM     15  H9  <0> d          -3.156   1.713  -0.988  0.00  0.00     0.034 H 
ATOM     16  H10 <0> d          -2.450   0.100  -1.157  0.00  0.00     0.034 H 
ATOM     17  H11 <0> d           0.002  -0.004   0.002  0.00  0.00     0.034 H 
ATOM     18  H12 <0> d           0.977   1.525   0.001  0.00  0.00     0.034 H 
ENDROOT
BRANCH  11  19
ATOM     19  C9  <0> d          -2.131   3.941  -1.233  0.00  0.00    -0.071 C 
ATOM     20  H13 <0> d          -3.043   3.498  -0.832  0.00  0.00     0.028 H 
ATOM     21  H14 <0> d          -2.059   4.980  -0.911  0.00  0.00     0.028 H 
ATOM     22  H15 <0> d          -2.155   3.898  -2.322  0.00  0.00     0.028 H 
ENDBRANCH  11  19
BRANCH   1  23
ATOM     23  C1  <0> d          -3.456   1.400   1.558  0.00  0.00    -0.072 C 
ATOM     24  H6  <0> d          -4.306   0.794   1.244  0.00  0.00     0.028 H 
ATOM     25  H7  <0> d          -3.308   1.289   2.632  0.00  0.00     0.028 H 
ATOM     26  H8  <0> d          -3.649   2.447   1.324  0.00  0.00     0.028 H 
ENDBRANCH   1  23
TORSDOF 2
