REMARK  2 active torsions:
REMARK  status: ('A' for Active; 'I' for Inactive)
REMARK    1  A    between atoms: C1_1  and  C2_2 
REMARK    2  A    between atoms: C6_9  and  C7_10 
ROOT
ATOM      1  C2  <0> d          -0.018   1.503   0.010  0.00  0.00    -0.040 A 
ATOM      2  C3  <0> d           1.186   2.221   0.003  0.00  0.00    -0.070 A 
ATOM      3  C4  <0> d           1.149   3.584   0.010  0.00  0.00    -0.017 A 
ATOM      4  C5  <0> d          -0.094   4.239   0.025  0.00  0.00     0.245 A 
ATOM      5  O1  <0> d          -0.142   5.459   0.031  0.00  0.00    -0.268 OA
ATOM      6  N1  <0> d          -1.234   3.521   0.032  0.00  0.00    -0.327 N 
ATOM      7  H1  <0> d          -2.115   3.993   0.047  0.00  0.00     0.169 HD
ATOM      8  C6  <0> d          -1.199   2.164   0.019  0.00  0.00     0.014 A 
ATOM      9  H5  <0> d           2.132   1.700  -0.009  0.00  0.00     0.084 H 
ATOM     10  H6  <0> d           2.066   4.155   0.004  0.00  0.00     0.092 H 
ENDROOT
BRANCH   1  11
ATOM     11  C1  <0> d           0.002  -0.004   0.002  0.00  0.00    -0.049 C 
ATOM     12  H2  <0> d           1.034  -0.353  -0.010  0.00  0.00     0.033 H 
ATOM     13  H3  <0> d          -0.498  -0.379   0.895  0.00  0.00     0.033 H 
ATOM     14  H4  <0> d          -0.515  -0.370  -0.885  0.00  0.00     0.033 H 
ENDBRANCH   1  11
BRANCH   8  15
ATOM     15  C7  <0> d          -2.490   1.385   0.022  0.00  0.00    -0.037 C 
ATOM     16  H7  <0> d          -2.796   1.193   1.050  0.00  0.00     0.035 H 
ATOM     17  H8  <0> d          -3.263   1.962  -0.485  0.00  0.00     0.035 H 
ATOM     18  H9  <0> d          -2.344   0.438  -0.497  0.00  0.00     0.035 H 
ENDBRANCH   8  15
TORSDOF 2
