REMARK  7 active torsions:
REMARK  status: ('A' for Active; 'I' for Inactive)
REMARK    1  A    between atoms: C1_1  and  C2_2 
REMARK    2  A    between atoms: C2_2  and  C3_3 
REMARK    3  A    between atoms: C3_3  and  O2_5 
REMARK    4  A    between atoms: O2_5  and  C4_6 
REMARK    5  A    between atoms: C4_6  and  C5_7 
REMARK    6  A    between atoms: C6_8  and  C7_9 
REMARK    7  A    between atoms: C8_10  and  C9_11 
ROOT
ATOM      1  C4  <0> d          -3.753   1.850   0.030  0.00  0.00     0.044 C 
ATOM      2  H6  <0> d          -4.196   1.790   1.024  0.00  0.00     0.081 H 
ATOM      3  H7  <0> d          -3.587   2.895  -0.231  0.00  0.00     0.081 H 
ENDROOT
BRANCH   1   4
ATOM      4  O2  <0> d          -4.653   1.246  -0.937  0.00  0.00    -0.318 OA
BRANCH   4   5
ATOM      5  C3  <0> d          -5.875   1.788  -1.053  0.00  0.00     0.258 C 
ATOM      6  O1  <0> d          -6.184   2.735  -0.369  0.00  0.00    -0.265 OA
BRANCH   5   7
ATOM      7  C2  <0> d          -6.864   1.216  -2.036  0.00  0.00     0.013 C 
ATOM      8  H4  <0> d          -6.452   1.278  -3.043  0.00  0.00     0.047 H 
ATOM      9  H5  <0> d          -7.060   0.172  -1.788  0.00  0.00     0.047 H 
BRANCH   7  10
ATOM     10  C1  <0> d          -8.169   2.010  -1.969  0.00  0.00    -0.068 C 
ATOM     11  H1  <0> d          -8.581   1.948  -0.962  0.00  0.00     0.028 H 
ATOM     12  H2  <0> d          -7.973   3.053  -2.217  0.00  0.00     0.028 H 
ATOM     13  H3  <0> d          -8.884   1.596  -2.680  0.00  0.00     0.028 H 
ENDBRANCH   7  10
ENDBRANCH   5   7
ENDBRANCH   4   5
ENDBRANCH   1   4
BRANCH   1  14
ATOM     14  C5  <0> d          -2.438   1.114   0.020  0.00  0.00    -0.080 C 
ATOM     15  C6  <0> d          -1.296   1.794   0.018  0.00  0.00    -0.085 C 
ATOM     16  H9  <0> d          -1.311   2.874   0.024  0.00  0.00     0.083 H 
ATOM     17  H8  <0> d          -2.423   0.034   0.014  0.00  0.00     0.080 H 
BRANCH  15  18
ATOM     18  C7  <0> d          -0.013   1.076   0.008  0.00  0.00    -0.087 C 
ATOM     19  C8  <0> d           1.129   1.756   0.001  0.00  0.00    -0.107 C 
ATOM     20  H11 <0> d           1.114   2.836   0.007  0.00  0.00     0.076 H 
ATOM     21  H10 <0> d           0.002  -0.004   0.002  0.00  0.00     0.083 H 
BRANCH  19  22
ATOM     22  C9  <0> d           2.444   1.020  -0.016  0.00  0.00    -0.060 C 
ATOM     23  H12 <0> d           2.502   0.399  -0.910  0.00  0.00     0.032 H 
ATOM     24  H13 <0> d           3.263   1.740  -0.020  0.00  0.00     0.032 H 
ATOM     25  H14 <0> d           2.519   0.390   0.870  0.00  0.00     0.032 H 
ENDBRANCH  19  22
ENDBRANCH  15  18
ENDBRANCH   1  14
TORSDOF 7
