REMARK  3 active torsions:
REMARK  status: ('A' for Active; 'I' for Inactive)
REMARK    1  A    between atoms: C1_1  and  C2_2 
REMARK    2  A    between atoms: C2_2  and  C3_3 
REMARK    3  A    between atoms: C8_8  and  O1_9 
ROOT
ATOM      1  C3  <0> d           0.000   1.080   2.488  0.00  0.00    -0.022 A 
ATOM      2  C4  <0> d          -0.414  -0.080   3.113  0.00  0.00    -0.037 A 
ATOM      3  C5  <0> d           0.259  -0.542   4.232  0.00  0.00     0.117 A 
ATOM      4  C6  <0> d           1.340   0.164   4.732  0.00  0.00    -0.043 A 
ATOM      5  C7  <0> d           1.752   1.327   4.112  0.00  0.00    -0.048 A 
ATOM      6  C8  <0> d           1.083   1.788   2.987  0.00  0.00     0.072 A 
ATOM      7  F1  <0> d          -0.143  -1.680   4.840  0.00  0.00    -0.206 F 
ATOM      8  H6  <0> d          -1.259  -0.630   2.727  0.00  0.00     0.089 H 
ATOM      9  H7  <0> d           1.861  -0.194   5.607  0.00  0.00     0.088 H 
ATOM     10  H8  <0> d           2.595   1.878   4.502  0.00  0.00     0.087 H 
ENDROOT
BRANCH   1  11
ATOM     11  C2  <0> d          -0.729   1.579   1.267  0.00  0.00    -0.042 C 
ATOM     12  H4  <0> d          -0.744   2.669   1.273  0.00  0.00     0.039 H 
ATOM     13  H5  <0> d          -1.751   1.202   1.275  0.00  0.00     0.039 H 
BRANCH  11  14
ATOM     14  C1  <0> d          -0.013   1.086   0.008  0.00  0.00    -0.073 C 
ATOM     15  H1  <0> d           0.002  -0.004   0.002  0.00  0.00     0.028 H 
ATOM     16  H2  <0> d           1.010   1.463   0.000  0.00  0.00     0.028 H 
ATOM     17  H3  <0> d          -0.540   1.447  -0.875  0.00  0.00     0.028 H 
ENDBRANCH  11  14
ENDBRANCH   1  11
BRANCH   6  18
ATOM     18  O1  <0> d           1.488   2.933   2.375  0.00  0.00    -0.360 OA
ATOM     19  H9  <0> d           1.061   3.732   2.714  0.00  0.00     0.217 HD
ENDBRANCH   6  18
TORSDOF 3
