REMARK  5 active torsions:
REMARK  status: ('A' for Active; 'I' for Inactive)
REMARK    1  A    between atoms: C1_1  and  C2_2 
REMARK    2  A    between atoms: C2_2  and  C3_3 
REMARK    3  A    between atoms: C3_3  and  C4_4 
REMARK    4  A    between atoms: C4_4  and  C5_5 
REMARK    5  A    between atoms: C5_5  and  C6_6 
ROOT
ATOM      1  C4  <0> d          -1.413  -2.063   0.004  0.00  0.00    -0.061 C 
ATOM      2  H8  <0> d          -0.902  -2.415  -0.892  0.00  0.00     0.033 H 
ATOM      3  H9  <0> d          -0.885  -2.425   0.887  0.00  0.00     0.033 H 
ENDROOT
BRANCH   1   4
ATOM      4  C3  <0> d          -1.433  -0.534   0.013  0.00  0.00    -0.065 C 
ATOM      5  H6  <0> d          -1.944  -0.182   0.910  0.00  0.00     0.033 H 
ATOM      6  H7  <0> d          -1.960  -0.173  -0.870  0.00  0.00     0.033 H 
BRANCH   4   7
ATOM      7  C2  <0> d           0.002  -0.004   0.002  0.00  0.00    -0.069 C 
ATOM      8  H4  <0> d           0.512  -0.356  -0.895  0.00  0.00     0.032 H 
ATOM      9  H5  <0> d           0.529  -0.365   0.885  0.00  0.00     0.032 H 
BRANCH   7  10
ATOM     10  C1  <0> d          -0.019   1.526   0.010  0.00  0.00    -0.077 C 
ATOM     11  H1  <0> d           1.004   1.903   0.003  0.00  0.00     0.027 H 
ATOM     12  H2  <0> d          -0.546   1.887  -0.873  0.00  0.00     0.027 H 
ATOM     13  H3  <0> d          -0.529   1.877   0.907  0.00  0.00     0.027 H 
ENDBRANCH   7  10
ENDBRANCH   4   7
ENDBRANCH   1   4
BRANCH   1  14
ATOM     14  C5  <0> d          -2.848  -2.593   0.015  0.00  0.00    -0.040 C 
ATOM     15  H10 <0> d          -3.358  -2.241   0.912  0.00  0.00     0.040 H 
ATOM     16  H11 <0> d          -3.375  -2.232  -0.868  0.00  0.00     0.040 H 
BRANCH  14  17
ATOM     17  C6  <0> d          -2.828  -4.100   0.007  0.00  0.00    -0.041 A 
ATOM     18  C10 <0> d          -2.807  -4.806   1.195  0.00  0.00     0.008 A 
ATOM     19  N1  <0> d          -2.795  -6.125   1.196  0.00  0.00    -0.273 NA
ATOM     20  H15 <0> d          -2.805  -4.271   2.133  0.00  0.00     0.115 H 
ATOM     21  C9  <0> d          -2.790  -6.819   0.074  0.00  0.00     0.002 A 
ATOM     22  C8  <0> d          -2.805  -6.181  -1.152  0.00  0.00    -0.066 A 
ATOM     23  H14 <0> d          -2.776  -7.898   0.115  0.00  0.00     0.114 H 
ATOM     24  C7  <0> d          -2.824  -4.795  -1.193  0.00  0.00    -0.074 A 
ATOM     25  H13 <0> d          -2.801  -6.755  -2.067  0.00  0.00     0.085 H 
ATOM     26  H12 <0> d          -2.836  -4.270  -2.136  0.00  0.00     0.084 H 
ENDBRANCH  14  17
ENDBRANCH   1  14
TORSDOF 5
