REMARK  6 active torsions:
REMARK  status: ('A' for Active; 'I' for Inactive)
REMARK    1  A    between atoms: C1_1  and  C2_2 
REMARK    2  A    between atoms: C2_2  and  C3_3 
REMARK    3  A    between atoms: C3_3  and  C4_4 
REMARK    4  A    between atoms: C4_4  and  N1_5 
REMARK    5  A    between atoms: C5_6  and  C10_11 
REMARK    6  A    between atoms: C8_9  and  C9_10 
ROOT
ATOM      1  N1  <0> d           2.073   0.729  -0.014  0.00  0.00    -0.355 N 
ATOM      2  C5  <0> d           1.264   1.826  -0.000  0.00  0.00     0.008 A 
ATOM      3  C6  <0> d          -0.017   1.405   0.010  0.00  0.00    -0.060 A 
ATOM      4  C7  <0> d           0.002  -0.004   0.002  0.00  0.00    -0.060 A 
ATOM      5  C8  <0> d           1.294  -0.390  -0.012  0.00  0.00     0.008 A 
ATOM      6  H10 <0> d          -0.896   2.032   0.018  0.00  0.00     0.086 H 
ATOM      7  H11 <0> d          -0.860  -0.655   0.006  0.00  0.00     0.086 H 
ENDROOT
BRANCH   1   8
ATOM      8  C4  <0> d           3.538   0.749  -0.027  0.00  0.00    -0.000 C 
ATOM      9  H8  <0> d           3.894   1.641   0.488  0.00  0.00     0.064 H 
ATOM     10  H9  <0> d           3.918  -0.139   0.478  0.00  0.00     0.064 H 
BRANCH   8  11
ATOM     11  C3  <0> d           4.035   0.763  -1.474  0.00  0.00    -0.050 C 
ATOM     12  H6  <0> d           3.679  -0.129  -1.990  0.00  0.00     0.035 H 
ATOM     13  H7  <0> d           3.655   1.651  -1.980  0.00  0.00     0.035 H 
BRANCH  11  14
ATOM     14  C2  <0> d           5.564   0.784  -1.488  0.00  0.00    -0.067 C 
ATOM     15  H4  <0> d           5.920   1.676  -0.973  0.00  0.00     0.032 H 
ATOM     16  H5  <0> d           5.945  -0.104  -0.983  0.00  0.00     0.032 H 
BRANCH  14  17
ATOM     17  C1  <0> d           6.061   0.798  -2.936  0.00  0.00    -0.076 C 
ATOM     18  H1  <0> d           7.151   0.813  -2.946  0.00  0.00     0.027 H 
ATOM     19  H2  <0> d           5.705  -0.094  -3.451  0.00  0.00     0.027 H 
ATOM     20  H3  <0> d           5.681   1.686  -3.441  0.00  0.00     0.027 H 
ENDBRANCH  14  17
ENDBRANCH  11  14
ENDBRANCH   8  11
ENDBRANCH   1   8
BRANCH   5  21
ATOM     21  C9  <0> d           1.791  -1.813  -0.025  0.00  0.00    -0.037 C 
ATOM     22  H12 <0> d           1.900  -2.151  -1.055  0.00  0.00     0.035 H 
ATOM     23  H13 <0> d           2.756  -1.865   0.479  0.00  0.00     0.035 H 
ATOM     24  H14 <0> d           1.076  -2.452   0.493  0.00  0.00     0.035 H 
ENDBRANCH   5  21
BRANCH   2  25
ATOM     25  C10 <0> d           1.722   3.261   0.003  0.00  0.00    -0.037 C 
ATOM     26  H15 <0> d           1.843   3.602   1.032  0.00  0.00     0.035 H 
ATOM     27  H16 <0> d           2.675   3.340  -0.520  0.00  0.00     0.035 H 
ATOM     28  H17 <0> d           0.980   3.881  -0.500  0.00  0.00     0.035 H 
ENDBRANCH   2  25
TORSDOF 6
