REMARK  3 active torsions:
REMARK  status: ('A' for Active; 'I' for Inactive)
REMARK    1  A    between atoms: C1_1  and  C2_2 
REMARK    2  A    between atoms: C3_3  and  C4_4 
REMARK    3  A    between atoms: C7_8  and  N3_10 
ROOT
ATOM      1  C4  <0> d           0.037  -2.610  -0.012  0.00  0.00     0.130 A 
ATOM      2  C5  <0> d           1.252  -3.304  -0.022  0.00  0.00    -0.029 A 
ATOM      3  C6  <0> d           1.221  -4.687  -0.029  0.00  0.00     0.024 A 
ATOM      4  N1  <0> d           0.051  -5.308  -0.026  0.00  0.00    -0.075 NA
ATOM      5  C7  <0> d          -1.085  -4.626  -0.017  0.00  0.00     0.721 A 
ATOM      6  N2  <0> d          -1.101  -3.302  -0.005  0.00  0.00    -0.054 NA
ATOM      7  H4  <0> d           2.193  -2.773  -0.024  0.00  0.00     0.090 H 
ATOM      8  H5  <0> d           2.140  -5.254  -0.036  0.00  0.00     0.115 H 
ENDROOT
BRANCH   1   9
ATOM      9  C3  <0> d           0.018  -1.178  -0.004  0.00  0.00    -0.046 C 
ATOM     10  C2  <0> d           0.002  -0.004   0.002  0.00  0.00    -0.104 C 
BRANCH  10  11
ATOM     11  C1  <0> d          -0.018   1.468   0.010  0.00  0.00    -0.021 C 
ATOM     12  H1  <0> d           1.005   1.845   0.002  0.00  0.00     0.044 H 
ATOM     13  H2  <0> d          -0.545   1.829  -0.873  0.00  0.00     0.044 H 
ATOM     14  H3  <0> d          -0.528   1.819   0.907  0.00  0.00     0.044 H 
ENDBRANCH  10  11
ENDBRANCH   1   9
BRANCH   5  15
ATOM     15  N3  <0> d          -2.285  -5.315  -0.015  0.00  0.00    -0.231 N 
ATOM     16  H6  <0> d          -2.287  -6.285  -0.020  0.00  0.00     0.174 HD
ATOM     17  H7  <0> d          -3.124  -4.828  -0.008  0.00  0.00     0.174 HD
ENDBRANCH   5  15
TORSDOF 3
