REMARK  0 active torsions:
REMARK  status: ('A' for Active; 'I' for Inactive)
ROOT
ATOM      1  C1  <0> d          -0.016   1.315   0.009  0.00  0.00     0.043 A 
ATOM      2  C2  <0> d           0.002  -0.004   0.002  0.00  0.00     0.043 A 
ATOM      3  O1  <0> d           1.189  -0.671  -0.013  0.00  0.00    -0.294 OA
ATOM      4  C3  <0> d           2.361   0.024  -0.020  0.00  0.00     0.250 A 
ATOM      5  C4  <0> d           2.344   1.350  -0.013  0.00  0.00     0.250 A 
ATOM      6  O2  <0> d           1.153   2.014   0.002  0.00  0.00    -0.294 OA
ATOM      7  O3  <0> d           3.516   2.046  -0.021  0.00  0.00    -0.294 OA
ATOM      8  C5  <0> d           4.703   1.379  -0.037  0.00  0.00     0.043 A 
ATOM      9  C6  <0> d           4.721   0.060  -0.044  0.00  0.00     0.043 A 
ATOM     10  O4  <0> d           3.552  -0.639  -0.036  0.00  0.00    -0.294 OA
ATOM     11  H1  <0> d          -0.959   1.841   0.017  0.00  0.00     0.126 H 
ATOM     12  H2  <0> d          -0.926  -0.556   0.008  0.00  0.00     0.126 H 
ATOM     13  H3  <0> d           5.631   1.930  -0.044  0.00  0.00     0.126 H 
ATOM     14  H4  <0> d           5.664  -0.466  -0.056  0.00  0.00     0.126 H 
ENDROOT
TORSDOF 0
