REMARK  4 active torsions:
REMARK  status: ('A' for Active; 'I' for Inactive)
REMARK    1  A    between atoms: C1_1  and  C2_2 
REMARK    2  A    between atoms: C2_2  and  O2_11 
REMARK    3  A    between atoms: C4_4  and  C6_9 
REMARK    4  A    between atoms: C4_4  and  C7_10 
ROOT
ATOM      1  C2  <0> d          -0.029   0.078  -0.175  0.00  0.00     0.133 C 
ATOM      2  C3  <0> d           0.734  -0.509  -1.369  0.00  0.00     0.004 C 
ATOM      3  C4  <0> d           0.837  -2.026  -1.184  0.00  0.00     0.031 C 
ATOM      4  N1  <0> d           1.457  -2.312   0.111  0.00  0.00    -0.334 N 
ATOM      5  C5  <0> d           1.327  -1.470   1.147  0.00  0.00     0.319 C 
ATOM      6  O1  <0> d           1.855  -1.760   2.204  0.00  0.00    -0.247 OA
ATOM      7  N2  <0> d           0.639  -0.322   1.064  0.00  0.00    -0.311 N 
ATOM      8  H4  <0> d           0.196  -0.288  -2.291  0.00  0.00     0.043 H 
ATOM      9  H5  <0> d           1.734  -0.077  -1.412  0.00  0.00     0.043 H 
ATOM     10  H6  <0> d           1.973  -3.126   0.221  0.00  0.00     0.165 HD
ATOM     11  H7  <0> d           0.583   0.256   1.842  0.00  0.00     0.167 HD
ENDROOT
BRANCH   3  12
ATOM     12  C6  <0> d          -0.563  -2.643  -1.226  0.00  0.00    -0.053 C 
ATOM     13  H8  <0> d          -1.091  -2.286  -2.111  0.00  0.00     0.030 H 
ATOM     14  H9  <0> d          -0.481  -3.729  -1.266  0.00  0.00     0.030 H 
ATOM     15  H10 <0> d          -1.115  -2.352  -0.332  0.00  0.00     0.030 H 
ENDBRANCH   3  12
BRANCH   3  16
ATOM     16  C7  <0> d           1.693  -2.621  -2.304  0.00  0.00    -0.053 C 
ATOM     17  H11 <0> d           2.690  -2.183  -2.270  0.00  0.00     0.030 H 
ATOM     18  H12 <0> d           1.765  -3.700  -2.171  0.00  0.00     0.030 H 
ATOM     19  H13 <0> d           1.232  -2.403  -3.267  0.00  0.00     0.030 H 
ENDBRANCH   3  16
BRANCH   1  20
ATOM     20  C1  <0> d          -0.044   1.604  -0.279  0.00  0.00    -0.031 C 
ATOM     21  H1  <0> d           0.979   1.979  -0.281  0.00  0.00     0.034 H 
ATOM     22  H2  <0> d          -0.542   1.901  -1.202  0.00  0.00     0.034 H 
ATOM     23  H3  <0> d          -0.582   2.020   0.573  0.00  0.00     0.034 H 
ENDBRANCH   1  20
BRANCH   1  24
ATOM     24  O2  <0> d          -1.370  -0.415  -0.175  0.00  0.00    -0.371 OA
ATOM     25  H14 <0> d          -1.910  -0.086   0.556  0.00  0.00     0.212 HD
ENDBRANCH   1  24
TORSDOF 4
