REMARK  5 active torsions:
REMARK  status: ('A' for Active; 'I' for Inactive)
REMARK    1  A    between atoms: C1_1  and  N1_2 
REMARK    2  A    between atoms: C4_6  and  S1_7 
REMARK    3  A    between atoms: S1_7  and  C5_8 
REMARK    4  A    between atoms: C5_8  and  C6_9 
REMARK    5  A    between atoms: C6_9  and  O1_10 
ROOT
ATOM      1  N1  <0> d           0.603   3.174   0.013  0.00  0.00    -0.339 N 
ATOM      2  C2  <0> d           1.066   1.877   0.002  0.00  0.00    -0.002 A 
ATOM      3  C3  <0> d          -0.013   1.076   0.008  0.00  0.00     0.020 A 
ATOM      4  N2  <0> d          -1.113   1.847   0.017  0.00  0.00    -0.235 NA
ATOM      5  C4  <0> d          -0.756   3.111   0.025  0.00  0.00     0.167 A 
ATOM      6  H4  <0> d           2.100   1.564  -0.009  0.00  0.00     0.113 H 
ATOM      7  H5  <0> d           0.002  -0.004   0.002  0.00  0.00     0.117 H 
ENDROOT
BRANCH   5   8
ATOM      8  S1  <0> d          -1.852   4.491   0.042  0.00  0.00    -0.090 SA
BRANCH   8   9
ATOM      9  C5  <0> d          -3.443   3.628   0.052  0.00  0.00     0.004 C 
ATOM     10  H6  <0> d          -3.526   3.007  -0.840  0.00  0.00     0.052 H 
ATOM     11  H7  <0> d          -3.510   2.999   0.940  0.00  0.00     0.052 H 
BRANCH   9  12
ATOM     12  C6  <0> d          -4.579   4.653   0.068  0.00  0.00     0.025 C 
ATOM     13  H8  <0> d          -4.496   5.274   0.960  0.00  0.00     0.075 H 
ATOM     14  H9  <0> d          -4.513   5.282  -0.820  0.00  0.00     0.075 H 
BRANCH  12  15
ATOM     15  O1  <0> d          -5.835   3.973   0.076  0.00  0.00    -0.400 OA
ATOM     16  H10 <0> d          -6.602   4.562   0.086  0.00  0.00     0.209 HD
ENDBRANCH  12  15
ENDBRANCH   9  12
ENDBRANCH   8   9
ENDBRANCH   5   8
BRANCH   1  17
ATOM     17  C1  <0> d           1.419   4.391   0.011  0.00  0.00    -0.013 C 
ATOM     18  H1  <0> d           1.612   4.698  -1.017  0.00  0.00     0.057 H 
ATOM     19  H2  <0> d           0.888   5.185   0.535  0.00  0.00     0.057 H 
ATOM     20  H3  <0> d           2.366   4.194   0.515  0.00  0.00     0.057 H 
ENDBRANCH   1  17
TORSDOF 5
