REMARK  2 active torsions:
REMARK  status: ('A' for Active; 'I' for Inactive)
REMARK    1  A    between atoms: C3_3  and  N1_10 
REMARK    2  A    between atoms: C6_6  and  C7_7 
ROOT
ATOM      1  C1  <0> d          -1.215   1.747   0.017  0.00  0.00    -0.064 A 
ATOM      2  C2  <0> d          -0.013   1.076   0.008  0.00  0.00    -0.054 A 
ATOM      3  C3  <0> d           1.183   1.787   0.000  0.00  0.00     0.064 A 
ATOM      4  C4  <0> d           1.169   3.181   0.007  0.00  0.00     0.143 A 
ATOM      5  C5  <0> d          -0.030   3.858   0.023  0.00  0.00    -0.027 A 
ATOM      6  C6  <0> d          -1.234   3.145   0.031  0.00  0.00     0.043 A 
ATOM      7  F1  <0> d           2.332   3.868   0.000  0.00  0.00    -0.204 F 
ATOM      8  H1  <0> d          -2.142   1.194   0.018  0.00  0.00     0.085 H 
ATOM      9  H2  <0> d           0.002  -0.004   0.002  0.00  0.00     0.087 H 
ATOM     10  H3  <0> d          -0.042   4.938   0.028  0.00  0.00     0.089 H 
ENDROOT
BRANCH   3  11
ATOM     11  N1  <0> d           2.396   1.105  -0.015  0.00  0.00    -0.397 N 
ATOM     12  H4  <0> d           2.407   0.135  -0.020  0.00  0.00     0.156 HD
ATOM     13  H5  <0> d           3.231   1.599  -0.020  0.00  0.00     0.156 HD
ENDBRANCH   3  11
BRANCH   6  14
ATOM     14  C7  <0> d          -2.519   3.865   0.047  0.00  0.00     0.209 C 
ATOM     15  O1  <0> d          -2.535   5.080   0.054  0.00  0.00    -0.644 OA
ATOM     16  O2  <0> d          -3.678   3.177   0.055  0.00  0.00    -0.644 OA
ENDBRANCH   6  14
TORSDOF 2
