REMARK  4 active torsions:
REMARK  status: ('A' for Active; 'I' for Inactive)
REMARK    1  A    between atoms: C1_1  and  O1_2 
REMARK    2  A    between atoms: O1_2  and  C2_3 
REMARK    3  A    between atoms: C5_6  and  O2_8 
REMARK    4  A    between atoms: O2_8  and  C6_9 
ROOT
ATOM      1  C2  <0> d          -1.976   1.163   1.348  0.00  0.00     0.111 A 
ATOM      2  C3  <0> d          -2.830   1.451   2.364  0.00  0.00    -0.041 A 
ATOM      3  C4  <0> d          -4.121   0.946   2.317  0.00  0.00    -0.041 A 
ATOM      4  C5  <0> d          -4.485   0.172   1.262  0.00  0.00     0.111 A 
ATOM      5  S1  <0> d          -2.988   0.143   0.289  0.00  0.00    -0.041 SA
ATOM      6  H4  <0> d          -2.510   2.065   3.193  0.00  0.00     0.088 H 
ATOM      7  H5  <0> d          -4.824   1.162   3.108  0.00  0.00     0.088 H 
ENDROOT
BRANCH   1   8
ATOM      8  O1  <0> d          -0.682   1.547   1.184  0.00  0.00    -0.349 OA
BRANCH   8   9
ATOM      9  C1  <0> d          -0.013   1.086   0.008  0.00  0.00     0.011 C 
ATOM     10  H1  <0> d           0.002  -0.004   0.002  0.00  0.00     0.067 H 
ATOM     11  H2  <0> d           1.010   1.463   0.000  0.00  0.00     0.067 H 
ATOM     12  H3  <0> d          -0.540   1.447  -0.875  0.00  0.00     0.067 H 
ENDBRANCH   8   9
ENDBRANCH   1   8
BRANCH   4  13
ATOM     13  O2  <0> d          -5.680  -0.426   1.011  0.00  0.00    -0.349 OA
BRANCH  13  14
ATOM     14  C6  <0> d          -5.783  -1.191  -0.191  0.00  0.00     0.011 C 
ATOM     15  H6  <0> d          -6.785  -1.613  -0.269  0.00  0.00     0.067 H 
ATOM     16  H7  <0> d          -5.592  -0.547  -1.049  0.00  0.00     0.067 H 
ATOM     17  H8  <0> d          -5.050  -1.998  -0.172  0.00  0.00     0.067 H 
ENDBRANCH  13  14
ENDBRANCH   4  13
TORSDOF 4
