REMARK  5 active torsions:
REMARK  status: ('A' for Active; 'I' for Inactive)
REMARK    1  A    between atoms: C1_1  and  C2_2 
REMARK    2  A    between atoms: C2_2  and  C3_3 
REMARK    3  A    between atoms: C2_2  and  O1_4 
REMARK    4  A    between atoms: O1_4  and  C4_5 
REMARK    5  A    between atoms: C4_5  and  C5_6 
ROOT
ATOM      1  C5  <0> d          -0.018   1.468   0.010  0.00  0.00     0.034 C 
ATOM      2  C6  <0> d           0.002  -0.004   0.002  0.00  0.00     0.061 C 
ATOM      3  N1  <0> d           0.018  -1.140  -0.004  0.00  0.00    -0.197 NA
ATOM      4  H10 <0> d           1.005   1.845   0.002  0.00  0.00     0.058 H 
ATOM      5  H11 <0> d          -0.545   1.829  -0.873  0.00  0.00     0.058 H 
ENDROOT
BRANCH   1   6
ATOM      6  C4  <0> d          -0.734   1.961   1.269  0.00  0.00     0.031 C 
ATOM      7  H8  <0> d          -1.757   1.584   1.277  0.00  0.00     0.075 H 
ATOM      8  H9  <0> d          -0.207   1.600   2.152  0.00  0.00     0.075 H 
BRANCH   6   9
ATOM      9  O1  <0> d          -0.753   3.390   1.277  0.00  0.00    -0.386 OA
BRANCH   9  10
ATOM     10  C2  <0> d          -1.403   3.956   2.417  0.00  0.00     0.031 C 
ATOM     11  H4  <0> d          -1.288   3.288   3.270  0.00  0.00     0.082 H 
BRANCH  10  12
ATOM     12  C1  <0> d          -0.773   5.312   2.742  0.00  0.00    -0.052 C 
ATOM     13  H1  <0> d          -0.888   5.980   1.889  0.00  0.00     0.030 H 
ATOM     14  H2  <0> d          -1.268   5.744   3.611  0.00  0.00     0.030 H 
ATOM     15  H3  <0> d           0.287   5.177   2.958  0.00  0.00     0.030 H 
ENDBRANCH  10  12
BRANCH  10  16
ATOM     16  C3  <0> d          -2.891   4.145   2.114  0.00  0.00    -0.052 C 
ATOM     17  H5  <0> d          -3.340   3.179   1.882  0.00  0.00     0.030 H 
ATOM     18  H6  <0> d          -3.387   4.577   2.983  0.00  0.00     0.030 H 
ATOM     19  H7  <0> d          -3.006   4.814   1.261  0.00  0.00     0.030 H 
ENDBRANCH  10  16
ENDBRANCH   9  10
ENDBRANCH   6   9
ENDBRANCH   1   6
TORSDOF 5
