REMARK  4 active torsions:
REMARK  status: ('A' for Active; 'I' for Inactive)
REMARK    1  A    between atoms: C1_1  and  C2_2 
REMARK    2  A    between atoms: C6_7  and  C7_9 
REMARK    3  A    between atoms: C6_7  and  C8_10 
REMARK    4  A    between atoms: C8_10  and  O2_11 
ROOT
ATOM      1  C2  <0> d          -2.885   0.971  -2.353  0.00  0.00     0.036 C 
ATOM      2  H1  <0> d          -3.652   0.196  -2.143  0.00  0.00     0.082 H 
ATOM      3  C3  <0> d          -2.115   0.515  -3.588  0.00  0.00    -0.041 C 
ATOM      4  C4  <0> d          -0.826   1.325  -3.733  0.00  0.00    -0.060 C 
ATOM      5  C5  <0> d           0.017   1.129  -2.473  0.00  0.00    -0.034 C 
ATOM      6  C6  <0> d          -0.759   1.597  -1.242  0.00  0.00     0.079 C 
ATOM      7  O1  <0> d          -2.076   1.096  -1.209  0.00  0.00    -0.373 OA
ATOM      8  H5  <0> d          -1.868  -0.545  -3.496  0.00  0.00     0.036 H 
ATOM      9  H6  <0> d          -2.733   0.656  -4.478  0.00  0.00     0.036 H 
ATOM     10  H7  <0> d          -0.267   0.959  -4.600  0.00  0.00     0.033 H 
ATOM     11  H8  <0> d          -1.054   2.377  -3.880  0.00  0.00     0.033 H 
ATOM     12  H9  <0> d           0.941   1.704  -2.560  0.00  0.00     0.037 H 
ATOM     13  H10 <0> d           0.267   0.071  -2.364  0.00  0.00     0.037 H 
ENDROOT
BRANCH   6  14
ATOM     14  C7  <0> d          -0.753   3.130  -1.188  0.00  0.00    -0.046 C 
ATOM     15  H11 <0> d           0.276   3.489  -1.185  0.00  0.00     0.031 H 
ATOM     16  H12 <0> d          -1.274   3.526  -2.059  0.00  0.00     0.031 H 
ATOM     17  H13 <0> d          -1.256   3.463  -0.280  0.00  0.00     0.031 H 
ENDBRANCH   6  14
BRANCH   6  18
ATOM     18  C8  <0> d          -0.013   1.086   0.008  0.00  0.00     0.045 C 
ATOM     19  H14 <0> d           0.002  -0.004   0.002  0.00  0.00     0.078 H 
ATOM     20  H15 <0> d           1.010   1.463   0.000  0.00  0.00     0.078 H 
BRANCH  18  21
ATOM     21  O2  <0> d          -0.682   1.547   1.184  0.00  0.00    -0.398 OA
ATOM     22  H16 <0> d          -0.266   1.262   2.009  0.00  0.00     0.209 HD
ENDBRANCH  18  21
ENDBRANCH   6  18
BRANCH   1  23
ATOM     23  C1  <0> d          -3.640   2.267  -2.656  0.00  0.00    -0.052 C 
ATOM     24  H2  <0> d          -2.925   3.072  -2.828  0.00  0.00     0.030 H 
ATOM     25  H3  <0> d          -4.254   2.130  -3.547  0.00  0.00     0.030 H 
ATOM     26  H4  <0> d          -4.279   2.522  -1.811  0.00  0.00     0.030 H 
ENDBRANCH   1  23
TORSDOF 4
