REMARK  3 active torsions:
REMARK  status: ('A' for Active; 'I' for Inactive)
REMARK    1  A    between atoms: C4_5  and  C6_8 
REMARK    2  A    between atoms: C6_8  and  C7_9 
REMARK    3  A    between atoms: C7_9  and  C8_10 
ROOT
ATOM      1  C1  <0> d          -0.019   1.528   0.010  0.00  0.00    -0.061 C 
ATOM      2  C2  <0> d           1.422   2.047  -0.001  0.00  0.00    -0.045 C 
ATOM      3  C3  <0> d           2.151   1.482  -1.223  0.00  0.00     0.020 C 
ATOM      4  O1  <0> d           2.106   0.054  -1.185  0.00  0.00    -0.386 OA
ATOM      5  C4  <0> d           0.785  -0.489  -1.221  0.00  0.00     0.039 C 
ATOM      6  H1  <0> d           0.281  -0.160  -2.129  0.00  0.00     0.083 H 
ATOM      7  C5  <0> d           0.002  -0.004   0.002  0.00  0.00    -0.041 C 
ATOM      8  H2  <0> d          -0.527   1.880   0.908  0.00  0.00     0.033 H 
ATOM      9  H3  <0> d          -0.544   1.890  -0.873  0.00  0.00     0.033 H 
ATOM     10  H4  <0> d           1.417   3.136  -0.050  0.00  0.00     0.036 H 
ATOM     11  H5  <0> d           1.932   1.726   0.908  0.00  0.00     0.036 H 
ATOM     12  H6  <0> d           1.664   1.837  -2.132  0.00  0.00     0.074 H 
ATOM     13  H7  <0> d           3.189   1.814  -1.213  0.00  0.00     0.074 H 
ATOM     14  H8  <0> d           0.483  -0.367   0.910  0.00  0.00     0.036 H 
ATOM     15  H9  <0> d          -1.019  -0.382  -0.046  0.00  0.00     0.036 H 
ENDROOT
BRANCH   5  16
ATOM     16  C6  <0> d           0.862  -2.017  -1.204  0.00  0.00    -0.032 C 
ATOM     17  H10 <0> d           1.443  -2.343  -0.341  0.00  0.00     0.037 H 
ATOM     18  H11 <0> d          -0.145  -2.431  -1.142  0.00  0.00     0.037 H 
BRANCH  16  19
ATOM     19  C7  <0> d           1.536  -2.508  -2.487  0.00  0.00     0.018 C 
ATOM     20  H12 <0> d           0.955  -2.182  -3.350  0.00  0.00     0.049 H 
ATOM     21  H13 <0> d           2.543  -2.094  -2.550  0.00  0.00     0.049 H 
BRANCH  19  22
ATOM     22  C8  <0> d           1.611  -4.013  -2.471  0.00  0.00     0.172 C 
ATOM     23  O2  <0> d           1.167  -4.635  -1.522  0.00  0.00    -0.648 OA
ATOM     24  O3  <0> d           2.117  -4.608  -3.408  0.00  0.00    -0.648 OA
ENDBRANCH  19  22
ENDBRANCH  16  19
ENDBRANCH   5  16
TORSDOF 3
