REMARK  2 active torsions:
REMARK  status: ('A' for Active; 'I' for Inactive)
REMARK    1  A    between atoms: C3_3  and  C4_4 
REMARK    2  A    between atoms: C3_3  and  C5_6 
ROOT
ATOM      1  C1  <0> d          -0.019   1.526   0.010  0.00  0.00    -0.039 A 
ATOM      2  C2  <0> d           0.002  -0.004   0.002  0.00  0.00    -0.039 A 
ATOM      3  C3  <0> d           1.317   0.779  -0.006  0.00  0.00     0.145 A 
ATOM      4  H1  <0> d          -0.325   2.030  -0.906  0.00  0.00     0.035 H 
ATOM      5  H2  <0> d          -0.307   2.020   0.938  0.00  0.00     0.035 H 
ATOM      6  H3  <0> d          -0.273  -0.516   0.924  0.00  0.00     0.035 H 
ATOM      7  H4  <0> d          -0.290  -0.506  -0.920  0.00  0.00     0.035 H 
ENDROOT
BRANCH   3   8
ATOM      8  C4  <0> d           2.132   0.783   1.261  0.00  0.00     0.191 C 
ATOM      9  O1  <0> d           1.724   1.362   2.240  0.00  0.00    -0.647 OA
ATOM     10  O2  <0> d           3.312   0.143   1.302  0.00  0.00    -0.647 OA
ENDBRANCH   3   8
BRANCH   3  11
ATOM     11  C5  <0> d           2.120   0.797  -1.308  0.00  0.00     0.405 C 
ATOM     12  F1  <0> d           2.431   2.118  -1.646  0.00  0.00    -0.170 F 
ATOM     13  F2  <0> d           3.302   0.069  -1.137  0.00  0.00    -0.170 F 
ATOM     14  F3  <0> d           1.361   0.221  -2.333  0.00  0.00    -0.170 F 
ENDBRANCH   3  11
TORSDOF 2
