REMARK  1 active torsions:
REMARK  status: ('A' for Active; 'I' for Inactive)
REMARK    1  A    between atoms: C1_1  and  C2_2 
ROOT
ATOM      1  C2  <0> d          -1.221   1.749   0.017  0.00  0.00    -0.055 A 
ATOM      2  C3  <0> d          -0.013   1.076   0.008  0.00  0.00    -0.077 A 
ATOM      3  C4  <0> d           1.177   1.782   0.000  0.00  0.00    -0.082 A 
ATOM      4  C5  <0> d           1.165   3.159   0.008  0.00  0.00    -0.069 A 
ATOM      5  C6  <0> d          -0.056   3.851   0.023  0.00  0.00     0.017 A 
ATOM      6  C7  <0> d          -1.250   3.130   0.031  0.00  0.00    -0.038 A 
ATOM      7  C8  <0> d          -2.418   4.086   0.047  0.00  0.00    -0.033 A 
ATOM      8  C9  <0> d          -1.819   5.499   0.049  0.00  0.00    -0.001 A 
ATOM      9  C10 <0> d          -0.323   5.299   0.034  0.00  0.00     0.160 A 
ATOM     10  O1  <0> d           0.513   6.177   0.030  0.00  0.00    -0.292 OA
ATOM     11  H4  <0> d           0.002  -0.004   0.002  0.00  0.00     0.084 H 
ATOM     12  H5  <0> d           2.118   1.252  -0.011  0.00  0.00     0.083 H 
ATOM     13  H6  <0> d           2.096   3.707   0.002  0.00  0.00     0.085 H 
ATOM     14  H7  <0> d          -3.033   3.942  -0.841  0.00  0.00     0.040 H 
ATOM     15  H8  <0> d          -3.016   3.932   0.946  0.00  0.00     0.040 H 
ATOM     16  H9  <0> d          -2.137   5.997  -0.758  0.00  0.00     0.045 H 
ATOM     17  H10 <0> d          -2.120   6.036   0.949  0.00  0.00     0.045 H 
ENDROOT
BRANCH   1  18
ATOM     18  C1  <0> d          -2.512   0.972   0.019  0.00  0.00    -0.051 C 
ATOM     19  H1  <0> d          -2.818   0.779   1.047  0.00  0.00     0.033 H 
ATOM     20  H2  <0> d          -3.285   1.550  -0.488  0.00  0.00     0.033 H 
ATOM     21  H3  <0> d          -2.367   0.025  -0.500  0.00  0.00     0.033 H 
ENDBRANCH   1  18
TORSDOF 1
