REMARK  2 active torsions:
REMARK  status: ('A' for Active; 'I' for Inactive)
REMARK    1  A    between atoms: C1_1  and  C2_2 
REMARK    2  A    between atoms: C2_2  and  C7_9 
ROOT
ATOM      1  C2  <0> d          -2.830   1.882   0.101  0.00  0.00     0.060 C 
ATOM      2  C3  <0> d          -2.261   1.404  -1.241  0.00  0.00     0.018 C 
ATOM      3  C4  <0> d          -0.758   1.594  -1.209  0.00  0.00     0.131 C 
ATOM      4  O1  <0> d          -0.176   2.131  -2.121  0.00  0.00    -0.298 OA
ATOM      5  C5  <0> d          -0.013   1.086   0.008  0.00  0.00     0.010 C 
ATOM      6  C6  <0> d          -0.744   1.587   1.260  0.00  0.00     0.027 C 
ATOM      7  O2  <0> d          -2.128   1.240   1.167  0.00  0.00    -0.380 OA
ATOM      8  H4  <0> d          -2.663   1.940  -1.983  0.00  0.00     0.048 H 
ATOM      9  H5  <0> d          -2.496   0.349  -1.385  0.00  0.00     0.048 H 
ATOM     10  H6  <0> d           0.005   0.086  -0.006  0.00  0.00     0.047 H 
ATOM     11  H7  <0> d           1.008   1.468   0.000  0.00  0.00     0.047 H 
ATOM     12  H8  <0> d          -0.310   1.123   2.145  0.00  0.00     0.075 H 
ATOM     13  H9  <0> d          -0.644   2.670   1.330  0.00  0.00     0.075 H 
ENDROOT
BRANCH   1  14
ATOM     14  C1  <0> d          -2.660   3.398   0.217  0.00  0.00    -0.048 C 
ATOM     15  H1  <0> d          -3.192   3.887  -0.599  0.00  0.00     0.031 H 
ATOM     16  H2  <0> d          -3.064   3.737   1.171  0.00  0.00     0.031 H 
ATOM     17  H3  <0> d          -1.601   3.650   0.161  0.00  0.00     0.031 H 
ENDBRANCH   1  14
BRANCH   1  18
ATOM     18  C7  <0> d          -4.316   1.527   0.181  0.00  0.00    -0.048 C 
ATOM     19  H10 <0> d          -4.436   0.447   0.100  0.00  0.00     0.031 H 
ATOM     20  H11 <0> d          -4.720   1.867   1.135  0.00  0.00     0.031 H 
ATOM     21  H12 <0> d          -4.851   2.014  -0.634  0.00  0.00     0.031 H 
ENDBRANCH   1  18
TORSDOF 2
