REMARK  4 active torsions:
REMARK  status: ('A' for Active; 'I' for Inactive)
REMARK    1  A    between atoms: C1_1  and  O1_2 
REMARK    2  A    between atoms: O1_2  and  C2_3 
REMARK    3  A    between atoms: C2_3  and  O3_5 
REMARK    4  A    between atoms: O3_5  and  C3_6 
ROOT
ATOM      1  C2  <0> d          -0.014   1.210   0.009  0.00  0.00     0.405 C 
ATOM      2  O2  <0> d           0.002  -0.004   0.002  0.00  0.00    -0.230 OA
ENDROOT
BRANCH   1   3
ATOM      3  O1  <0> d           1.141   1.899   0.001  0.00  0.00    -0.303 OA
BRANCH   3   4
ATOM      4  C1  <0> d           2.370   1.124  -0.015  0.00  0.00     0.015 C 
ATOM      5  H1  <0> d           2.395   0.501  -0.908  0.00  0.00     0.067 H 
ATOM      6  H2  <0> d           3.225   1.800  -0.019  0.00  0.00     0.067 H 
ATOM      7  H3  <0> d           2.412   0.491   0.872  0.00  0.00     0.067 H 
ENDBRANCH   3   4
ENDBRANCH   1   3
BRANCH   1   8
ATOM      8  O3  <0> d          -1.188   1.867   0.018  0.00  0.00    -0.303 OA
BRANCH   8   9
ATOM      9  C3  <0> d          -2.395   1.060   0.019  0.00  0.00     0.015 C 
ATOM     10  H4  <0> d          -2.416   0.435  -0.874  0.00  0.00     0.067 H 
ATOM     11  H5  <0> d          -2.408   0.426   0.906  0.00  0.00     0.067 H 
ATOM     12  H6  <0> d          -3.269   1.712   0.027  0.00  0.00     0.067 H 
ENDBRANCH   8   9
ENDBRANCH   1   8
TORSDOF 4
