REMARK  2 active torsions:
REMARK  status: ('A' for Active; 'I' for Inactive)
REMARK    1  A    between atoms: C1_1  and  C2_2 
REMARK    2  A    between atoms: C7_7  and  O1_8 
ROOT
ATOM      1  C2  <0> d           0.002  -0.004   0.002  0.00  0.00    -0.029 A 
ATOM      2  C3  <0> d           0.006  -0.689  -1.198  0.00  0.00    -0.073 A 
ATOM      3  C4  <0> d           0.025  -2.071  -1.207  0.00  0.00    -0.061 A 
ATOM      4  C5  <0> d           0.041  -2.772  -0.014  0.00  0.00     0.036 A 
ATOM      5  C6  <0> d           0.037  -2.092   1.189  0.00  0.00    -0.029 A 
ATOM      6  C7  <0> d           0.023  -0.704   1.199  0.00  0.00     0.073 A 
ATOM      7 Cl1  <0> d           0.064  -4.508  -0.029  0.00  0.00    -0.084 Cl
ATOM      8  H4  <0> d          -0.007  -0.143  -2.130  0.00  0.00     0.084 H 
ATOM      9  H5  <0> d           0.028  -2.604  -2.146  0.00  0.00     0.086 H 
ATOM     10  H6  <0> d           0.049  -2.639   2.120  0.00  0.00     0.090 H 
ENDROOT
BRANCH   1  11
ATOM     11  C1  <0> d          -0.018   1.503   0.010  0.00  0.00    -0.049 C 
ATOM     12  H1  <0> d           1.004   1.880   0.003  0.00  0.00     0.033 H 
ATOM     13  H2  <0> d          -0.545   1.864  -0.873  0.00  0.00     0.033 H 
ATOM     14  H3  <0> d          -0.529   1.854   0.907  0.00  0.00     0.033 H 
ENDBRANCH   1  11
BRANCH   6  15
ATOM     15  O1  <0> d           0.025  -0.033   2.381  0.00  0.00    -0.360 OA
ATOM     16  H7  <0> d          -0.858   0.150   2.731  0.00  0.00     0.217 HD
ENDBRANCH   6  15
TORSDOF 2
