REMARK  4 active torsions:
REMARK  status: ('A' for Active; 'I' for Inactive)
REMARK    1  A    between atoms: C1_1  and  C2_2 
REMARK    2  A    between atoms: C2_2  and  C3_3 
REMARK    3  A    between atoms: C4_4  and  O1_10 
REMARK    4  A    between atoms: C7_7  and  C8_9 
ROOT
ATOM      1  C3  <0> d          -2.682   2.196   2.277  0.00  0.00     0.067 A 
ATOM      2  C4  <0> d          -2.021   2.450   3.470  0.00  0.00     0.090 A 
ATOM      3  C5  <0> d          -0.646   2.250   3.536  0.00  0.00    -0.047 A 
ATOM      4  C6  <0> d           0.010   1.803   2.400  0.00  0.00    -0.057 A 
ATOM      5  C7  <0> d          -0.718   1.572   1.248  0.00  0.00     0.031 A 
ATOM      6  N1  <0> d          -2.021   1.776   1.217  0.00  0.00    -0.256 NA
ATOM      7  H6  <0> d          -0.103   2.439   4.450  0.00  0.00     0.087 H 
ATOM      8  H7  <0> d           1.077   1.637   2.415  0.00  0.00     0.086 H 
ENDROOT
BRANCH   1   9
ATOM      9  C2  <0> d          -4.172   2.409   2.191  0.00  0.00    -0.025 C 
ATOM     10  H4  <0> d          -4.596   1.715   1.465  0.00  0.00     0.042 H 
ATOM     11  H5  <0> d          -4.621   2.232   3.168  0.00  0.00     0.042 H 
BRANCH   9  12
ATOM     12  C1  <0> d          -4.457   3.845   1.750  0.00  0.00    -0.071 C 
ATOM     13  H1  <0> d          -5.535   3.999   1.687  0.00  0.00     0.028 H 
ATOM     14  H2  <0> d          -4.033   4.539   2.476  0.00  0.00     0.028 H 
ATOM     15  H3  <0> d          -4.008   4.022   0.773  0.00  0.00     0.028 H 
ENDBRANCH   9  12
ENDBRANCH   1   9
BRANCH   2  16
ATOM     16  O1  <0> d          -2.707   2.888   4.559  0.00  0.00    -0.359 OA
ATOM     17  H11 <0> d          -2.771   3.851   4.622  0.00  0.00     0.217 HD
ENDBRANCH   2  16
BRANCH   5  18
ATOM     18  C8  <0> d          -0.013   1.086   0.008  0.00  0.00    -0.035 C 
ATOM     19  H8  <0> d           0.002  -0.004   0.002  0.00  0.00     0.035 H 
ATOM     20  H9  <0> d           1.010   1.463   0.000  0.00  0.00     0.035 H 
ATOM     21  H10 <0> d          -0.540   1.447  -0.875  0.00  0.00     0.035 H 
ENDBRANCH   5  18
TORSDOF 4
