REMARK  3 active torsions:
REMARK  status: ('A' for Active; 'I' for Inactive)
REMARK    1  A    between atoms: C1_1  and  C2_2 
REMARK    2  A    between atoms: C6_6  and  N2_9 
REMARK    3  A    between atoms: C7_7  and  N1_8 
ROOT
ATOM      1  C2  <0> d          -2.425   0.942   0.019  0.00  0.00     0.005 A 
ATOM      2  C3  <0> d          -3.632   1.620   0.028  0.00  0.00     0.124 A 
ATOM      3  C4  <0> d          -3.652   3.004   0.036  0.00  0.00    -0.043 A 
ATOM      4  C5  <0> d          -2.466   3.716   0.035  0.00  0.00    -0.052 A 
ATOM      5  C6  <0> d          -1.254   3.044   0.030  0.00  0.00     0.053 A 
ATOM      6  C7  <0> d          -1.233   1.649   0.017  0.00  0.00     0.061 A 
ATOM      7  F1  <0> d          -4.793   0.929   0.030  0.00  0.00    -0.205 F 
ATOM      8  H4  <0> d          -4.596   3.529   0.044  0.00  0.00     0.088 H 
ATOM      9  H5  <0> d          -2.485   4.796   0.041  0.00  0.00     0.087 H 
ENDROOT
BRANCH   1  10
ATOM     10  C1  <0> d          -2.407  -0.565   0.011  0.00  0.00    -0.046 C 
ATOM     11  H1  <0> d          -2.398  -0.934   1.037  0.00  0.00     0.033 H 
ATOM     12  H2  <0> d          -3.295  -0.937  -0.501  0.00  0.00     0.033 H 
ATOM     13  H3  <0> d          -1.515  -0.915  -0.509  0.00  0.00     0.033 H 
ENDBRANCH   1  10
BRANCH   6  14
ATOM     14  N1  <0> d          -0.011   0.966   0.007  0.00  0.00    -0.397 N 
ATOM     15  H6  <0> d           0.002  -0.004   0.002  0.00  0.00     0.156 HD
ATOM     16  H7  <0> d           0.822   1.462   0.002  0.00  0.00     0.156 HD
ENDBRANCH   6  14
BRANCH   5  17
ATOM     17  N2  <0> d          -0.051   3.764   0.034  0.00  0.00    -0.397 N 
ATOM     18  H8  <0> d           0.796   3.293   0.028  0.00  0.00     0.156 HD
ATOM     19  H9  <0> d          -0.067   4.734   0.044  0.00  0.00     0.156 HD
ENDBRANCH   5  17
TORSDOF 3
