REMARK  3 active torsions:
REMARK  status: ('A' for Active; 'I' for Inactive)
REMARK    1  A    between atoms: C1_1  and  C2_2 
REMARK    2  A    between atoms: C2_2  and  O1_3 
REMARK    3  A    between atoms: O1_3  and  C3_4 
ROOT
ATOM      1  C3  <0> d          -0.793   3.331   1.349  0.00  0.00     0.183 A 
ATOM      2  C4  <0> d          -1.441   3.848   2.486  0.00  0.00    -0.025 A 
ATOM      3  C5  <0> d          -1.547   5.194   2.648  0.00  0.00    -0.012 A 
ATOM      4  C6  <0> d          -1.003   6.052   1.670  0.00  0.00     0.261 A 
ATOM      5  O2  <0> d          -1.089   7.263   1.798  0.00  0.00    -0.267 OA
ATOM      6  N1  <0> d          -0.389   5.524   0.592  0.00  0.00    -0.241 N 
ATOM      7  H1  <0> d           0.034   6.186  -0.178  0.00  0.00     0.192 HD
ATOM      8  N2  <0> d          -0.287   4.136   0.448  0.00  0.00    -0.146 NA
ATOM      9  H7  <0> d          -1.853   3.179   3.227  0.00  0.00     0.090 H 
ATOM     10  H8  <0> d          -2.042   5.602   3.517  0.00  0.00     0.092 H 
ENDROOT
BRANCH   1  11
ATOM     11  O1  <0> d          -0.688   1.987   1.186  0.00  0.00    -0.334 OA
BRANCH  11  12
ATOM     12  C2  <0> d          -0.019   1.526   0.010  0.00  0.00     0.024 C 
ATOM     13  H5  <0> d           1.013   1.907   0.003  0.00  0.00     0.074 H 
ATOM     14  H6  <0> d          -0.551   1.890  -0.881  0.00  0.00     0.074 H 
BRANCH  12  15
ATOM     15  C1  <0> d           0.002  -0.004   0.002  0.00  0.00    -0.056 C 
ATOM     16  H2  <0> d           0.517  -0.359  -0.903  0.00  0.00     0.030 H 
ATOM     17  H3  <0> d          -1.030  -0.385   0.010  0.00  0.00     0.030 H 
ATOM     18  H4  <0> d           0.534  -0.368   0.893  0.00  0.00     0.030 H 
ENDBRANCH  12  15
ENDBRANCH  11  12
ENDBRANCH   1  11
TORSDOF 3
