REMARK  6 active torsions:
REMARK  status: ('A' for Active; 'I' for Inactive)
REMARK    1  A    between atoms: C1_1  and  C2_2 
REMARK    2  A    between atoms: C5_6  and  C7_8 
REMARK    3  A    between atoms: C7_8  and  C8_10 
REMARK    4  A    between atoms: C7_8  and  O1_13 
REMARK    5  A    between atoms: C8_10  and  C9_11 
REMARK    6  A    between atoms: C8_10  and  C10_12 
ROOT
ATOM      1  C2  <0> d          -0.337   1.210   1.320  0.00  0.00    -0.051 C 
ATOM      2  H1  <0> d          -1.323   0.750   1.254  0.00  0.00     0.040 H 
ATOM      3  C3  <0> d          -0.440   2.753   1.280  0.00  0.00    -0.046 C 
ATOM      4  C4  <0> d          -0.490   3.172   2.731  0.00  0.00    -0.098 C 
ATOM      5  C5  <0> d          -0.092   2.206   3.514  0.00  0.00    -0.055 C 
ATOM      6  C6  <0> d           0.290   0.982   2.715  0.00  0.00    -0.039 C 
ATOM      7  H6  <0> d           0.437   3.179   0.792  0.00  0.00     0.039 H 
ATOM      8  H7  <0> d          -1.350   3.059   0.764  0.00  0.00     0.039 H 
ATOM      9  H8  <0> d          -0.813   4.144   3.075  0.00  0.00     0.077 H 
ATOM     10  H9  <0> d          -0.123   0.084   3.175  0.00  0.00     0.040 H 
ATOM     11  H10 <0> d           1.375   0.904   2.636  0.00  0.00     0.040 H 
ENDROOT
BRANCH   5  12
ATOM     12  C7  <0> d          -0.023   2.300   5.016  0.00  0.00     0.060 C 
ATOM     13  H2  <0> d          -0.262   3.317   5.328  0.00  0.00     0.090 H 
BRANCH  12  14
ATOM     14  C8  <0> d          -1.028   1.327   5.635  0.00  0.00    -0.032 C 
ATOM     15  H11 <0> d          -0.851   0.325   5.245  0.00  0.00     0.043 H 
BRANCH  14  16
ATOM     16  C9  <0> d          -0.861   1.319   7.156  0.00  0.00    -0.071 C 
ATOM     17  H12 <0> d          -0.972   2.333   7.539  0.00  0.00     0.028 H 
ATOM     18  H13 <0> d          -1.620   0.677   7.602  0.00  0.00     0.028 H 
ATOM     19  H14 <0> d           0.130   0.941   7.410  0.00  0.00     0.028 H 
ENDBRANCH  14  16
BRANCH  14  20
ATOM     20  C10 <0> d          -2.450   1.769   5.281  0.00  0.00    -0.071 C 
ATOM     21  H15 <0> d          -2.569   1.774   4.198  0.00  0.00     0.028 H 
ATOM     22  H16 <0> d          -3.166   1.075   5.722  0.00  0.00     0.028 H 
ATOM     23  H17 <0> d          -2.627   2.771   5.671  0.00  0.00     0.028 H 
ENDBRANCH  14  20
ENDBRANCH  12  14
BRANCH  12  24
ATOM     24  O1  <0> d           1.296   1.966   5.454  0.00  0.00    -0.391 OA
ATOM     25  H18 <0> d           1.576   1.073   5.211  0.00  0.00     0.210 HD
ENDBRANCH  12  24
ENDBRANCH   5  12
BRANCH   1  26
ATOM     26  C1  <0> d           0.584   0.693   0.213  0.00  0.00    -0.072 C 
ATOM     27  H3  <0> d           0.751  -0.376   0.350  0.00  0.00     0.028 H 
ATOM     28  H4  <0> d           1.537   1.218   0.258  0.00  0.00     0.028 H 
ATOM     29  H5  <0> d           0.118   0.866  -0.757  0.00  0.00     0.028 H 
ENDBRANCH   1  26
TORSDOF 6
