REMARK  3 active torsions:
REMARK  status: ('A' for Active; 'I' for Inactive)
REMARK    1  A    between atoms: C1_1  and  C2_2 
REMARK    2  A    between atoms: C5_6  and  C8_12 
REMARK    3  A    between atoms: C6_8  and  O1_11 
ROOT
ATOM      1  C2  <0> d          -2.188   1.063  -1.221  0.00  0.00    -0.055 C 
ATOM      2  H1  <0> d          -2.173  -0.027  -1.227  0.00  0.00     0.039 H 
ATOM      3  C3  <0> d          -0.753   1.593  -1.232  0.00  0.00    -0.061 C 
ATOM      4  C4  <0> d          -0.013   1.086   0.008  0.00  0.00    -0.059 C 
ATOM      5  C5  <0> d          -0.729   1.579   1.267  0.00  0.00    -0.033 C 
ATOM      6  H2  <0> d          -0.744   2.669   1.273  0.00  0.00     0.043 H 
ATOM      7  C6  <0> d          -2.164   1.050   1.278  0.00  0.00     0.039 C 
ATOM      8  H3  <0> d          -2.149  -0.040   1.272  0.00  0.00     0.083 H 
ATOM      9  C7  <0> d          -2.904   1.556   0.038  0.00  0.00    -0.038 C 
ATOM     10  H7  <0> d          -0.767   2.683  -1.226  0.00  0.00     0.033 H 
ATOM     11  H8  <0> d          -0.242   1.241  -2.128  0.00  0.00     0.033 H 
ATOM     12  H9  <0> d           0.002  -0.004   0.002  0.00  0.00     0.033 H 
ATOM     13  H10 <0> d           1.010   1.463   0.000  0.00  0.00     0.033 H 
ATOM     14  H11 <0> d          -2.919   2.646   0.044  0.00  0.00     0.037 H 
ATOM     15  H12 <0> d          -3.927   1.179   0.046  0.00  0.00     0.037 H 
ENDROOT
BRANCH   1  16
ATOM     16  C1  <0> d          -2.928   1.570  -2.460  0.00  0.00    -0.073 C 
ATOM     17  H4  <0> d          -2.418   1.218  -3.357  0.00  0.00     0.028 H 
ATOM     18  H5  <0> d          -3.951   1.193  -2.452  0.00  0.00     0.028 H 
ATOM     19  H6  <0> d          -2.943   2.660  -2.454  0.00  0.00     0.028 H 
ENDBRANCH   1  16
BRANCH   7  20
ATOM     20  O1  <0> d          -2.833   1.510   2.453  0.00  0.00    -0.395 OA
ATOM     21  H13 <0> d          -3.750   1.212   2.527  0.00  0.00     0.210 HD
ENDBRANCH   7  20
BRANCH   5  22
ATOM     22  C8  <0> d           0.011   1.072   2.506  0.00  0.00    -0.071 C 
ATOM     23  H14 <0> d           1.034   1.450   2.499  0.00  0.00     0.028 H 
ATOM     24  H15 <0> d          -0.499   1.424   3.403  0.00  0.00     0.028 H 
ATOM     25  H16 <0> d           0.026  -0.018   2.500  0.00  0.00     0.028 H 
ENDBRANCH   5  22
TORSDOF 3
