REMARK  1 active torsions:
REMARK  status: ('A' for Active; 'I' for Inactive)
REMARK    1  A    between atoms: C1_1  and  N1_2 
ROOT
ATOM      1  N1  <0> d           0.002  -0.004   0.002  0.00  0.00    -0.289 N 
ATOM      2  C2  <0> d          -1.049  -0.849   0.002  0.00  0.00     0.253 A 
ATOM      3  O1  <0> d          -2.202  -0.445   0.009  0.00  0.00    -0.268 OA
ATOM      4  C3  <0> d          -0.747  -2.200  -0.007  0.00  0.00    -0.009 A 
ATOM      5  C4  <0> d           0.574  -2.511  -0.014  0.00  0.00    -0.023 A 
ATOM      6  S1  <0> d           1.334  -1.016  -0.017  0.00  0.00    -0.022 SA
ATOM      7  H4  <0> d          -1.515  -2.960  -0.007  0.00  0.00     0.092 H 
ATOM      8  H5  <0> d           1.029  -3.490  -0.021  0.00  0.00     0.097 H 
ENDROOT
BRANCH   1   9
ATOM      9  C1  <0> d          -0.018   1.461   0.010  0.00  0.00    -0.005 C 
ATOM     10  H1  <0> d           1.005   1.838   0.002  0.00  0.00     0.058 H 
ATOM     11  H2  <0> d          -0.545   1.822  -0.873  0.00  0.00     0.058 H 
ATOM     12  H3  <0> d          -0.528   1.812   0.907  0.00  0.00     0.058 H 
ENDBRANCH   1   9
TORSDOF 1
