REMARK  1 active torsions:
REMARK  status: ('A' for Active; 'I' for Inactive)
REMARK    1  A    between atoms: C2_2  and  C5_9 
REMARK       I    between atoms: C5_9  and  N3_11 
ROOT
ATOM      1  C1  <0> d          -3.669   1.540  -0.183  0.00  0.00     0.024 A 
ATOM      2  C2  <0> d          -2.450   0.876  -0.093  0.00  0.00     0.117 A 
ATOM      3  C3  <0> d          -2.459  -0.547  -0.102  0.00  0.00     0.263 A 
ATOM      4  O1  <0> d          -1.420  -1.179  -0.021  0.00  0.00    -0.267 OA
ATOM      5  N1  <0> d          -3.647  -1.181  -0.205  0.00  0.00    -0.317 N 
ATOM      6  H1  <0> d          -3.685  -2.280  -0.215  0.00  0.00     0.170 HD
ATOM      7  C4  <0> d          -4.786  -0.472  -0.294  0.00  0.00     0.066 A 
ATOM      8  N2  <0> d          -4.793   0.837  -0.286  0.00  0.00    -0.255 NA
ATOM      9  H2  <0> d          -3.702   2.620  -0.174  0.00  0.00     0.116 H 
ATOM     10  H3  <0> d          -5.725  -0.999  -0.374  0.00  0.00     0.143 H 
ENDROOT
BRANCH   2  11
ATOM     11  C5  <0> d          -1.187   1.624   0.017  0.00  0.00     0.256 C 
ATOM     12  O2  <0> d          -1.206   2.834   0.135  0.00  0.00    -0.268 OA
ATOM     13  N3  <0> d          -0.011   0.967  -0.014  0.00  0.00    -0.366 N 
ATOM     14  H4  <0> d           0.933   1.526   0.067  0.00  0.00     0.159 HD
ATOM     15  H5  <0> d           0.006  -0.127  -0.121  0.00  0.00     0.159 HD
ENDBRANCH   2  11
TORSDOF 1
