REMARK  9 active torsions:
REMARK  status: ('A' for Active; 'I' for Inactive)
REMARK    1  A    between atoms: C1_1  and  C2_2 
REMARK    2  A    between atoms: C2_2  and  C3_4 
REMARK    3  A    between atoms: C2_2  and  C4_6 
REMARK    4  A    between atoms: C3_4  and  O1_5 
REMARK    5  A    between atoms: C4_6  and  C5_8 
REMARK    6  A    between atoms: C4_6  and  O2_12 
REMARK    7  A    between atoms: C5_8  and  C6_9 
REMARK    8  A    between atoms: C5_8  and  C7_10 
REMARK    9  A    between atoms: C5_8  and  C8_11 
ROOT
ATOM      1  C4  <0> d          -0.703   3.540   1.194  0.00  0.00     0.047 C 
ATOM      2  H2  <0> d          -1.107   3.940   2.123  0.00  0.00     0.084 H 
ENDROOT
BRANCH   1   3
ATOM      3  C2  <0> d          -1.209   2.111   0.991  0.00  0.00    -0.012 C 
ATOM      4  H1  <0> d          -0.788   1.464   1.761  0.00  0.00     0.046 H 
BRANCH   3   5
ATOM      5  C1  <0> d          -0.779   1.608  -0.389  0.00  0.00    -0.069 C 
ATOM      6  H3  <0> d          -1.490   0.861  -0.741  0.00  0.00     0.028 H 
ATOM      7  H4  <0> d           0.213   1.161  -0.320  0.00  0.00     0.028 H 
ATOM      8  H5  <0> d          -0.753   2.444  -1.088  0.00  0.00     0.028 H 
ENDBRANCH   3   5
BRANCH   3   9
ATOM      9  C3  <0> d          -2.736   2.091   1.087  0.00  0.00     0.022 C 
ATOM     10  H6  <0> d          -3.046   2.532   2.035  0.00  0.00     0.074 H 
ATOM     11  H7  <0> d          -3.159   2.667   0.264  0.00  0.00     0.074 H 
BRANCH   9  12
ATOM     12  O1  <0> d          -3.201   0.742   1.015  0.00  0.00    -0.400 OA
ATOM     13  H8  <0> d          -4.162   0.654   1.070  0.00  0.00     0.209 HD
ENDBRANCH   9  12
ENDBRANCH   3   9
ENDBRANCH   1   3
BRANCH   1  14
ATOM     14  C5  <0> d           0.825   3.536   1.262  0.00  0.00    -0.025 C 
BRANCH  14  15
ATOM     15  C6  <0> d           1.396   3.161  -0.107  0.00  0.00    -0.067 C 
ATOM     16  H9  <0> d           0.775   3.595  -0.890  0.00  0.00     0.028 H 
ATOM     17  H10 <0> d           2.412   3.546  -0.194  0.00  0.00     0.028 H 
ATOM     18  H11 <0> d           1.409   2.076  -0.211  0.00  0.00     0.028 H 
ENDBRANCH  14  15
BRANCH  14  19
ATOM     19  C7  <0> d           1.322   4.927   1.659  0.00  0.00    -0.067 C 
ATOM     20  H12 <0> d           0.915   5.194   2.635  0.00  0.00     0.028 H 
ATOM     21  H13 <0> d           2.411   4.924   1.708  0.00  0.00     0.028 H 
ATOM     22  H14 <0> d           0.994   5.655   0.917  0.00  0.00     0.028 H 
ENDBRANCH  14  19
BRANCH  14  23
ATOM     23  C8  <0> d           1.286   2.514   2.304  0.00  0.00    -0.067 C 
ATOM     24  H15 <0> d           0.932   1.522   2.021  0.00  0.00     0.028 H 
ATOM     25  H16 <0> d           2.375   2.510   2.353  0.00  0.00     0.028 H 
ATOM     26  H17 <0> d           0.879   2.780   3.279  0.00  0.00     0.028 H 
ENDBRANCH  14  23
ENDBRANCH   1  14
BRANCH   1  27
ATOM     27  O2  <0> d          -1.128   4.356   0.100  0.00  0.00    -0.394 OA
ATOM     28  H18 <0> d          -0.805   4.058  -0.762  0.00  0.00     0.210 HD
ENDBRANCH   1  27
TORSDOF 9
