REMARK  2 active torsions:
REMARK  status: ('A' for Active; 'I' for Inactive)
REMARK    1  A    between atoms: C1_1  and  C2_2 
REMARK    2  A    between atoms: C4_4  and  N3_8 
ROOT
ATOM      1  C2  <0> d           0.002  -0.004   0.002  0.00  0.00    -0.039 A 
ATOM      2  C3  <0> d           0.006  -0.711  -1.190  0.00  0.00    -0.030 A 
ATOM      3  C4  <0> d           0.026  -2.104  -1.123  0.00  0.00     0.143 A 
ATOM      4  N1  <0> d           0.040  -2.704   0.058  0.00  0.00    -0.133 NA
ATOM      5  N2  <0> d           0.036  -2.042   1.158  0.00  0.00    -0.160 NA
ATOM      6  C5  <0> d           0.023  -0.725   1.188  0.00  0.00     0.029 A 
ATOM      7  H4  <0> d          -0.006  -0.199  -2.141  0.00  0.00     0.090 H 
ATOM      8  H5  <0> d           0.025  -0.206   2.135  0.00  0.00     0.118 H 
ENDROOT
BRANCH   1   9
ATOM      9  C1  <0> d          -0.018   1.503   0.010  0.00  0.00    -0.050 C 
ATOM     10  H1  <0> d           1.004   1.880   0.003  0.00  0.00     0.033 H 
ATOM     11  H2  <0> d          -0.545   1.864  -0.873  0.00  0.00     0.033 H 
ATOM     12  H3  <0> d          -0.529   1.854   0.907  0.00  0.00     0.033 H 
ENDBRANCH   1   9
BRANCH   3  13
ATOM     13  N3  <0> d           0.030  -2.859  -2.291  0.00  0.00    -0.383 N 
ATOM     14  H6  <0> d           0.020  -2.417  -3.154  0.00  0.00     0.157 HD
ATOM     15  H7  <0> d           0.044  -3.828  -2.241  0.00  0.00     0.157 HD
ENDBRANCH   3  13
TORSDOF 2
