REMARK  4 active torsions:
REMARK  status: ('A' for Active; 'I' for Inactive)
REMARK    1  A    between atoms: C1_1  and  C2_2 
REMARK    2  A    between atoms: N2_6  and  C5_7 
REMARK    3  A    between atoms: C5_7  and  C6_8 
REMARK    4  A    between atoms: C6_8  and  O1_9 
ROOT
ATOM      1  C2  <0> d          -0.449   2.711   1.869  0.00  0.00     0.028 A 
ATOM      2  C3  <0> d          -1.294   2.778   2.923  0.00  0.00    -0.041 A 
ATOM      3  C4  <0> d          -2.082   1.622   2.917  0.00  0.00     0.024 A 
ATOM      4  N1  <0> d          -1.725   0.890   1.893  0.00  0.00    -0.185 NA
ATOM      5  N2  <0> d          -0.698   1.558   1.213  0.00  0.00    -0.273 N 
ATOM      6  H4  <0> d          -1.349   3.580   3.644  0.00  0.00     0.088 H 
ATOM      7  H5  <0> d          -2.850   1.376   3.634  0.00  0.00     0.117 H 
ENDROOT
BRANCH   5   8
ATOM      8  C5  <0> d          -0.013   1.086   0.008  0.00  0.00     0.036 C 
ATOM      9  H6  <0> d           0.002  -0.004   0.002  0.00  0.00     0.070 H 
ATOM     10  H7  <0> d           1.010   1.463   0.000  0.00  0.00     0.070 H 
BRANCH   8  11
ATOM     11  C6  <0> d          -0.753   1.593  -1.232  0.00  0.00     0.033 C 
ATOM     12  H8  <0> d          -1.775   1.215  -1.224  0.00  0.00     0.076 H 
ATOM     13  H9  <0> d          -0.767   2.683  -1.226  0.00  0.00     0.076 H 
BRANCH  11  14
ATOM     14  O1  <0> d          -0.084   1.132  -2.407  0.00  0.00    -0.399 OA
ATOM     15  H10 <0> d          -0.499   1.416  -3.233  0.00  0.00     0.209 HD
ENDBRANCH  11  14
ENDBRANCH   8  11
ENDBRANCH   5   8
BRANCH   1  16
ATOM     16  C1  <0> d           0.585   3.741   1.491  0.00  0.00    -0.036 C 
ATOM     17  H1  <0> d           0.139   4.472   0.816  0.00  0.00     0.035 H 
ATOM     18  H2  <0> d           0.940   4.246   2.390  0.00  0.00     0.035 H 
ATOM     19  H3  <0> d           1.422   3.251   0.995  0.00  0.00     0.035 H 
ENDBRANCH   1  16
TORSDOF 4
