REMARK  1 active torsions:
REMARK  status: ('A' for Active; 'I' for Inactive)
REMARK    1  A    between atoms: C2_2  and  C3_3 
ROOT
ATOM      1  C1  <0> d           0.112   6.404   0.034  0.00  0.00    -0.147 C 
ATOM      2  C2  <0> d           0.077   5.231   0.029  0.00  0.00    -0.058 C 
ATOM      3  H1  <0> d           0.142   7.454   0.039  0.00  0.00     0.167 H 
ENDROOT
BRANCH   2   4
ATOM      4  C3  <0> d           0.035   3.799   0.022  0.00  0.00     0.108 A 
ATOM      5  N1  <0> d           1.168   3.107   0.007  0.00  0.00    -0.252 NA
ATOM      6  C7  <0> d           1.172   1.790   0.001  0.00  0.00     0.004 A 
ATOM      7  C6  <0> d          -0.013   1.076   0.008  0.00  0.00    -0.066 A 
ATOM      8  H5  <0> d           2.113   1.260  -0.011  0.00  0.00     0.114 H 
ATOM      9  C5  <0> d          -1.220   1.760   0.017  0.00  0.00    -0.079 A 
ATOM     10  H4  <0> d           0.002  -0.004   0.002  0.00  0.00     0.085 H 
ATOM     11  C4  <0> d          -1.196   3.143   0.031  0.00  0.00    -0.047 A 
ATOM     12  H3  <0> d          -2.158   1.224   0.018  0.00  0.00     0.083 H 
ATOM     13  H2  <0> d          -2.118   3.707   0.043  0.00  0.00     0.088 H 
ENDBRANCH   2   4
TORSDOF 1
