REMARK  5 active torsions:
REMARK  status: ('A' for Active; 'I' for Inactive)
REMARK    1  A    between atoms: C1_1  and  C2_2 
REMARK    2  A    between atoms: C2_2  and  C3_3 
REMARK    3  A    between atoms: C3_3  and  O1_4 
REMARK    4  A    between atoms: O1_4  and  C4_5 
REMARK    5  A    between atoms: C8_9  and  N1_11 
ROOT
ATOM      1  C4  <0> d          -1.498  -1.848   0.006  0.00  0.00     0.070 A 
ATOM      2  C5  <0> d          -0.387  -2.679  -0.014  0.00  0.00    -0.051 A 
ATOM      3  C6  <0> d          -0.547  -4.051  -0.014  0.00  0.00    -0.078 A 
ATOM      4  C7  <0> d          -1.814  -4.601  -0.005  0.00  0.00    -0.058 A 
ATOM      5  C8  <0> d          -2.931  -3.775   0.010  0.00  0.00     0.028 A 
ATOM      6  C9  <0> d          -2.771  -2.396   0.016  0.00  0.00    -0.026 A 
ATOM      7  H8  <0> d           0.606  -2.252  -0.026  0.00  0.00     0.087 H 
ATOM      8  H9  <0> d           0.320  -4.696  -0.026  0.00  0.00     0.083 H 
ATOM      9  H10 <0> d          -1.937  -5.674  -0.009  0.00  0.00     0.086 H 
ATOM     10  H11 <0> d          -3.638  -1.751   0.028  0.00  0.00     0.091 H 
ENDROOT
BRANCH   1  11
ATOM     11  O1  <0> d          -1.339  -0.499   0.012  0.00  0.00    -0.351 OA
BRANCH  11  12
ATOM     12  C3  <0> d           0.002  -0.004   0.002  0.00  0.00     0.026 C 
ATOM     13  H6  <0> d           0.512  -0.356  -0.895  0.00  0.00     0.075 H 
ATOM     14  H7  <0> d           0.529  -0.365   0.885  0.00  0.00     0.075 H 
BRANCH  12  15
ATOM     15  C2  <0> d          -0.019   1.526   0.010  0.00  0.00    -0.048 C 
ATOM     16  H4  <0> d          -0.546   1.887  -0.873  0.00  0.00     0.035 H 
ATOM     17  H5  <0> d          -0.529   1.877   0.907  0.00  0.00     0.035 H 
BRANCH  15  18
ATOM     18  C1  <0> d           1.417   2.055  -0.000  0.00  0.00    -0.075 C 
ATOM     19  H1  <0> d           1.944   1.694   0.883  0.00  0.00     0.027 H 
ATOM     20  H2  <0> d           1.927   1.704  -0.897  0.00  0.00     0.027 H 
ATOM     21  H3  <0> d           1.402   3.145   0.006  0.00  0.00     0.027 H 
ENDBRANCH  15  18
ENDBRANCH  12  15
ENDBRANCH  11  12
ENDBRANCH   1  11
BRANCH   5  22
ATOM     22  N1  <0> d          -4.212  -4.330   0.019  0.00  0.00    -0.399 N 
ATOM     23  H12 <0> d          -4.992  -3.753   0.029  0.00  0.00     0.156 HD
ATOM     24  H13 <0> d          -4.323  -5.294   0.015  0.00  0.00     0.156 HD
ENDBRANCH   5  22
TORSDOF 5
