REMARK  1 active torsions:
REMARK  status: ('A' for Active; 'I' for Inactive)
REMARK    1  A    between atoms: C4_5  and  N3_7 
ROOT
ATOM      1  C1  <0> d          -0.016   1.318   0.009  0.00  0.00     0.031 A 
ATOM      2  C2  <0> d           1.187   2.011   0.002  0.00  0.00     0.009 A 
ATOM      3  C3  <0> d           2.365   1.292  -0.011  0.00  0.00     0.065 A 
ATOM      4  N1  <0> d           2.314  -0.032  -0.021  0.00  0.00    -0.067 NA
ATOM      5  C4  <0> d           1.151  -0.665  -0.014  0.00  0.00     0.720 A 
ATOM      6  N2  <0> d           0.002  -0.004   0.002  0.00  0.00    -0.075 NA
ATOM      7  C5  <0> d           3.704   1.982  -0.008  0.00  0.00    -0.004 C 
ATOM      8  C6  <0> d           3.528   3.447  -0.413  0.00  0.00     0.025 C 
ATOM      9  O1  <0> d           2.467   4.013   0.364  0.00  0.00    -0.386 OA
ATOM     10  C7  <0> d           1.178   3.515   0.004  0.00  0.00     0.046 C 
ATOM     11  H1  <0> d          -0.954   1.852   0.026  0.00  0.00     0.116 H 
ATOM     12  H4  <0> d           4.135   1.932   0.992  0.00  0.00     0.045 H 
ATOM     13  H5  <0> d           4.369   1.487  -0.715  0.00  0.00     0.045 H 
ATOM     14  H6  <0> d           4.452   3.993  -0.222  0.00  0.00     0.074 H 
ATOM     15  H7  <0> d           3.278   3.506  -1.472  0.00  0.00     0.074 H 
ATOM     16  H8  <0> d           0.915   3.876  -0.990  0.00  0.00     0.082 H 
ATOM     17  H9  <0> d           0.439   3.870   0.723  0.00  0.00     0.082 H 
ENDROOT
BRANCH   5  18
ATOM     18  N3  <0> d           1.134  -2.049  -0.024  0.00  0.00    -0.231 N 
ATOM     19  H2  <0> d           1.968  -2.544  -0.035  0.00  0.00     0.174 HD
ATOM     20  H3  <0> d           0.288  -2.523  -0.019  0.00  0.00     0.174 HD
ENDBRANCH   5  18
TORSDOF 1
