REMARK  0 active torsions:
REMARK  status: ('A' for Active; 'I' for Inactive)
ROOT
ATOM      1  C1  <0> d           3.046   3.079  -1.435  0.00  0.00    -0.083 C 
ATOM      2  C2  <0> d           2.018   3.787  -0.968  0.00  0.00    -0.077 C 
ATOM      3  C3  <0> d           1.162   3.232   0.139  0.00  0.00     0.049 A 
ATOM      4  C4  <0> d          -0.179   3.928   0.101  0.00  0.00    -0.077 A 
ATOM      5  C5  <0> d          -1.279   3.174   0.060  0.00  0.00    -0.083 A 
ATOM      6  C6  <0> d          -1.186   1.717   0.017  0.00  0.00    -0.068 A 
ATOM      7  C7  <0> d          -0.013   1.076   0.008  0.00  0.00    -0.020 A 
ATOM      8  N1  <0> d           1.177   1.769   0.000  0.00  0.00    -0.355 N 
ATOM      9  C8  <0> d           2.389   1.123  -0.161  0.00  0.00    -0.020 C 
ATOM     10  C9  <0> d           3.347   1.757  -0.866  0.00  0.00    -0.068 C 
ATOM     11  H1  <0> d           3.658   3.476  -2.232  0.00  0.00     0.083 H 
ATOM     12  H2  <0> d           1.799   4.760  -1.384  0.00  0.00     0.080 H 
ATOM     13  H3  <0> d           1.643   3.483   1.085  0.00  0.00     0.086 H 
ATOM     14  H4  <0> d          -0.245   5.006   0.105  0.00  0.00     0.080 H 
ATOM     15  H5  <0> d          -2.249   3.647   0.033  0.00  0.00     0.083 H 
ATOM     16  H6  <0> d          -2.097   1.137   0.020  0.00  0.00     0.085 H 
ATOM     17  H7  <0> d           0.002  -0.004   0.002  0.00  0.00     0.111 H 
ATOM     18  H8  <0> d           2.561   0.144   0.262  0.00  0.00     0.111 H 
ATOM     19  H9  <0> d           4.317   1.304  -1.010  0.00  0.00     0.085 H 
ENDROOT
TORSDOF 0
