REMARK  0 active torsions:
REMARK  status: ('A' for Active; 'I' for Inactive)
ROOT
ATOM      1  C1  <0> d           1.153   3.056   0.007  0.00  0.00     0.028 A 
ATOM      2  C2  <0> d          -0.046   3.751   0.023  0.00  0.00     0.092 A 
ATOM      3  C3  <0> d          -1.230   3.024   0.030  0.00  0.00     0.150 A 
ATOM      4  N1  <0> d          -1.173   1.701   0.017  0.00  0.00    -0.228 NA
ATOM      5  C4  <0> d          -0.013   1.076   0.008  0.00  0.00     0.088 A 
ATOM      6  N2  <0> d           1.130   1.732   0.001  0.00  0.00    -0.252 NA
ATOM      7 Cl1  <0> d          -2.763   3.839   0.049  0.00  0.00    -0.060 Cl
ATOM      8 Cl2  <0> d          -0.068   5.487   0.033  0.00  0.00    -0.079 Cl
ATOM      9  H1  <0> d           2.093   3.587   0.002  0.00  0.00     0.117 H 
ATOM     10  H2  <0> d           0.002  -0.004   0.002  0.00  0.00     0.146 H 
ENDROOT
TORSDOF 0
