REMARK  4 active torsions:
REMARK  status: ('A' for Active; 'I' for Inactive)
REMARK    1  A    between atoms: C1_1  and  O1_2 
REMARK    2  A    between atoms: O1_2  and  C2_3 
REMARK    3  A    between atoms: C2_3  and  C3_5 
REMARK    4  A    between atoms: C3_5  and  N1_6 
ROOT
ATOM      1  N1  <0> d          -0.698   1.558   1.213  0.00  0.00    -0.343 N 
ATOM      2  C4  <0> d          -0.396   2.821   1.897  0.00  0.00    -0.001 C 
ATOM      3  C5  <0> d          -1.617   3.099   2.804  0.00  0.00    -0.042 C 
ATOM      4  C6  <0> d          -2.164   1.672   3.039  0.00  0.00     0.011 C 
ATOM      5  C7  <0> d          -1.681   0.888   1.839  0.00  0.00     0.220 C 
ATOM      6  O3  <0> d          -2.118  -0.189   1.492  0.00  0.00    -0.273 OA
ATOM      7  H6  <0> d           0.508   2.719   2.497  0.00  0.00     0.064 H 
ATOM      8  H7  <0> d          -0.277   3.625   1.170  0.00  0.00     0.064 H 
ATOM      9  H8  <0> d          -2.354   3.720   2.295  0.00  0.00     0.036 H 
ATOM     10  H9  <0> d          -1.306   3.557   3.744  0.00  0.00     0.036 H 
ATOM     11  H10 <0> d          -3.253   1.682   3.075  0.00  0.00     0.047 H 
ATOM     12  H11 <0> d          -1.757   1.252   3.958  0.00  0.00     0.047 H 
ENDROOT
BRANCH   1  13
ATOM     13  C3  <0> d          -0.013   1.086   0.008  0.00  0.00     0.078 C 
ATOM     14  H4  <0> d           0.002  -0.004   0.002  0.00  0.00     0.079 H 
ATOM     15  H5  <0> d           1.010   1.463   0.000  0.00  0.00     0.079 H 
BRANCH  13  16
ATOM     16  C2  <0> d          -0.742   1.585  -1.213  0.00  0.00     0.276 C 
ATOM     17  O2  <0> d          -1.732   2.266  -1.089  0.00  0.00    -0.263 OA
BRANCH  16  18
ATOM     18  O1  <0> d          -0.290   1.274  -2.438  0.00  0.00    -0.325 OA
BRANCH  18  19
ATOM     19  C1  <0> d          -1.042   1.789  -3.568  0.00  0.00     0.013 C 
ATOM     20  H1  <0> d          -2.064   1.411  -3.528  0.00  0.00     0.067 H 
ATOM     21  H2  <0> d          -1.056   2.878  -3.529  0.00  0.00     0.067 H 
ATOM     22  H3  <0> d          -0.572   1.464  -4.496  0.00  0.00     0.067 H 
ENDBRANCH  18  19
ENDBRANCH  16  18
ENDBRANCH  13  16
ENDBRANCH   1  13
TORSDOF 4
