REMARK  3 active torsions:
REMARK  status: ('A' for Active; 'I' for Inactive)
REMARK    1  A    between atoms: C4_4  and  C7_7 
REMARK    2  A    between atoms: C7_7  and  O1_8 
REMARK    3  A    between atoms: O1_8  and  C8_9 
REMARK       I    between atoms: C8_9  and  N1_11 
ROOT
ATOM      1  C1  <0> d          -0.056   4.267   0.025  0.00  0.00    -0.083 A 
ATOM      2  C2  <0> d           1.151   3.592   0.010  0.00  0.00    -0.082 A 
ATOM      3  C3  <0> d           1.169   2.210   0.003  0.00  0.00    -0.075 A 
ATOM      4  C4  <0> d          -0.018   1.503   0.010  0.00  0.00    -0.034 A 
ATOM      5  C5  <0> d          -1.225   2.178   0.020  0.00  0.00    -0.075 A 
ATOM      6  C6  <0> d          -1.244   3.560   0.032  0.00  0.00    -0.082 A 
ATOM      7  H1  <0> d          -0.070   5.347   0.031  0.00  0.00     0.083 H 
ATOM      8  H2  <0> d           2.078   4.145   0.004  0.00  0.00     0.083 H 
ATOM      9  H3  <0> d           2.112   1.683  -0.009  0.00  0.00     0.084 H 
ATOM     10  H4  <0> d          -2.153   1.625   0.021  0.00  0.00     0.084 H 
ATOM     11  H5  <0> d          -2.186   4.087   0.044  0.00  0.00     0.083 H 
ENDROOT
BRANCH   4  12
ATOM     12  C7  <0> d           0.002  -0.004   0.002  0.00  0.00     0.054 C 
ATOM     13  H6  <0> d          -0.888  -0.377  -0.505  0.00  0.00     0.082 H 
ATOM     14  H7  <0> d           0.892  -0.352  -0.522  0.00  0.00     0.082 H 
BRANCH  12  15
ATOM     15  O1  <0> d           0.022  -0.495   1.368  0.00  0.00    -0.300 OA
BRANCH  15  16
ATOM     16  C8  <0> d           0.042  -1.831   1.537  0.00  0.00     0.358 C 
ATOM     17  O2  <0> d           0.042  -2.566   0.570  0.00  0.00    -0.239 OA
ATOM     18  N1  <0> d           0.060  -2.353   2.780  0.00  0.00    -0.346 N 
ATOM     19  H8  <0> d           0.060  -1.766   3.552  0.00  0.00     0.161 HD
ATOM     20  H9  <0> d           0.075  -3.315   2.902  0.00  0.00     0.161 HD
ENDBRANCH  15  16
ENDBRANCH  12  15
ENDBRANCH   4  12
TORSDOF 3
