REMARK  6 active torsions:
REMARK  status: ('A' for Active; 'I' for Inactive)
REMARK    1  A    between atoms: C1_1  and  C2_2 
REMARK    2  A    between atoms: C3_4  and  C7_11 
REMARK    3  A    between atoms: C6_8  and  O1_10 
REMARK    4  A    between atoms: C7_11  and  C8_12 
REMARK    5  A    between atoms: C7_11  and  C9_13 
REMARK    6  A    between atoms: C7_11  and  C10_14 
ROOT
ATOM      1  C2  <0> d          -0.638   1.625  -1.295  0.00  0.00    -0.029 C 
ATOM      2  H1  <0> d          -1.706   1.852  -1.165  0.00  0.00     0.043 H 
ATOM      3  C3  <0> d           0.159   2.884  -1.677  0.00  0.00    -0.042 C 
ATOM      4  H2  <0> d           0.605   2.786  -2.678  0.00  0.00     0.041 H 
ATOM      5  C4  <0> d           1.241   3.067  -0.593  0.00  0.00    -0.058 C 
ATOM      6  C5  <0> d           1.431   1.648  -0.003  0.00  0.00    -0.040 C 
ATOM      7  C6  <0> d          -0.013   1.086   0.008  0.00  0.00     0.039 C 
ATOM      8  H3  <0> d          -0.083  -0.005   0.129  0.00  0.00     0.083 H 
ATOM      9  H7  <0> d           2.163   3.449  -1.055  0.00  0.00     0.033 H 
ATOM     10  H8  <0> d           0.885   3.784   0.162  0.00  0.00     0.033 H 
ATOM     11  H9  <0> d           2.107   1.069  -0.649  0.00  0.00     0.036 H 
ATOM     12  H10 <0> d           1.864   1.724   1.005  0.00  0.00     0.036 H 
ENDROOT
BRANCH   3  13
ATOM     13  C7  <0> d          -0.767   4.102  -1.705  0.00  0.00    -0.047 C 
BRANCH  13  14
ATOM     14  C8  <0> d           0.044   5.352  -2.052  0.00  0.00    -0.069 C 
ATOM     15  H12 <0> d          -0.622   6.227  -2.071  0.00  0.00     0.028 H 
ATOM     16  H13 <0> d           0.510   5.223  -3.040  0.00  0.00     0.028 H 
ATOM     17  H14 <0> d           0.827   5.503  -1.294  0.00  0.00     0.028 H 
ENDBRANCH  13  14
BRANCH  13  18
ATOM     18  C9  <0> d          -1.856   3.891  -2.759  0.00  0.00    -0.069 C 
ATOM     19  H15 <0> d          -2.521   4.767  -2.778  0.00  0.00     0.028 H 
ATOM     20  H16 <0> d          -2.439   2.993  -2.509  0.00  0.00     0.028 H 
ATOM     21  H17 <0> d          -1.390   3.763  -3.747  0.00  0.00     0.028 H 
ENDBRANCH  13  18
BRANCH  13  22
ATOM     22  C10 <0> d          -1.416   4.280  -0.330  0.00  0.00    -0.069 C 
ATOM     23  H18 <0> d          -2.081   5.156  -0.350  0.00  0.00     0.028 H 
ATOM     24  H19 <0> d          -0.633   4.432   0.428  0.00  0.00     0.028 H 
ATOM     25  H20 <0> d          -1.999   3.382  -0.081  0.00  0.00     0.028 H 
ENDBRANCH  13  22
ENDBRANCH   3  13
BRANCH   1  26
ATOM     26  C1  <0> d          -0.524   0.576  -2.404  0.00  0.00    -0.070 C 
ATOM     27  H4  <0> d          -0.972   0.969  -3.328  0.00  0.00     0.028 H 
ATOM     28  H5  <0> d          -1.054  -0.339  -2.099  0.00  0.00     0.028 H 
ATOM     29  H6  <0> d           0.536   0.343  -2.581  0.00  0.00     0.028 H 
ENDBRANCH   1  26
BRANCH   7  30
ATOM     30  O1  <0> d          -0.729   1.569   1.146  0.00  0.00    -0.395 OA
ATOM     31  H11 <0> d          -0.413   1.278   2.159  0.00  0.00     0.210 HD
ENDBRANCH   7  30
TORSDOF 6
