REMARK  2 active torsions:
REMARK  status: ('A' for Active; 'I' for Inactive)
REMARK    1  A    between atoms: C2_2  and  N6_11 
REMARK    2  A    between atoms: C3_4  and  N5_10 
ROOT
ATOM      1  C1  <0> d          -0.013   1.076   0.008  0.00  0.00     0.008 A 
ATOM      2  C2  <0> d          -1.209   1.767   0.017  0.00  0.00     0.144 A 
ATOM      3  N1  <0> d          -1.214   3.105   0.030  0.00  0.00    -0.046 NA
ATOM      4  C3  <0> d          -0.097   3.799   0.023  0.00  0.00     0.724 A 
ATOM      5  N2  <0> d           1.115   3.180   0.008  0.00  0.00    -0.042 N 
ATOM      6  C4  <0> d           1.184   1.811   0.001  0.00  0.00     0.174 A 
ATOM      7  N3  <0> d           2.467   1.478  -0.013  0.00  0.00    -0.220 NA
ATOM      8  C5  <0> d           3.213   2.578  -0.015  0.00  0.00     0.109 A 
ATOM      9  N4  <0> d           2.439   3.636  -0.002  0.00  0.00    -0.144 NA
ATOM     10  H1  <0> d           0.002  -0.004   0.002  0.00  0.00     0.095 H 
ATOM     11  H2  <0> d           4.292   2.597  -0.025  0.00  0.00     0.149 H 
ENDROOT
BRANCH   2  12
ATOM     12  N6  <0> d          -2.410   1.071   0.020  0.00  0.00    -0.383 N 
ATOM     13  H5  <0> d          -2.408   0.101   0.015  0.00  0.00     0.157 HD
ATOM     14  H6  <0> d          -3.251   1.554   0.026  0.00  0.00     0.157 HD
ENDBRANCH   2  12
BRANCH   4  15
ATOM     15  N5  <0> d          -0.155   5.172   0.031  0.00  0.00    -0.231 N 
ATOM     16  H3  <0> d           0.664   5.692   0.026  0.00  0.00     0.174 HD
ATOM     17  H4  <0> d          -1.014   5.622   0.041  0.00  0.00     0.174 HD
ENDBRANCH   4  15
TORSDOF 2
