REMARK  4 active torsions:
REMARK  status: ('A' for Active; 'I' for Inactive)
REMARK    1  A    between atoms: C1_1  and  C2_2 
REMARK    2  A    between atoms: C2_2  and  C3_4 
REMARK    3  A    between atoms: C2_2  and  C5_7 
REMARK    4  A    between atoms: C3_4  and  C4_5 
ROOT
ATOM      1  C5  <0> d           0.742  -0.511   1.242  0.00  0.00     0.042 C 
ATOM      2  H2  <0> d           0.750  -1.601   1.248  0.00  0.00     0.083 H 
ATOM      3  C6  <0> d           2.187   0.024   1.244  0.00  0.00    -0.039 C 
ATOM      4  C7  <0> d           2.297   0.815   2.570  0.00  0.00    -0.043 C 
ATOM      5  C8  <0> d           1.141   0.209   3.406  0.00  0.00     0.020 C 
ATOM      6  O2  <0> d           0.099  -0.019   2.430  0.00  0.00    -0.385 OA
ATOM      7  H8  <0> d           2.899  -0.802   1.232  0.00  0.00     0.036 H 
ATOM      8  H9  <0> d           2.352   0.683   0.392  0.00  0.00     0.036 H 
ATOM      9  H10 <0> d           3.259   0.636   3.051  0.00  0.00     0.036 H 
ATOM     10  H11 <0> d           2.140   1.880   2.402  0.00  0.00     0.036 H 
ATOM     11  H12 <0> d           1.449  -0.731   3.863  0.00  0.00     0.074 H 
ATOM     12  H13 <0> d           0.806   0.915   4.167  0.00  0.00     0.074 H 
ENDROOT
BRANCH   1  13
ATOM     13  C2  <0> d           0.002  -0.004   0.002  0.00  0.00    -0.023 C 
ATOM     14  H1  <0> d           0.512  -0.356  -0.895  0.00  0.00     0.044 H 
BRANCH  13  15
ATOM     15  C1  <0> d          -0.019   1.526   0.010  0.00  0.00    -0.070 C 
ATOM     16  H3  <0> d           1.004   1.903   0.003  0.00  0.00     0.028 H 
ATOM     17  H4  <0> d          -0.546   1.887  -0.873  0.00  0.00     0.028 H 
ATOM     18  H5  <0> d          -0.529   1.877   0.907  0.00  0.00     0.028 H 
ENDBRANCH  13  15
BRANCH  13  19
ATOM     19  C3  <0> d          -1.433  -0.534   0.013  0.00  0.00     0.021 C 
ATOM     20  H6  <0> d          -1.419  -1.620   0.097  0.00  0.00     0.049 H 
ATOM     21  H7  <0> d          -1.970  -0.111   0.862  0.00  0.00     0.049 H 
BRANCH  19  22
ATOM     22  C4  <0> d          -2.125  -0.137  -1.266  0.00  0.00     0.172 C 
ATOM     23  O1  <0> d          -1.530   0.503  -2.101  0.00  0.00    -0.648 OA
ATOM     24  O3  <0> d          -3.401  -0.496  -1.478  0.00  0.00    -0.648 OA
ENDBRANCH  19  22
ENDBRANCH  13  19
ENDBRANCH   1  13
TORSDOF 4
