REMARK  0 active torsions:
REMARK  status: ('A' for Active; 'I' for Inactive)
ROOT
ATOM      1  C1  <0> d           1.562   1.609   2.419  0.00  0.00    -0.038 C 
ATOM      2  C2  <0> d           2.197   0.991   1.126  0.00  0.00    -0.038 C 
ATOM      3  C3  <0> d           1.409   1.721  -0.002  0.00  0.00     0.052 C 
ATOM      4  H1  <0> d           1.902   1.746  -0.974  0.00  0.00     0.084 H 
ATOM      5  C4  <0> d          -0.013   1.086   0.008  0.00  0.00     0.063 C 
ATOM      6  H2  <0> d           0.002  -0.004   0.002  0.00  0.00     0.060 H 
ATOM      7  C5  <0> d          -0.647   1.692   1.299  0.00  0.00     0.007 C 
ATOM      8  H3  <0> d          -0.998   0.947   2.013  0.00  0.00     0.048 H 
ATOM      9  C6  <0> d           0.498   2.594   1.848  0.00  0.00     0.045 C 
ATOM     10  H4  <0> d           0.192   3.393   2.523  0.00  0.00     0.084 H 
ATOM     11  O1  <0> d           1.145   3.027   0.607  0.00  0.00    -0.379 OA
ATOM     12  C7  <0> d          -1.752   2.609   0.737  0.00  0.00     0.035 C 
ATOM     13  O2  <0> d          -1.408   2.812  -0.666  0.00  0.00    -0.321 OA
ATOM     14  C8  <0> d          -0.808   1.679  -1.135  0.00  0.00     0.266 C 
ATOM     15  O3  <0> d          -0.882   1.229  -2.254  0.00  0.00    -0.265 OA
ATOM     16  H5  <0> d           2.311   2.145   3.002  0.00  0.00     0.036 H 
ATOM     17  H6  <0> d           1.087   0.833   3.020  0.00  0.00     0.036 H 
ATOM     18  H7  <0> d           2.034  -0.086   1.076  0.00  0.00     0.036 H 
ATOM     19  H8  <0> d           3.260   1.225   1.069  0.00  0.00     0.036 H 
ATOM     20  H9  <0> d          -2.724   2.124   0.822  0.00  0.00     0.076 H 
ATOM     21  H10 <0> d          -1.758   3.562   1.267  0.00  0.00     0.076 H 
ENDROOT
TORSDOF 0
