REMARK  0 active torsions:
REMARK  status: ('A' for Active; 'I' for Inactive)
ROOT
ATOM      1  C1  <0> d          -0.013   1.076   0.008  0.00  0.00    -0.005 A 
ATOM      2  C2  <0> d          -1.213   1.770   0.017  0.00  0.00     0.130 A 
ATOM      3  N1  <0> d          -1.191   3.095   0.029  0.00  0.00    -0.230 NA
ATOM      4  C3  <0> d          -0.049   3.751   0.022  0.00  0.00     0.089 A 
ATOM      5  N2  <0> d           1.111   3.126   0.008  0.00  0.00    -0.230 NA
ATOM      6  C4  <0> d           1.169   1.802   0.001  0.00  0.00     0.130 A 
ATOM      7 Cl1  <0> d           2.702   0.989  -0.018  0.00  0.00    -0.062 Cl
ATOM      8 Cl2  <0> d          -2.724   0.915   0.020  0.00  0.00    -0.062 Cl
ATOM      9  H1  <0> d           0.002  -0.004   0.002  0.00  0.00     0.093 H 
ATOM     10  H2  <0> d          -0.064   4.831   0.027  0.00  0.00     0.146 H 
ENDROOT
TORSDOF 0
