REMARK  3 active torsions:
REMARK  status: ('A' for Active; 'I' for Inactive)
REMARK    1  A    between atoms: C2_2  and  C3_3 
REMARK    2  A    between atoms: C3_3  and  N1_4 
REMARK       I    between atoms: N1_4  and  C4_5 
REMARK    3  A    between atoms: C4_5  and  C5_7 
ROOT
ATOM      1  C5  <0> d          -2.968   5.527  -2.451  0.00  0.00     0.088 C 
ATOM      2  C6  <0> d          -2.988   6.999  -2.443  0.00  0.00     0.068 C 
ATOM      3  N2  <0> d          -3.003   8.135  -2.437  0.00  0.00    -0.197 NA
ATOM      4  H7  <0> d          -2.533   5.175  -3.386  0.00  0.00     0.069 H 
ATOM      5  H8  <0> d          -3.986   5.150  -2.359  0.00  0.00     0.069 H 
ENDROOT
BRANCH   1   6
ATOM      6  C4  <0> d          -2.141   5.030  -1.294  0.00  0.00     0.230 C 
ATOM      7  N1  <0> d          -1.980   3.706  -1.100  0.00  0.00    -0.357 N 
ATOM      8  H6  <0> d          -2.398   3.073  -1.705  0.00  0.00     0.162 HD
ATOM      9  O1  <0> d          -1.619   5.821  -0.537  0.00  0.00    -0.273 OA
BRANCH   7  10
ATOM     10  C3  <0> d          -1.176   3.222   0.025  0.00  0.00     0.009 C 
ATOM     11  H4  <0> d          -1.611   3.575   0.961  0.00  0.00     0.070 H 
ATOM     12  H5  <0> d          -0.158   3.600  -0.067  0.00  0.00     0.070 H 
BRANCH  10  13
ATOM     13  C2  <0> d          -1.156   1.715   0.017  0.00  0.00    -0.095 C 
ATOM     14  C1  <0> d          -0.013   1.076   0.008  0.00  0.00    -0.123 C 
ATOM     15  H1  <0> d           0.002  -0.004   0.002  0.00  0.00     0.066 H 
ATOM     16  H2  <0> d           0.915   1.629   0.002  0.00  0.00     0.066 H 
ATOM     17  H3  <0> d          -2.084   1.163   0.018  0.00  0.00     0.078 H 
ENDBRANCH  10  13
ENDBRANCH   7  10
ENDBRANCH   1   6
TORSDOF 3
