REMARK  4 active torsions:
REMARK  status: ('A' for Active; 'I' for Inactive)
REMARK    1  A    between atoms: C1_1  and  O1_2 
REMARK    2  A    between atoms: O1_2  and  C2_3 
REMARK    3  A    between atoms: C3_4  and  C5_10 
REMARK    4  A    between atoms: C4_5  and  N3_9 
REMARK       I    between atoms: C5_10  and  N4_12 
ROOT
ATOM      1  C2  <0> d           2.121   0.610  -0.015  0.00  0.00     0.203 A 
ATOM      2  C3  <0> d           1.309   1.774  -0.001  0.00  0.00     0.131 A 
ATOM      3  C4  <0> d          -0.016   1.343   0.009  0.00  0.00     0.135 A 
ATOM      4  N1  <0> d           0.002  -0.004   0.002  0.00  0.00    -0.260 N 
ATOM      5  H1  <0> d          -0.802  -0.598   0.006  0.00  0.00     0.191 HD
ATOM      6  N2  <0> d           1.333  -0.433  -0.013  0.00  0.00    -0.146 NA
ENDROOT
BRANCH   1   7
ATOM      7  O1  <0> d           3.479   0.584  -0.028  0.00  0.00    -0.337 OA
BRANCH   7   8
ATOM      8  C1  <0> d           4.104  -0.701  -0.041  0.00  0.00     0.012 C 
ATOM      9  H2  <0> d           3.808  -1.257   0.849  0.00  0.00     0.067 H 
ATOM     10  H3  <0> d           3.792  -1.247  -0.931  0.00  0.00     0.067 H 
ATOM     11  H4  <0> d           5.187  -0.579  -0.050  0.00  0.00     0.067 H 
ENDBRANCH   7   8
ENDBRANCH   1   7
BRANCH   2  12
ATOM     12  C5  <0> d           1.776   3.163   0.002  0.00  0.00     0.257 C 
ATOM     13  O2  <0> d           1.980   3.735   1.057  0.00  0.00    -0.268 OA
ATOM     14  N4  <0> d           1.980   3.808  -1.164  0.00  0.00    -0.366 N 
ATOM     15  H7  <0> d           1.817   3.353  -2.005  0.00  0.00     0.159 HD
ATOM     16  H8  <0> d           2.288   4.728  -1.162  0.00  0.00     0.159 HD
ENDBRANCH   2  12
BRANCH   3  17
ATOM     17  N3  <0> d          -1.138   2.147   0.019  0.00  0.00    -0.383 N 
ATOM     18  H5  <0> d          -2.022   1.747   0.022  0.00  0.00     0.157 HD
ATOM     19  H6  <0> d          -1.043   3.112   0.024  0.00  0.00     0.157 HD
ENDBRANCH   3  17
TORSDOF 4
