REMARK  2 active torsions:
REMARK  status: ('A' for Active; 'I' for Inactive)
REMARK    1  A    between atoms: C1_1  and  O1_2 
REMARK    2  A    between atoms: O1_2  and  C2_3 
ROOT
ATOM      1  C2  <0> d          -1.223   1.754   0.017  0.00  0.00     0.068 A 
ATOM      2  C3  <0> d          -0.013   1.076   0.008  0.00  0.00    -0.050 A 
ATOM      3  C4  <0> d           1.172   1.783   0.000  0.00  0.00    -0.074 A 
ATOM      4  C5  <0> d           1.159   3.169   0.008  0.00  0.00    -0.052 A 
ATOM      5  C6  <0> d          -0.045   3.847   0.022  0.00  0.00    -0.049 A 
ATOM      6  C7  <0> d          -1.236   3.140   0.031  0.00  0.00    -0.044 A 
ATOM      7  C8  <0> d           0.208   5.340   0.027  0.00  0.00    -0.040 C 
ATOM      8  C9  <0> d           1.674   5.502  -0.427  0.00  0.00    -0.058 C 
ATOM      9  C10 <0> d           2.304   4.159   0.001  0.00  0.00    -0.040 C 
ATOM     10  H4  <0> d           0.002  -0.004   0.002  0.00  0.00     0.087 H 
ATOM     11  H5  <0> d           2.114   1.255  -0.011  0.00  0.00     0.084 H 
ATOM     12  H6  <0> d          -2.177   3.670   0.042  0.00  0.00     0.088 H 
ATOM     13  H7  <0> d          -0.462   5.839  -0.673  0.00  0.00     0.040 H 
ATOM     14  H8  <0> d           0.076   5.742   1.031  0.00  0.00     0.040 H 
ATOM     15  H9  <0> d           1.733   5.630  -1.508  0.00  0.00     0.033 H 
ATOM     16  H10 <0> d           2.150   6.335   0.090  0.00  0.00     0.033 H 
ATOM     17  H11 <0> d           2.735   4.245   0.999  0.00  0.00     0.040 H 
ATOM     18  H12 <0> d           3.065   3.853  -0.716  0.00  0.00     0.040 H 
ENDROOT
BRANCH   1  19
ATOM     19  O1  <0> d          -2.392   1.062   0.019  0.00  0.00    -0.356 OA
BRANCH  19  20
ATOM     20  C1  <0> d          -2.302  -0.364   0.011  0.00  0.00     0.010 C 
ATOM     21  H1  <0> d          -3.304  -0.792   0.013  0.00  0.00     0.066 H 
ATOM     22  H2  <0> d          -1.770  -0.689  -0.883  0.00  0.00     0.066 H 
ATOM     23  H3  <0> d          -1.762  -0.699   0.896  0.00  0.00     0.066 H 
ENDBRANCH  19  20
ENDBRANCH   1  19
TORSDOF 2
