REMARK  3 active torsions:
REMARK  status: ('A' for Active; 'I' for Inactive)
REMARK    1  A    between atoms: C1_1  and  C2_2 
REMARK    2  A    between atoms: C2_2  and  C3_4 
REMARK    3  A    between atoms: C2_2  and  N1_8 
ROOT
ATOM      1  C2  <0> d           0.002  -0.004   0.002  0.00  0.00     0.219 C 
ATOM      2  H1  <0> d           0.512  -0.356  -0.895  0.00  0.00     0.101 H 
ENDROOT
BRANCH   1   3
ATOM      3  C1  <0> d          -0.019   1.526   0.010  0.00  0.00    -0.039 C 
ATOM      4  H2  <0> d           1.004   1.903   0.003  0.00  0.00     0.030 H 
ATOM      5  H3  <0> d          -0.546   1.887  -0.873  0.00  0.00     0.030 H 
ATOM      6  H4  <0> d          -0.529   1.877   0.907  0.00  0.00     0.030 H 
ENDBRANCH   1   3
BRANCH   1   7
ATOM      7  C3  <0> d           0.742  -0.511   1.242  0.00  0.00     0.417 C 
ATOM      8  F1  <0> d           0.087  -0.060   2.393  0.00  0.00    -0.169 F 
ATOM      9  F2  <0> d           0.761  -1.910   1.234  0.00  0.00    -0.169 F 
ATOM     10  F3  <0> d           2.055  -0.027   1.232  0.00  0.00    -0.169 F 
ENDBRANCH   1   7
BRANCH   1  11
ATOM     11  N1  <0> d          -1.376  -0.512   0.012  0.00  0.00     0.091 N 
ATOM     12  H5  <0> d          -1.886  -0.191  -0.797  0.00  0.00     0.313 HD
ATOM     13  H6  <0> d          -1.389  -1.520   0.072  0.00  0.00     0.313 HD
ENDBRANCH   1  11
TORSDOF 3
