REMARK  5 active torsions:
REMARK  status: ('A' for Active; 'I' for Inactive)
REMARK    1  A    between atoms: C1_1  and  C2_2 
REMARK    2  A    between atoms: C2_2  and  C4_6 
REMARK    3  A    between atoms: C4_6  and  C5_7 
REMARK    4  A    between atoms: C4_6  and  C6_8 
REMARK    5  A    between atoms: C4_6  and  C7_9 
ROOT
ATOM      1  C2  <0> d           0.002  -0.004   0.002  0.00  0.00     0.033 C 
ATOM      2  H1  <0> d           0.512  -0.356  -0.895  0.00  0.00     0.063 H 
ATOM      3  C3  <0> d           0.714  -0.492   1.195  0.00  0.00     0.064 C 
ATOM      4  N1  <0> d           1.263  -0.868   2.115  0.00  0.00    -0.197 NA
ENDROOT
BRANCH   1   5
ATOM      5  C1  <0> d          -0.019   1.526   0.010  0.00  0.00    -0.060 C 
ATOM      6  H2  <0> d           1.004   1.903   0.003  0.00  0.00     0.029 H 
ATOM      7  H3  <0> d          -0.546   1.887  -0.873  0.00  0.00     0.029 H 
ATOM      8  H4  <0> d          -0.529   1.877   0.907  0.00  0.00     0.029 H 
ENDBRANCH   1   5
BRANCH   1   9
ATOM      9  C4  <0> d          -1.433  -0.534   0.013  0.00  0.00    -0.036 C 
BRANCH   9  10
ATOM     10  C5  <0> d          -2.173  -0.027  -1.227  0.00  0.00    -0.068 C 
ATOM     11  H5  <0> d          -1.663  -0.378  -2.123  0.00  0.00     0.028 H 
ATOM     12  H6  <0> d          -3.196  -0.404  -1.219  0.00  0.00     0.028 H 
ATOM     13  H7  <0> d          -2.188   1.063  -1.221  0.00  0.00     0.028 H 
ENDBRANCH   9  10
BRANCH   9  14
ATOM     14  C6  <0> d          -1.413  -2.063   0.004  0.00  0.00    -0.068 C 
ATOM     15  H8  <0> d          -0.885  -2.425   0.887  0.00  0.00     0.028 H 
ATOM     16  H9  <0> d          -2.435  -2.441   0.012  0.00  0.00     0.028 H 
ATOM     17  H10 <0> d          -0.902  -2.415  -0.892  0.00  0.00     0.028 H 
ENDBRANCH   9  14
BRANCH   9  18
ATOM     18  C7  <0> d          -2.149  -0.040   1.272  0.00  0.00    -0.068 C 
ATOM     19  H11 <0> d          -2.164   1.050   1.278  0.00  0.00     0.028 H 
ATOM     20  H12 <0> d          -3.172  -0.417   1.279  0.00  0.00     0.028 H 
ATOM     21  H13 <0> d          -1.622  -0.401   2.155  0.00  0.00     0.028 H 
ENDBRANCH   9  18
ENDBRANCH   1   9
TORSDOF 5
