REMARK  2 active torsions:
REMARK  status: ('A' for Active; 'I' for Inactive)
REMARK    1  A    between atoms: C1_1  and  O1_2 
REMARK    2  A    between atoms: O1_2  and  C2_3 
ROOT
ATOM      1  C2  <0> d          -0.152   1.185   2.371  0.00  0.00     0.170 A 
ATOM      2  C3  <0> d          -0.737   1.595   3.556  0.00  0.00    -0.017 A 
ATOM      3  C4  <0> d          -0.160   1.206   4.759  0.00  0.00    -0.014 A 
ATOM      4  N1  <0> d           0.929   0.457   4.756  0.00  0.00    -0.317 N 
ATOM      5  C5  <0> d           1.488   0.058   3.615  0.00  0.00     0.348 A 
ATOM      6  O2  <0> d           2.493  -0.632   3.649  0.00  0.00    -0.245 OA
ATOM      7  N2  <0> d           0.967   0.409   2.424  0.00  0.00    -0.170 NA
ATOM      8  H1  <0> d           1.373   0.163   5.718  0.00  0.00     0.170 HD
ATOM      9  H5  <0> d          -1.561   2.161   3.557  0.00  0.00     0.092 H 
ATOM     10  H6  <0> d          -0.569   1.492   5.625  0.00  0.00     0.111 H 
ENDROOT
BRANCH   1  11
ATOM     11  O1  <0> d          -0.682   1.547   1.184  0.00  0.00    -0.339 OA
BRANCH  11  12
ATOM     12  C1  <0> d          -0.013   1.086   0.008  0.00  0.00     0.012 C 
ATOM     13  H2  <0> d          -0.545   1.450  -0.883  0.00  0.00     0.067 H 
ATOM     14  H3  <0> d           0.002  -0.014   0.002  0.00  0.00     0.067 H 
ATOM     15  H4  <0> d           1.019   1.466   0.000  0.00  0.00     0.067 H 
ENDBRANCH  11  12
ENDBRANCH   1  11
TORSDOF 2
