REMARK  2 active torsions:
REMARK  status: ('A' for Active; 'I' for Inactive)
REMARK    1  A    between atoms: C1_1  and  C2_2 
REMARK    2  A    between atoms: C3_4  and  N4_9 
ROOT
ATOM      1  C2  <0> d           0.002  -0.004   0.002  0.00  0.00     0.097 A 
ATOM      2  N1  <0> d          -1.123  -0.674   0.004  0.00  0.00    -0.179 N 
ATOM      3  C3  <0> d          -1.115  -2.015  -0.004  0.00  0.00     0.704 A 
ATOM      4  N2  <0> d           0.032  -2.679  -0.013  0.00  0.00    -0.006 NA
ATOM      5  C4  <0> d           1.190  -2.013  -0.015  0.00  0.00     0.363 A 
ATOM      6  N3  <0> d           1.181  -0.664  -0.013  0.00  0.00    -0.296 N 
ATOM      7  O1  <0> d           2.247  -2.619  -0.024  0.00  0.00    -0.244 OA
ATOM      8  H6  <0> d           2.016  -0.170  -0.018  0.00  0.00     0.172 HD
ATOM      9  H7  <0> d          -1.968  -0.197   0.011  0.00  0.00     0.185 HD
ENDROOT
BRANCH   1  10
ATOM     10  C1  <0> d          -0.018   1.503   0.010  0.00  0.00    -0.022 C 
ATOM     11  H1  <0> d           1.004   1.880   0.003  0.00  0.00     0.037 H 
ATOM     12  H2  <0> d          -0.545   1.864  -0.873  0.00  0.00     0.037 H 
ATOM     13  H3  <0> d          -0.529   1.854   0.907  0.00  0.00     0.037 H 
ENDBRANCH   1  10
BRANCH   3  14
ATOM     14  N4  <0> d          -2.302  -2.704  -0.001  0.00  0.00    -0.233 N 
ATOM     15  H4  <0> d          -3.143  -2.221   0.006  0.00  0.00     0.174 HD
ATOM     16  H5  <0> d          -2.300  -3.674  -0.006  0.00  0.00     0.174 HD
ENDBRANCH   3  14
TORSDOF 2
