REMARK  1 active torsions:
REMARK  status: ('A' for Active; 'I' for Inactive)
REMARK    1  A    between atoms: C1_1  and  C2_2 
ROOT
ATOM      1  C2  <0> d           2.334   1.401  -0.013  0.00  0.00     0.022 A 
ATOM      2  C3  <0> d           1.152   2.054   0.002  0.00  0.00    -0.007 A 
ATOM      3  N1  <0> d          -0.016   1.341   0.009  0.00  0.00    -0.318 N 
ATOM      4  H1  <0> d          -0.891   1.825   0.020  0.00  0.00     0.170 HD
ATOM      5  C4  <0> d           0.002  -0.004   0.002  0.00  0.00     0.326 A 
ATOM      6  O1  <0> d          -1.048  -0.618   0.008  0.00  0.00    -0.247 OA
ATOM      7  N2  <0> d           1.166  -0.680  -0.013  0.00  0.00    -0.275 N 
ATOM      8  H2  <0> d           1.161  -1.680  -0.018  0.00  0.00     0.173 HD
ATOM      9  C5  <0> d           2.338  -0.014  -0.020  0.00  0.00     0.256 A 
ATOM     10  O2  <0> d           3.392  -0.625  -0.034  0.00  0.00    -0.267 OA
ATOM     11  H6  <0> d           1.128   3.134   0.008  0.00  0.00     0.112 H 
ENDROOT
BRANCH   1  12
ATOM     12  C1  <0> d           3.630   2.169  -0.021  0.00  0.00    -0.045 C 
ATOM     13  H3  <0> d           3.933   2.360  -1.050  0.00  0.00     0.033 H 
ATOM     14  H4  <0> d           3.494   3.118   0.500  0.00  0.00     0.033 H 
ATOM     15  H5  <0> d           4.401   1.586   0.483  0.00  0.00     0.033 H 
ENDBRANCH   1  12
TORSDOF 1
