REMARK  3 active torsions:
REMARK  status: ('A' for Active; 'I' for Inactive)
REMARK    1  A    between atoms: C1_1  and  C2_2 
REMARK    2  A    between atoms: C6_6  and  C8_9 
REMARK    3  A    between atoms: C7_7  and  O1_8 
ROOT
ATOM      1  C2  <0> d           1.175   1.782   0.000  0.00  0.00    -0.027 A 
ATOM      2  C3  <0> d          -0.013   1.076   0.008  0.00  0.00    -0.054 A 
ATOM      3  C4  <0> d          -1.220   1.751   0.017  0.00  0.00     0.035 A 
ATOM      4  C5  <0> d          -1.242   3.134   0.031  0.00  0.00    -0.054 A 
ATOM      5  C6  <0> d          -0.057   3.844   0.023  0.00  0.00    -0.027 A 
ATOM      6  C7  <0> d           1.155   3.169   0.008  0.00  0.00     0.077 A 
ATOM      7 Cl1  <0> d          -2.711   0.861   0.019  0.00  0.00    -0.084 Cl
ATOM      8  H4  <0> d           0.002  -0.004   0.002  0.00  0.00     0.087 H 
ATOM      9  H5  <0> d          -2.185   3.659   0.043  0.00  0.00     0.087 H 
ENDROOT
BRANCH   1  10
ATOM     10  C1  <0> d           2.490   1.047  -0.016  0.00  0.00    -0.049 C 
ATOM     11  H1  <0> d           2.797   0.875  -1.047  0.00  0.00     0.033 H 
ATOM     12  H2  <0> d           3.246   1.643   0.494  0.00  0.00     0.033 H 
ATOM     13  H3  <0> d           2.377   0.090   0.494  0.00  0.00     0.033 H 
ENDBRANCH   1  10
BRANCH   6  14
ATOM     14  O1  <0> d           2.322   3.866   0.001  0.00  0.00    -0.360 OA
ATOM     15  H6  <0> d           2.652   4.073  -0.884  0.00  0.00     0.217 HD
ENDBRANCH   6  14
BRANCH   5  16
ATOM     16  C8  <0> d          -0.081   5.351   0.032  0.00  0.00    -0.049 C 
ATOM     17  H7  <0> d          -0.096   5.720  -0.993  0.00  0.00     0.033 H 
ATOM     18  H8  <0> d          -0.971   5.697   0.556  0.00  0.00     0.033 H 
ATOM     19  H9  <0> d           0.808   5.726   0.540  0.00  0.00     0.033 H 
ENDBRANCH   5  16
TORSDOF 3
