REMARK  2 active torsions:
REMARK  status: ('A' for Active; 'I' for Inactive)
REMARK    1  A    between atoms: C1_1  and  O1_2 
REMARK    2  A    between atoms: O1_2  and  C2_3 
ROOT
ATOM      1  C2  <0> d          -0.016   1.355   0.009  0.00  0.00     0.102 A 
ATOM      2  C3  <0> d           1.171   2.064   0.002  0.00  0.00    -0.048 A 
ATOM      3  C4  <0> d           1.166   3.451   0.009  0.00  0.00    -0.079 A 
ATOM      4  C5  <0> d          -0.026   4.142   0.025  0.00  0.00    -0.070 A 
ATOM      5  C6  <0> d          -1.232   3.440   0.033  0.00  0.00     0.002 A 
ATOM      6  C7  <0> d          -1.232   2.037   0.019  0.00  0.00     0.118 A 
ATOM      7  O2  <0> d          -2.519   1.636   0.035  0.00  0.00    -0.319 OA
ATOM      8  C8  <0> d          -3.350   2.692   0.050  0.00  0.00     0.020 A 
ATOM      9  C9  <0> d          -2.646   3.833   0.049  0.00  0.00    -0.049 A 
ATOM     10  H4  <0> d           2.111   1.533  -0.010  0.00  0.00     0.087 H 
ATOM     11  H5  <0> d           2.100   3.992   0.004  0.00  0.00     0.083 H 
ATOM     12  H6  <0> d          -0.027   5.222   0.031  0.00  0.00     0.084 H 
ATOM     13  H7  <0> d          -4.428   2.631   0.060  0.00  0.00     0.123 H 
ATOM     14  H8  <0> d          -3.040   4.838   0.059  0.00  0.00     0.087 H 
ENDROOT
BRANCH   1  15
ATOM     15  O1  <0> d           0.002  -0.004   0.002  0.00  0.00    -0.353 OA
BRANCH  15  16
ATOM     16  C1  <0> d           1.284  -0.635  -0.014  0.00  0.00     0.010 C 
ATOM     17  H1  <0> d           1.845  -0.340   0.873  0.00  0.00     0.066 H 
ATOM     18  H2  <0> d           1.156  -1.718  -0.018  0.00  0.00     0.066 H 
ATOM     19  H3  <0> d           1.828  -0.330  -0.907  0.00  0.00     0.066 H 
ENDBRANCH  15  16
ENDBRANCH   1  15
TORSDOF 2
