REMARK  2 active torsions:
REMARK  status: ('A' for Active; 'I' for Inactive)
REMARK    1  A    between atoms: C1_1  and  C2_2 
REMARK    2  A    between atoms: C5_5  and  N1_9 
ROOT
ATOM      1  C2  <0> d          -1.239   3.133   0.030  0.00  0.00    -0.059 A 
ATOM      2  C3  <0> d          -1.218   1.751   0.017  0.00  0.00    -0.075 A 
ATOM      3  C4  <0> d          -0.013   1.076   0.008  0.00  0.00    -0.054 A 
ATOM      4  C5  <0> d           1.180   1.787   0.000  0.00  0.00     0.064 A 
ATOM      5  C6  <0> d           1.157   3.177   0.008  0.00  0.00     0.142 A 
ATOM      6  C7  <0> d          -0.054   3.846   0.023  0.00  0.00    -0.038 A 
ATOM      7  F1  <0> d           2.314   3.874   0.000  0.00  0.00    -0.204 F 
ATOM      8  H4  <0> d          -2.146   1.198   0.018  0.00  0.00     0.084 H 
ATOM      9  H5  <0> d           0.002  -0.004   0.002  0.00  0.00     0.087 H 
ATOM     10  H6  <0> d          -0.073   4.926   0.029  0.00  0.00     0.089 H 
ENDROOT
BRANCH   1  11
ATOM     11  C1  <0> d          -2.556   3.865   0.046  0.00  0.00    -0.051 C 
ATOM     12  H1  <0> d          -2.883   4.047  -0.977  0.00  0.00     0.033 H 
ATOM     13  H2  <0> d          -3.301   3.261   0.564  0.00  0.00     0.033 H 
ATOM     14  H3  <0> d          -2.437   4.817   0.564  0.00  0.00     0.033 H 
ENDBRANCH   1  11
BRANCH   4  15
ATOM     15  N1  <0> d           2.401   1.106  -0.015  0.00  0.00    -0.397 N 
ATOM     16  H7  <0> d           2.416   0.137  -0.021  0.00  0.00     0.156 HD
ATOM     17  H8  <0> d           3.234   1.604  -0.021  0.00  0.00     0.156 HD
ENDBRANCH   4  15
TORSDOF 2
