REMARK  3 active torsions:
REMARK  status: ('A' for Active; 'I' for Inactive)
REMARK    1  A    between atoms: C1_1  and  C2_2 
REMARK    2  A    between atoms: C2_2  and  C3_3 
REMARK    3  A    between atoms: C4_4  and  C5_8 
ROOT
ATOM      1  C3  <0> d           1.469   3.469   0.001  0.00  0.00     0.082 A 
ATOM      2  C4  <0> d           1.247   2.096   0.001  0.00  0.00     0.128 A 
ATOM      3  S1  <0> d           2.931   1.508  -0.018  0.00  0.00     0.043 SA
ATOM      4  N1  <0> d           3.669   2.906  -0.018  0.00  0.00    -0.110 NA
ATOM      5  N2  <0> d           2.741   3.791  -0.004  0.00  0.00    -0.146 NA
ENDROOT
BRANCH   1   6
ATOM      6  C2  <0> d           0.358   4.487   0.009  0.00  0.00    -0.025 C 
ATOM      7  H4  <0> d           0.688   5.389  -0.506  0.00  0.00     0.042 H 
ATOM      8  H5  <0> d          -0.514   4.077  -0.499  0.00  0.00     0.042 H 
BRANCH   6   9
ATOM      9  C1  <0> d          -0.008   4.831   1.454  0.00  0.00    -0.071 C 
ATOM     10  H1  <0> d          -0.338   3.929   1.970  0.00  0.00     0.028 H 
ATOM     11  H2  <0> d           0.864   5.241   1.962  0.00  0.00     0.028 H 
ATOM     12  H3  <0> d          -0.812   5.567   1.460  0.00  0.00     0.028 H 
ENDBRANCH   6   9
ENDBRANCH   1   6
BRANCH   2  13
ATOM     13  C5  <0> d          -0.016   1.344   0.009  0.00  0.00     0.220 C 
ATOM     14  O1  <0> d          -1.077   1.937   0.018  0.00  0.00    -0.643 OA
ATOM     15  O2  <0> d           0.002  -0.004   0.002  0.00  0.00    -0.643 OA
ENDBRANCH   2  13
TORSDOF 3
