REMARK  0 active torsions:
REMARK  status: ('A' for Active; 'I' for Inactive)
ROOT
ATOM      1  C1  <0> d           1.139   3.171   0.008  0.00  0.00    -0.082 A 
ATOM      2  C2  <0> d           1.178   1.788   0.000  0.00  0.00    -0.082 A 
ATOM      3  C3  <0> d          -0.013   1.076   0.008  0.00  0.00    -0.063 A 
ATOM      4  C4  <0> d          -1.203   1.745   0.017  0.00  0.00     0.045 A 
ATOM      5  C5  <0> d          -1.279   3.144   0.030  0.00  0.00    -0.016 A 
ATOM      6  C6  <0> d          -0.058   3.847   0.022  0.00  0.00    -0.072 A 
ATOM      7  C7  <0> d          -2.646   3.681   0.045  0.00  0.00    -0.063 A 
ATOM      8  C8  <0> d          -3.672   2.846   0.034  0.00  0.00    -0.014 A 
ATOM      9  S1  <0> d          -2.904   1.238   0.022  0.00  0.00     0.075 S 
ATOM     10  O1  <0> d          -3.124   0.761  -1.298  0.00  0.00    -0.248 OA
ATOM     11  H1  <0> d           2.064   3.729   0.002  0.00  0.00     0.083 H 
ATOM     12  H2  <0> d           2.124   1.269  -0.011  0.00  0.00     0.083 H 
ATOM     13  H3  <0> d           0.002  -0.004   0.002  0.00  0.00     0.085 H 
ATOM     14  H4  <0> d          -0.062   4.927   0.027  0.00  0.00     0.084 H 
ATOM     15  H5  <0> d          -2.812   4.748   0.051  0.00  0.00     0.085 H 
ATOM     16  H6  <0> d          -4.726   3.083   0.040  0.00  0.00     0.098 H 
ENDROOT
TORSDOF 0
