REMARK  0 active torsions:
REMARK  status: ('A' for Active; 'I' for Inactive)
ROOT
ATOM      1  C1  <0> d          -0.016   1.360   0.009  0.00  0.00    -0.082 A 
ATOM      2  C2  <0> d           1.170   2.085   0.002  0.00  0.00    -0.081 A 
ATOM      3  C3  <0> d           2.378   1.448  -0.013  0.00  0.00    -0.055 A 
ATOM      4  C4  <0> d           2.428   0.056  -0.021  0.00  0.00     0.061 A 
ATOM      5  C5  <0> d           1.228  -0.679  -0.013  0.00  0.00     0.011 A 
ATOM      6  C6  <0> d           0.002  -0.004   0.002  0.00  0.00    -0.069 A 
ATOM      7  C7  <0> d           1.609  -2.088  -0.025  0.00  0.00     0.034 A 
ATOM      8  N1  <0> d           2.910  -2.147  -0.038  0.00  0.00    -0.186 NA
ATOM      9  N2  <0> d           3.450  -0.857  -0.036  0.00  0.00    -0.278 N 
ATOM     10  H1  <0> d           4.396  -0.642  -0.044  0.00  0.00     0.189 HD
ATOM     11  H2  <0> d          -0.962   1.882   0.026  0.00  0.00     0.083 H 
ATOM     12  H3  <0> d           1.135   3.164   0.008  0.00  0.00     0.083 H 
ATOM     13  H4  <0> d           3.292   2.023  -0.019  0.00  0.00     0.087 H 
ATOM     14  H5  <0> d          -0.924  -0.560   0.008  0.00  0.00     0.085 H 
ATOM     15  H6  <0> d           0.934  -2.930  -0.023  0.00  0.00     0.118 H 
ENDROOT
TORSDOF 0
