REMARK  5 active torsions:
REMARK  status: ('A' for Active; 'I' for Inactive)
REMARK    1  A    between atoms: C1_1  and  C2_2 
REMARK    2  A    between atoms: C3_4  and  N5_11 
REMARK    3  A    between atoms: C4_6  and  N4_8 
REMARK    4  A    between atoms: N4_8  and  C5_9 
REMARK    5  A    between atoms: N4_8  and  C6_10 
ROOT
ATOM      1  C2  <0> d           0.002  -0.004   0.002  0.00  0.00     0.160 A 
ATOM      2  N1  <0> d           0.022  -0.669   1.144  0.00  0.00    -0.047 NA
ATOM      3  C3  <0> d           0.040  -2.000   1.141  0.00  0.00     0.737 A 
ATOM      4  N2  <0> d           0.038  -2.660  -0.013  0.00  0.00     0.130 NA
ATOM      5  C4  <0> d           0.018  -1.988  -1.158  0.00  0.00     0.741 A 
ATOM      6  N3  <0> d          -0.005  -0.657  -1.147  0.00  0.00    -0.047 NA
ENDROOT
BRANCH   5   7
ATOM      7  N4  <0> d           0.016  -2.669  -2.359  0.00  0.00    -0.222 N 
BRANCH   7   8
ATOM      8  C5  <0> d           0.037  -4.133  -2.370  0.00  0.00    -0.003 C 
ATOM      9  H4  <0> d          -0.986  -4.511  -2.363  0.00  0.00     0.057 H 
ATOM     10  H5  <0> d           0.547  -4.483  -3.268  0.00  0.00     0.057 H 
ATOM     11  H6  <0> d           0.564  -4.496  -1.488  0.00  0.00     0.057 H 
ENDBRANCH   7   8
BRANCH   7  12
ATOM     12  C6  <0> d          -0.006  -1.926  -3.622  0.00  0.00    -0.003 C 
ATOM     13  H7  <0> d          -0.019  -0.857  -3.414  0.00  0.00     0.057 H 
ATOM     14  H8  <0> d           0.882  -2.173  -4.203  0.00  0.00     0.057 H 
ATOM     15  H9  <0> d          -0.897  -2.198  -4.187  0.00  0.00     0.057 H 
ENDBRANCH   7  12
ENDBRANCH   5   7
BRANCH   3  16
ATOM     16  N5  <0> d           0.060  -2.694   2.333  0.00  0.00    -0.230 N 
ATOM     17  H10 <0> d           0.061  -2.211   3.175  0.00  0.00     0.174 HD
ATOM     18  H11 <0> d           0.073  -3.663   2.330  0.00  0.00     0.174 HD
ENDBRANCH   3  16
BRANCH   1  19
ATOM     19  C1  <0> d          -0.018   1.503   0.010  0.00  0.00    -0.018 C 
ATOM     20  H1  <0> d           1.004   1.880   0.003  0.00  0.00     0.037 H 
ATOM     21  H2  <0> d          -0.545   1.864  -0.873  0.00  0.00     0.037 H 
ATOM     22  H3  <0> d          -0.529   1.854   0.907  0.00  0.00     0.037 H 
ENDBRANCH   1  19
TORSDOF 5
