REMARK  1 active torsions:
REMARK  status: ('A' for Active; 'I' for Inactive)
REMARK    1  A    between atoms: C1_1  and  C2_2 
ROOT
ATOM      1  C2  <0> d           0.002  -0.004   0.002  0.00  0.00    -0.046 C 
ATOM      2  H1  <0> d           0.513  -0.350  -0.896  0.00  0.00     0.040 H 
ATOM      3  C3  <0> d          -1.444  -0.529  -0.006  0.00  0.00    -0.022 C 
ATOM      4  C4  <0> d          -1.361  -2.026   0.136  0.00  0.00     0.051 C 
ATOM      5  N1  <0> d          -1.795  -2.986  -0.579  0.00  0.00    -0.159 NA
ATOM      6  N2  <0> d          -1.315  -4.223  -0.146  0.00  0.00    -0.166 NA
ATOM      7  C5  <0> d          -0.593  -4.124   0.927  0.00  0.00     0.020 C 
ATOM      8  C6  <0> d          -0.623  -2.671   1.309  0.00  0.00     0.077 C 
ATOM      9  H2  <0> d          -1.151  -2.516   2.250  0.00  0.00     0.069 H 
ATOM     10  C7  <0> d           0.740  -2.017   1.305  0.00  0.00     0.142 C 
ATOM     11  O1  <0> d           1.757  -2.665   1.358  0.00  0.00    -0.297 OA
ATOM     12  C8  <0> d           0.758  -0.502   1.232  0.00  0.00    -0.005 C 
ATOM     13  H6  <0> d          -1.999  -0.105   0.831  0.00  0.00     0.042 H 
ATOM     14  H7  <0> d          -1.930  -0.269  -0.946  0.00  0.00     0.042 H 
ATOM     15  H8  <0> d          -0.077  -4.922   1.441  0.00  0.00     0.112 H 
ATOM     16  H9  <0> d           1.791  -0.159   1.180  0.00  0.00     0.044 H 
ATOM     17  H10 <0> d           0.291  -0.094   2.128  0.00  0.00     0.044 H 
ENDROOT
BRANCH   1  18
ATOM     18  C1  <0> d          -0.019   1.526   0.010  0.00  0.00    -0.072 C 
ATOM     19  H3  <0> d           1.004   1.903   0.003  0.00  0.00     0.028 H 
ATOM     20  H4  <0> d          -0.546   1.887  -0.873  0.00  0.00     0.028 H 
ATOM     21  H5  <0> d          -0.529   1.877   0.907  0.00  0.00     0.028 H 
ENDBRANCH   1  18
TORSDOF 1
