REMARK  8 active torsions:
REMARK  status: ('A' for Active; 'I' for Inactive)
REMARK    1  A    between atoms: C1_1  and  C2_2 
REMARK    2  A    between atoms: C2_2  and  C3_3 
REMARK    3  A    between atoms: C2_2  and  C4_4 
REMARK    4  A    between atoms: C2_2  and  C5_5 
REMARK    5  A    between atoms: C5_5  and  C6_7 
REMARK    6  A    between atoms: C6_7  and  C7_8 
REMARK    7  A    between atoms: C7_8  and  O2_9 
REMARK    8  A    between atoms: O2_9  and  C8_10 
ROOT
ATOM      1  C2  <0> d           0.002  -0.004   0.002  0.00  0.00     0.009 C 
ENDROOT
BRANCH   1   2
ATOM      2  C1  <0> d          -0.019   1.526   0.010  0.00  0.00    -0.063 C 
ATOM      3  H1  <0> d           1.004   1.903   0.003  0.00  0.00     0.029 H 
ATOM      4  H2  <0> d          -0.546   1.887  -0.873  0.00  0.00     0.029 H 
ATOM      5  H3  <0> d          -0.529   1.877   0.907  0.00  0.00     0.029 H 
ENDBRANCH   1   2
BRANCH   1   6
ATOM      6  C3  <0> d           0.742  -0.511   1.242  0.00  0.00    -0.063 C 
ATOM      7  H4  <0> d           0.232  -0.159   2.138  0.00  0.00     0.029 H 
ATOM      8  H5  <0> d           0.757  -1.601   1.236  0.00  0.00     0.029 H 
ATOM      9  H6  <0> d           1.765  -0.134   1.234  0.00  0.00     0.029 H 
ENDBRANCH   1   6
BRANCH   1  10
ATOM     10  C4  <0> d          -1.433  -0.534   0.013  0.00  0.00    -0.063 C 
ATOM     11  H7  <0> d          -1.960  -0.173  -0.870  0.00  0.00     0.029 H 
ATOM     12  H8  <0> d          -1.419  -1.623   0.007  0.00  0.00     0.029 H 
ATOM     13  H9  <0> d          -1.944  -0.182   0.910  0.00  0.00     0.029 H 
ENDBRANCH   1  10
BRANCH   1  14
ATOM     14  C5  <0> d           0.707  -0.490  -1.238  0.00  0.00     0.136 C 
ATOM     15  O1  <0> d           1.148   0.305  -2.033  0.00  0.00    -0.297 OA
BRANCH  14  16
ATOM     16  C6  <0> d           0.863  -1.968  -1.486  0.00  0.00     0.011 C 
ATOM     17  H10 <0> d           1.428  -2.416  -0.668  0.00  0.00     0.047 H 
ATOM     18  H11 <0> d          -0.122  -2.433  -1.544  0.00  0.00     0.047 H 
BRANCH  16  19
ATOM     19  C7  <0> d           1.609  -2.189  -2.803  0.00  0.00     0.025 C 
ATOM     20  H12 <0> d           1.044  -1.741  -3.620  0.00  0.00     0.074 H 
ATOM     21  H13 <0> d           2.594  -1.725  -2.745  0.00  0.00     0.074 H 
BRANCH  19  22
ATOM     22  O2  <0> d           1.757  -3.591  -3.038  0.00  0.00    -0.396 OA
BRANCH  22  23
ATOM     23  C8  <0> d           2.445  -3.908  -4.250  0.00  0.00     0.004 C 
ATOM     24  H14 <0> d           2.515  -4.990  -4.355  0.00  0.00     0.066 H 
ATOM     25  H15 <0> d           1.897  -3.495  -5.097  0.00  0.00     0.066 H 
ATOM     26  H16 <0> d           3.446  -3.479  -4.222  0.00  0.00     0.066 H 
ENDBRANCH  22  23
ENDBRANCH  19  22
ENDBRANCH  16  19
ENDBRANCH  14  16
ENDBRANCH   1  14
TORSDOF 8
