REMARK  2 active torsions:
REMARK  status: ('A' for Active; 'I' for Inactive)
REMARK    1  A    between atoms: C1_1  and  C2_2 
REMARK    2  A    between atoms: C5_8  and  C6_10 
ROOT
ATOM      1  C2  <0> d           0.002  -0.004   0.002  0.00  0.00     0.046 A 
ATOM      2  C3  <0> d          -1.169  -0.688   0.004  0.00  0.00     0.004 A 
ATOM      3  N1  <0> d          -1.164  -2.047  -0.003  0.00  0.00    -0.330 N 
ATOM      4  H1  <0> d          -1.999  -2.542  -0.002  0.00  0.00     0.168 HD
ATOM      5  C4  <0> d           0.018  -2.701  -0.012  0.00  0.00     0.269 A 
ATOM      6  O1  <0> d           0.050  -3.921  -0.019  0.00  0.00    -0.266 OA
ATOM      7  C5  <0> d           1.217  -1.953  -0.015  0.00  0.00     0.098 A 
ATOM      8  N2  <0> d           1.168  -0.644  -0.013  0.00  0.00    -0.252 NA
ATOM      9  H5  <0> d          -2.106  -0.152   0.011  0.00  0.00     0.114 H 
ENDROOT
BRANCH   1  10
ATOM     10  C1  <0> d          -0.018   1.503   0.010  0.00  0.00    -0.034 C 
ATOM     11  H2  <0> d           1.004   1.880   0.003  0.00  0.00     0.035 H 
ATOM     12  H3  <0> d          -0.545   1.864  -0.873  0.00  0.00     0.035 H 
ATOM     13  H4  <0> d          -0.529   1.854   0.907  0.00  0.00     0.035 H 
ENDBRANCH   1  10
BRANCH   7  14
ATOM     14  C6  <0> d           2.548  -2.659  -0.025  0.00  0.00    -0.030 C 
ATOM     15  H6  <0> d           2.864  -2.824  -1.055  0.00  0.00     0.035 H 
ATOM     16  H7  <0> d           3.289  -2.046   0.488  0.00  0.00     0.035 H 
ATOM     17  H8  <0> d           2.454  -3.618   0.485  0.00  0.00     0.035 H 
ENDBRANCH   7  14
TORSDOF 2
