REMARK  4 active torsions:
REMARK  status: ('A' for Active; 'I' for Inactive)
REMARK    1  A    between atoms: C1_1  and  C2_2 
REMARK    2  A    between atoms: C1_1  and  C4_9 
REMARK    3  A    between atoms: C2_2  and  C3_4 
REMARK    4  A    between atoms: C2_2  and  N1_8 
REMARK       I    between atoms: C4_9  and  N2_11 
ROOT
ATOM      1  C2  <0> d          -0.729   1.579   1.267  0.00  0.00     0.230 C 
ATOM      2  H1  <0> d          -1.796   1.314   1.233  0.00  0.00     0.102 H 
ENDROOT
BRANCH   1   3
ATOM      3  C1  <0> d          -0.013   1.086   0.008  0.00  0.00     0.046 C 
ATOM      4  H2  <0> d           1.019   1.467   0.000  0.00  0.00     0.050 H 
ATOM      5  H3  <0> d           0.002  -0.014   0.002  0.00  0.00     0.050 H 
BRANCH   3   6
ATOM      6  C4  <0> d          -0.742   1.585  -1.213  0.00  0.00     0.217 C 
ATOM      7  O1  <0> d          -1.736   2.268  -1.088  0.00  0.00    -0.274 OA
ATOM      8  N2  <0> d          -0.288   1.272  -2.443  0.00  0.00    -0.370 N 
ATOM      9  H6  <0> d          -0.820   1.637  -3.334  0.00  0.00     0.159 HD
ATOM     10  H7  <0> d           0.614   0.653  -2.556  0.00  0.00     0.159 HD
ENDBRANCH   3   6
ENDBRANCH   1   3
BRANCH   1  11
ATOM     11  C3  <0> d          -0.064   0.971   2.503  0.00  0.00     0.418 C 
ATOM     12  F1  <0> d           1.280   1.359   2.549  0.00  0.00    -0.169 F 
ATOM     13  F2  <0> d          -0.719   1.423   3.654  0.00  0.00    -0.169 F 
ATOM     14  F3  <0> d          -0.144  -0.424   2.438  0.00  0.00    -0.169 F 
ENDBRANCH   1  11
BRANCH   1  15
ATOM     15  N1  <0> d          -0.644   3.044   1.336  0.00  0.00     0.092 N 
ATOM     16  H4  <0> d          -1.159   3.399   2.241  0.00  0.00     0.313 HD
ATOM     17  H5  <0> d           0.412   3.349   1.371  0.00  0.00     0.313 HD
ENDBRANCH   1  15
TORSDOF 4
