REMARK  0 active torsions:
REMARK  status: ('A' for Active; 'I' for Inactive)
ROOT
ATOM      1  C1  <0> d           2.420   0.043  -0.021  0.00  0.00    -0.057 A 
ATOM      2  C2  <0> d           2.388   1.420  -0.013  0.00  0.00    -0.041 A 
ATOM      3  C3  <0> d           1.174   2.090   0.002  0.00  0.00     0.158 A 
ATOM      4  C4  <0> d          -0.017   1.379   0.010  0.00  0.00     0.194 A 
ATOM      5  C5  <0> d           0.002  -0.004   0.002  0.00  0.00     0.178 A 
ATOM      6  C6  <0> d           1.226  -0.683  -0.013  0.00  0.00     0.086 A 
ATOM      7  C7  <0> d           1.254  -2.114  -0.021  0.00  0.00     0.102 C 
ATOM      8  N1  <0> d           1.276  -3.250  -0.027  0.00  0.00    -0.191 NA
ATOM      9  F1  <0> d          -1.157  -0.698   0.009  0.00  0.00    -0.201 F 
ATOM     10  F2  <0> d          -1.196   2.038   0.019  0.00  0.00    -0.200 F 
ATOM     11  F3  <0> d           1.151   3.441   0.010  0.00  0.00    -0.203 F 
ATOM     12  H1  <0> d           3.367  -0.476  -0.033  0.00  0.00     0.086 H 
ATOM     13  H2  <0> d           3.312   1.980  -0.019  0.00  0.00     0.088 H 
ENDROOT
TORSDOF 0
