REMARK  1 active torsions:
REMARK  status: ('A' for Active; 'I' for Inactive)
REMARK    1  A    between atoms: C5_6  and  C7_9 
ROOT
ATOM      1  C1  <0> d           0.718  -0.510   1.257  0.00  0.00    -0.016 C 
ATOM      2  C2  <0> d           0.002  -0.004   0.002  0.00  0.00     0.021 C 
ATOM      3  O1  <0> d          -0.017   1.425   0.010  0.00  0.00    -0.391 OA
ATOM      4  C3  <0> d           1.279   2.026   0.001  0.00  0.00     0.021 C 
ATOM      5  C4  <0> d           2.046   1.601   1.256  0.00  0.00    -0.016 C 
ATOM      6  C5  <0> d           2.133   0.073   1.299  0.00  0.00     0.141 C 
ATOM      7  C6  <0> d           2.898  -0.409   0.137  0.00  0.00     0.080 C 
ATOM      8  N1  <0> d           3.489  -0.781  -0.759  0.00  0.00    -0.196 NA
ATOM      9  H1  <0> d           0.167  -0.193   2.143  0.00  0.00     0.039 H 
ATOM     10  H2  <0> d           0.772  -1.599   1.232  0.00  0.00     0.039 H 
ATOM     11  H3  <0> d          -1.020  -0.381  -0.011  0.00  0.00     0.074 H 
ATOM     12  H4  <0> d           0.530  -0.356  -0.884  0.00  0.00     0.074 H 
ATOM     13  H5  <0> d           1.824   1.701  -0.885  0.00  0.00     0.074 H 
ATOM     14  H6  <0> d           1.177   3.111  -0.013  0.00  0.00     0.074 H 
ATOM     15  H7  <0> d           1.522   1.961   2.142  0.00  0.00     0.039 H 
ATOM     16  H8  <0> d           3.050   2.023   1.229  0.00  0.00     0.039 H 
ENDROOT
BRANCH   6  17
ATOM     17  C7  <0> d           2.819  -0.358   2.570  0.00  0.00     0.196 C 
ATOM     18  O2  <0> d           2.236  -1.059   3.363  0.00  0.00    -0.647 OA
ATOM     19  O3  <0> d           4.077   0.038   2.821  0.00  0.00    -0.647 OA
ENDBRANCH   6  17
TORSDOF 1
