REMARK  4 active torsions:
REMARK  status: ('A' for Active; 'I' for Inactive)
REMARK    1  A    between atoms: C1_1  and  C2_2 
REMARK    2  A    between atoms: C2_2  and  C3_3 
REMARK    3  A    between atoms: C3_3  and  C4_4 
REMARK    4  A    between atoms: C5_6  and  N4_9 
ROOT
ATOM      1  C3  <0> d           0.718  -0.497  -1.257  0.00  0.00    -0.006 C 
ATOM      2  H6  <0> d           0.191  -0.136  -2.140  0.00  0.00     0.044 H 
ATOM      3  H7  <0> d           1.741  -0.120  -1.264  0.00  0.00     0.044 H 
ENDROOT
BRANCH   1   4
ATOM      4  C2  <0> d           0.002  -0.004   0.002  0.00  0.00    -0.062 C 
ATOM      5  H4  <0> d           0.529  -0.365   0.885  0.00  0.00     0.033 H 
ATOM      6  H5  <0> d          -1.020  -0.381   0.010  0.00  0.00     0.033 H 
BRANCH   4   7
ATOM      7  C1  <0> d          -0.019   1.526   0.010  0.00  0.00    -0.076 C 
ATOM      8  H1  <0> d           1.004   1.903   0.003  0.00  0.00     0.027 H 
ATOM      9  H2  <0> d          -0.546   1.887  -0.873  0.00  0.00     0.027 H 
ATOM     10  H3  <0> d          -0.529   1.877   0.907  0.00  0.00     0.027 H 
ENDBRANCH   4   7
ENDBRANCH   1   4
BRANCH   1  11
ATOM     11  C4  <0> d           0.739  -2.004  -1.265  0.00  0.00     0.165 A 
ATOM     12  N1  <0> d          -0.197  -2.788  -1.804  0.00  0.00    -0.046 NA
ATOM     13  C5  <0> d           0.132  -4.051  -1.635  0.00  0.00     0.716 A 
ATOM     14  N2  <0> d           1.307  -4.088  -0.973  0.00  0.00    -0.106 N 
ATOM     15  N3  <0> d           1.678  -2.752  -0.751  0.00  0.00    -0.144 NA
ATOM     16  H10 <0> d           1.799  -4.880  -0.705  0.00  0.00     0.208 HD
BRANCH  13  17
ATOM     17  N4  <0> d          -0.598  -5.146  -2.062  0.00  0.00    -0.231 N 
ATOM     18  H8  <0> d          -1.437  -5.016  -2.533  0.00  0.00     0.174 HD
ATOM     19  H9  <0> d          -0.272  -6.043  -1.890  0.00  0.00     0.174 HD
ENDBRANCH  13  17
ENDBRANCH   1  11
TORSDOF 4
