REMARK  1 active torsions:
REMARK  status: ('A' for Active; 'I' for Inactive)
REMARK    1  A    between atoms: N1_4  and  C6_7 
ROOT
ATOM      1  C1  <0> d           1.420   2.051  -0.001  0.00  0.00    -0.063 C 
ATOM      2  C2  <0> d          -0.019   1.526   0.010  0.00  0.00    -0.054 C 
ATOM      3  C3  <0> d           0.002  -0.004   0.002  0.00  0.00    -0.014 C 
ATOM      4  N1  <0> d           0.729  -0.491   1.181  0.00  0.00    -0.249 NA
ATOM      5  C4  <0> d           2.126  -0.039   1.168  0.00  0.00    -0.014 C 
ATOM      6  C5  <0> d           2.169   1.490   1.211  0.00  0.00    -0.054 C 
ATOM      7  H1  <0> d           1.917   1.732  -0.916  0.00  0.00     0.033 H 
ATOM      8  H2  <0> d           1.410   3.140   0.049  0.00  0.00     0.033 H 
ATOM      9  H3  <0> d          -0.545   1.888  -0.873  0.00  0.00     0.034 H 
ATOM     10  H4  <0> d          -0.528   1.878   0.908  0.00  0.00     0.034 H 
ATOM     11  H5  <0> d          -1.020  -0.381   0.024  0.00  0.00     0.056 H 
ATOM     12  H6  <0> d           0.499  -0.356  -0.902  0.00  0.00     0.056 H 
ATOM     13  H7  <0> d           2.646  -0.442   2.037  0.00  0.00     0.056 H 
ATOM     14  H8  <0> d           2.613  -0.390   0.259  0.00  0.00     0.056 H 
ATOM     15  H9  <0> d           1.694   1.842   2.127  0.00  0.00     0.034 H 
ATOM     16  H10 <0> d           3.205   1.826   1.186  0.00  0.00     0.034 H 
ENDROOT
BRANCH   4  17
ATOM     17  C6  <0> d           0.655  -1.870   1.274  0.00  0.00     0.247 A 
ATOM     18  N4  <0> d           0.031  -2.677   0.444  0.00  0.00    -0.094 NA
ATOM     19  N3  <0> d           0.160  -3.898   0.821  0.00  0.00    -0.020 NA
ATOM     20  N2  <0> d           0.863  -3.961   1.900  0.00  0.00    -0.020 NA
ATOM     21  N5  <0> d           1.201  -2.651   2.212  0.00  0.00    -0.094 NA
ENDBRANCH   4  17
TORSDOF 1
