REMARK  7 active torsions:
REMARK  status: ('A' for Active; 'I' for Inactive)
REMARK    1  A    between atoms: C1_1  and  C2_2 
REMARK    2  A    between atoms: C2_2  and  C3_3 
REMARK    3  A    between atoms: C2_2  and  C4_4 
REMARK    4  A    between atoms: C2_2  and  C7_9 
REMARK    5  A    between atoms: C4_4  and  C5_5 
REMARK    6  A    between atoms: C5_5  and  O2_7 
REMARK    7  A    between atoms: O2_7  and  C6_8 
ROOT
ATOM      1  C2  <0> d          -2.451   0.944   0.019  0.00  0.00    -0.022 C 
ENDROOT
BRANCH   1   2
ATOM      2  C1  <0> d          -3.264   1.310  -1.225  0.00  0.00    -0.066 C 
ATOM      3  H1  <0> d          -2.693   1.059  -2.119  0.00  0.00     0.028 H 
ATOM      4  H2  <0> d          -4.200   0.752  -1.223  0.00  0.00     0.028 H 
ATOM      5  H3  <0> d          -3.477   2.378  -1.218  0.00  0.00     0.028 H 
ENDBRANCH   1   2
BRANCH   1   6
ATOM      6  C3  <0> d          -2.151  -0.556   0.009  0.00  0.00    -0.066 C 
ATOM      7  H4  <0> d          -1.571  -0.817   0.895  0.00  0.00     0.028 H 
ATOM      8  H5  <0> d          -3.087  -1.114   0.011  0.00  0.00     0.028 H 
ATOM      9  H6  <0> d          -1.580  -0.807  -0.885  0.00  0.00     0.028 H 
ENDBRANCH   1   6
BRANCH   1  10
ATOM     10  C4  <0> d          -3.252   1.296   1.274  0.00  0.00     0.025 C 
ATOM     11  H7  <0> d          -2.673   1.036   2.160  0.00  0.00     0.049 H 
ATOM     12  H8  <0> d          -3.466   2.365   1.281  0.00  0.00     0.049 H 
BRANCH  10  13
ATOM     13  C5  <0> d          -4.547   0.525   1.276  0.00  0.00     0.259 C 
ATOM     14  O1  <0> d          -4.802  -0.229   0.367  0.00  0.00    -0.265 OA
BRANCH  13  15
ATOM     15  O2  <0> d          -5.416   0.675   2.287  0.00  0.00    -0.326 OA
BRANCH  15  16
ATOM     16  C6  <0> d          -6.643  -0.099   2.223  0.00  0.00     0.013 C 
ATOM     17  H9  <0> d          -7.254   0.116   3.100  0.00  0.00     0.067 H 
ATOM     18  H10 <0> d          -7.194   0.168   1.321  0.00  0.00     0.067 H 
ATOM     19  H11 <0> d          -6.401  -1.161   2.200  0.00  0.00     0.067 H 
ENDBRANCH  15  16
ENDBRANCH  13  15
ENDBRANCH  10  13
ENDBRANCH   1  10
BRANCH   1  20
ATOM     20  C7  <0> d          -1.156   1.715   0.017  0.00  0.00    -0.104 C 
ATOM     21  C8  <0> d          -0.013   1.076   0.008  0.00  0.00    -0.124 C 
ATOM     22  H13 <0> d           0.002  -0.004   0.002  0.00  0.00     0.066 H 
ATOM     23  H14 <0> d           0.915   1.629   0.002  0.00  0.00     0.066 H 
ATOM     24  H12 <0> d          -1.171   2.795   0.023  0.00  0.00     0.076 H 
ENDBRANCH   1  20
TORSDOF 7
