REMARK  3 active torsions:
REMARK  status: ('A' for Active; 'I' for Inactive)
REMARK    1  A    between atoms: C1_1  and  C2_2 
REMARK    2  A    between atoms: C4_4  and  O3_10 
REMARK    3  A    between atoms: C5_5  and  C7_9 
ROOT
ATOM      1  C2  <0> d          -0.016   1.342   0.009  0.00  0.00     0.056 A 
ATOM      2  C3  <0> d           0.002  -0.004   0.002  0.00  0.00    -0.022 A 
ATOM      3  C4  <0> d           1.238  -0.689  -0.013  0.00  0.00     0.080 A 
ATOM      4  C5  <0> d           2.407   0.050  -0.021  0.00  0.00     0.047 A 
ATOM      5  C6  <0> d           2.322   1.448  -0.012  0.00  0.00     0.296 A 
ATOM      6  O1  <0> d           3.341   2.119  -0.019  0.00  0.00    -0.259 OA
ATOM      7  O2  <0> d           1.122   2.052   0.002  0.00  0.00    -0.280 OA
ATOM      8  H4  <0> d          -0.925  -0.559   0.008  0.00  0.00     0.091 H 
ENDROOT
BRANCH   1   9
ATOM      9  C1  <0> d          -1.339   2.064   0.020  0.00  0.00    -0.031 C 
ATOM     10  H1  <0> d          -2.158   1.330   0.024  0.00  0.00     0.036 H 
ATOM     11  H2  <0> d          -1.418   2.696  -0.877  0.00  0.00     0.036 H 
ATOM     12  H3  <0> d          -1.406   2.694   0.919  0.00  0.00     0.036 H 
ENDBRANCH   1   9
BRANCH   3  13
ATOM     13  O3  <0> d           1.277  -2.042  -0.021  0.00  0.00    -0.360 OA
ATOM     14  H8  <0> d           2.245  -2.564  -0.033  0.00  0.00     0.217 HD
ENDBRANCH   3  13
BRANCH   4  15
ATOM     15  C7  <0> d           3.748  -0.637  -0.038  0.00  0.00    -0.043 C 
ATOM     16  H5  <0> d           4.547   0.119  -0.041  0.00  0.00     0.034 H 
ATOM     17  H6  <0> d           3.829  -1.260  -0.940  0.00  0.00     0.034 H 
ATOM     18  H7  <0> d           3.847  -1.270   0.856  0.00  0.00     0.034 H 
ENDBRANCH   4  15
TORSDOF 3
