REMARK  7 active torsions:
REMARK  status: ('A' for Active; 'I' for Inactive)
REMARK    1  A    between atoms: C1_1  and  C2_2 
REMARK    2  A    between atoms: C2_2  and  O1_3 
REMARK    3  A    between atoms: O1_3  and  C3_4 
REMARK    4  A    between atoms: C3_4  and  C4_6 
REMARK    5  A    between atoms: C4_6  and  C5_7 
REMARK    6  A    between atoms: C5_7  and  C6_8 
REMARK    7  A    between atoms: C6_8  and  C7_9 
ROOT
ATOM      1  C4  <0> d          -3.518   2.092  -1.152  0.00  0.00     0.016 C 
ATOM      2  H6  <0> d          -4.042   1.885  -0.219  0.00  0.00     0.048 H 
ATOM      3  H7  <0> d          -3.335   3.163  -1.236  0.00  0.00     0.048 H 
ENDROOT
BRANCH   1   4
ATOM      4  C3  <0> d          -4.359   1.632  -2.314  0.00  0.00     0.258 C 
ATOM      5  O2  <0> d          -3.935   0.793  -3.073  0.00  0.00    -0.265 OA
BRANCH   4   6
ATOM      6  O1  <0> d          -5.581   2.155  -2.506  0.00  0.00    -0.322 OA
BRANCH   6   7
ATOM      7  C2  <0> d          -6.335   1.665  -3.646  0.00  0.00     0.025 C 
ATOM      8  H4  <0> d          -5.782   1.868  -4.563  0.00  0.00     0.074 H 
ATOM      9  H5  <0> d          -6.489   0.590  -3.545  0.00  0.00     0.074 H 
BRANCH   7  10
ATOM     10  C1  <0> d          -7.691   2.371  -3.701  0.00  0.00    -0.056 C 
ATOM     11  H1  <0> d          -7.538   3.445  -3.802  0.00  0.00     0.030 H 
ATOM     12  H2  <0> d          -8.258   2.003  -4.557  0.00  0.00     0.030 H 
ATOM     13  H3  <0> d          -8.245   2.167  -2.784  0.00  0.00     0.030 H 
ENDBRANCH   7  10
ENDBRANCH   6   7
ENDBRANCH   4   6
ENDBRANCH   1   4
BRANCH   1  14
ATOM     14  C5  <0> d          -2.182   1.345  -1.162  0.00  0.00    -0.054 C 
ATOM     15  H8  <0> d          -1.658   1.552  -2.095  0.00  0.00     0.034 H 
ATOM     16  H9  <0> d          -2.365   0.274  -1.077  0.00  0.00     0.034 H 
BRANCH  14  17
ATOM     17  C6  <0> d          -1.328   1.812   0.018  0.00  0.00    -0.050 C 
ATOM     18  H10 <0> d          -1.853   1.605   0.951  0.00  0.00     0.038 H 
ATOM     19  H11 <0> d          -1.145   2.883  -0.066  0.00  0.00     0.038 H 
BRANCH  17  20
ATOM     20  C7  <0> d          -0.013   1.076   0.008  0.00  0.00    -0.112 C 
ATOM     21  C8  <0> d           1.113   1.746   0.001  0.00  0.00    -0.125 C 
ATOM     22  H13 <0> d           2.055   1.219  -0.011  0.00  0.00     0.066 H 
ATOM     23  H14 <0> d           1.098   2.826   0.007  0.00  0.00     0.066 H 
ATOM     24  H12 <0> d           0.002  -0.004   0.002  0.00  0.00     0.075 H 
ENDBRANCH  17  20
ENDBRANCH  14  17
ENDBRANCH   1  14
TORSDOF 7
