REMARK  3 active torsions:
REMARK  status: ('A' for Active; 'I' for Inactive)
REMARK    1  A    between atoms: C1_1  and  C2_2 
REMARK    2  A    between atoms: C1_1  and  N1_4 
REMARK    3  A    between atoms: C3_5  and  N5_9 
ROOT
ATOM      1  N1  <0> d          -0.698   1.558   1.213  0.00  0.00    -0.068 N 
ATOM      2  C3  <0> d          -1.692   0.937   1.890  0.00  0.00     0.738 A 
ATOM      3  N2  <0> d          -2.011   1.710   2.905  0.00  0.00     0.065 NA
ATOM      4  N3  <0> d          -1.287   2.770   2.908  0.00  0.00    -0.008 NA
ATOM      5  N4  <0> d          -0.461   2.752   1.918  0.00  0.00    -0.030 NA
ENDROOT
BRANCH   1   6
ATOM      6  C1  <0> d          -0.013   1.086   0.008  0.00  0.00     0.116 C 
ATOM      7  H1  <0> d           0.002  -0.004   0.002  0.00  0.00     0.085 H 
ATOM      8  H2  <0> d           1.010   1.463   0.000  0.00  0.00     0.085 H 
BRANCH   6   9
ATOM      9  C2  <0> d          -0.742   1.585  -1.213  0.00  0.00     0.194 C 
ATOM     10  O1  <0> d          -1.732   2.266  -1.089  0.00  0.00    -0.647 OA
ATOM     11  O2  <0> d          -0.290   1.274  -2.438  0.00  0.00    -0.647 OA
ENDBRANCH   6   9
ENDBRANCH   1   6
BRANCH   2  12
ATOM     12  N5  <0> d          -2.264  -0.283   1.574  0.00  0.00    -0.230 N 
ATOM     13  H3  <0> d          -1.954  -0.778   0.800  0.00  0.00     0.174 HD
ATOM     14  H4  <0> d          -2.974  -0.643   2.128  0.00  0.00     0.174 HD
ENDBRANCH   2  12
TORSDOF 3
