REMARK  4 active torsions:
REMARK  status: ('A' for Active; 'I' for Inactive)
REMARK    1  A    between atoms: C2_2  and  C6_11 
REMARK    2  A    between atoms: C3_5  and  C5_9 
REMARK    3  A    between atoms: C5_9  and  O3_10 
REMARK    4  A    between atoms: C6_11  and  O4_12 
ROOT
ATOM      1  C1  <0> d          -0.013   1.086   0.008  0.00  0.00     0.045 C 
ATOM      2  C2  <0> d          -0.732   1.581   1.266  0.00  0.00     0.080 C 
ATOM      3  H1  <0> d          -0.154   1.356   2.175  0.00  0.00     0.089 H 
ATOM      4  O1  <0> d          -0.847   3.006   1.210  0.00  0.00    -0.372 OA
ATOM      5  C3  <0> d          -1.542   3.481   0.053  0.00  0.00     0.080 C 
ATOM      6  H2  <0> d          -2.560   3.072   0.121  0.00  0.00     0.089 H 
ATOM      7  C4  <0> d          -0.821   2.986  -1.204  0.00  0.00     0.045 C 
ATOM      8  O2  <0> d          -0.707   1.561  -1.149  0.00  0.00    -0.386 OA
ATOM      9  H3  <0> d           0.003  -0.014   0.000  0.00  0.00     0.078 H 
ATOM     10  H4  <0> d           1.019   1.467  -0.001  0.00  0.00     0.078 H 
ATOM     11  H5  <0> d          -1.396   3.277  -2.095  0.00  0.00     0.078 H 
ATOM     12  H6  <0> d           0.182   3.435  -1.252  0.00  0.00     0.078 H 
ENDROOT
BRANCH   2  13
ATOM     13  C6  <0> d          -2.128   0.959   1.335  0.00  0.00     0.043 C 
ATOM     14  H10 <0> d          -2.734   1.323   0.492  0.00  0.00     0.078 H 
ATOM     15  H11 <0> d          -2.045  -0.136   1.280  0.00  0.00     0.078 H 
BRANCH  13  16
ATOM     16  O4  <0> d          -2.754   1.329   2.565  0.00  0.00    -0.398 OA
ATOM     17  H12 <0> d          -3.770   0.973   2.794  0.00  0.00     0.209 HD
ENDBRANCH  13  16
ENDBRANCH   2  13
BRANCH   5  18
ATOM     18  C5  <0> d          -1.564   5.011   0.061  0.00  0.00     0.043 C 
ATOM     19  H7  <0> d          -0.535   5.392   0.146  0.00  0.00     0.078 H 
ATOM     20  H8  <0> d          -2.013   5.376  -0.874  0.00  0.00     0.078 H 
BRANCH  18  21
ATOM     21  O3  <0> d          -2.336   5.471   1.172  0.00  0.00    -0.398 OA
ATOM     22  H9  <0> d          -2.466   6.550   1.343  0.00  0.00     0.209 HD
ENDBRANCH  18  21
ENDBRANCH   5  18
TORSDOF 4
