REMARK  5 active torsions:
REMARK  status: ('A' for Active; 'I' for Inactive)
REMARK    1  A    between atoms: C1_1  and  C2_2 
REMARK    2  A    between atoms: C2_2  and  C3_3 
REMARK    3  A    between atoms: C2_2  and  C6_6 
REMARK    4  A    between atoms: C2_2  and  O1_10 
REMARK    5  A    between atoms: C3_3  and  C4_4 
ROOT
ATOM      1  C2  <0> d          -2.182   1.345  -1.162  0.00  0.00     0.154 C 
ENDROOT
BRANCH   1   2
ATOM      2  C1  <0> d          -2.438  -0.159  -1.043  0.00  0.00    -0.039 C 
ATOM      3  H1  <0> d          -2.963  -0.366  -0.110  0.00  0.00     0.032 H 
ATOM      4  H2  <0> d          -3.047  -0.491  -1.884  0.00  0.00     0.032 H 
ATOM      5  H3  <0> d          -1.487  -0.691  -1.051  0.00  0.00     0.032 H 
ENDBRANCH   1   2
BRANCH   1   6
ATOM      6  C3  <0> d          -1.328   1.812   0.018  0.00  0.00    -0.014 C 
ATOM      7  H4  <0> d          -1.853   1.605   0.951  0.00  0.00     0.043 H 
ATOM      8  H5  <0> d          -1.145   2.883  -0.066  0.00  0.00     0.043 H 
BRANCH   6   9
ATOM      9  C4  <0> d          -0.013   1.076   0.008  0.00  0.00    -0.109 C 
ATOM     10  C5  <0> d           1.113   1.746   0.001  0.00  0.00    -0.125 C 
ATOM     11  H7  <0> d           1.098   2.826   0.007  0.00  0.00     0.066 H 
ATOM     12  H8  <0> d           2.055   1.219  -0.011  0.00  0.00     0.066 H 
ATOM     13  H6  <0> d           0.002  -0.004   0.002  0.00  0.00     0.075 H 
ENDBRANCH   6   9
ENDBRANCH   1   6
BRANCH   1  14
ATOM     14  C6  <0> d          -3.518   2.092  -1.152  0.00  0.00     0.418 C 
ATOM     15  F1  <0> d          -3.284   3.467  -1.260  0.00  0.00    -0.168 F 
ATOM     16  F2  <0> d          -4.299   1.665  -2.231  0.00  0.00    -0.168 F 
ATOM     17  F3  <0> d          -4.191   1.826   0.046  0.00  0.00    -0.168 F 
ENDBRANCH   1  14
BRANCH   1  18
ATOM     18  O1  <0> d          -1.494   1.616  -2.385  0.00  0.00    -0.381 OA
ATOM     19  H9  <0> d          -1.299   2.552  -2.527  0.00  0.00     0.211 HD
ENDBRANCH   1  18
TORSDOF 5
