REMARK  3 active torsions:
REMARK  status: ('A' for Active; 'I' for Inactive)
REMARK    1  A    between atoms: C3_3  and  N2_11 
REMARK    2  A    between atoms: C4_4  and  C6_7 
REMARK    3  A    between atoms: C6_7  and  C7_8 
ROOT
ATOM      1  C1  <0> d          -0.017   1.378   0.010  0.00  0.00    -0.064 A 
ATOM      2  C2  <0> d           1.183   2.071   0.002  0.00  0.00    -0.054 A 
ATOM      3  C3  <0> d           2.369   1.341  -0.013  0.00  0.00     0.051 A 
ATOM      4  C4  <0> d           2.305  -0.047  -0.020  0.00  0.00     0.070 A 
ATOM      5  N1  <0> d           1.142  -0.666  -0.012  0.00  0.00    -0.263 NA
ATOM      6  C5  <0> d           0.002  -0.004   0.002  0.00  0.00     0.003 A 
ATOM      7  H1  <0> d          -0.956   1.911   0.026  0.00  0.00     0.085 H 
ATOM      8  H2  <0> d           1.198   3.151   0.007  0.00  0.00     0.087 H 
ATOM      9  H3  <0> d          -0.930  -0.549   0.008  0.00  0.00     0.114 H 
ENDROOT
BRANCH   4  10
ATOM     10  C6  <0> d           3.579  -0.852  -0.037  0.00  0.00     0.058 C 
ATOM     11  H4  <0> d           3.406  -1.795  -0.554  0.00  0.00     0.058 H 
ATOM     12  H5  <0> d           4.357  -0.290  -0.556  0.00  0.00     0.058 H 
BRANCH  10  13
ATOM     13  C7  <0> d           4.018  -1.127   1.378  0.00  0.00     0.178 C 
ATOM     14  O1  <0> d           3.358  -0.709   2.313  0.00  0.00    -0.648 OA
ATOM     15  O2  <0> d           5.034  -1.769   1.587  0.00  0.00    -0.648 OA
ENDBRANCH  10  13
ENDBRANCH   4  10
BRANCH   3  16
ATOM     16  N2  <0> d           3.603   1.995  -0.022  0.00  0.00    -0.397 N 
ATOM     17  H6  <0> d           3.639   2.964  -0.018  0.00  0.00     0.156 HD
ATOM     18  H7  <0> d           4.425   1.479  -0.033  0.00  0.00     0.156 HD
ENDBRANCH   3  16
TORSDOF 3
