REMARK  2 active torsions:
REMARK  status: ('A' for Active; 'I' for Inactive)
REMARK    1  A    between atoms: C1_1  and  N1_2 
REMARK    2  A    between atoms: C5_6  and  C6_7 
ROOT
ATOM      1  N1  <0> d          -3.719   3.377  -0.042  0.00  0.00    -0.359 N 
ATOM      2  C2  <0> d          -4.619   4.397  -0.095  0.00  0.00    -0.020 A 
ATOM      3  C3  <0> d          -3.956   5.564   0.060  0.00  0.00    -0.066 A 
ATOM      4  C4  <0> d          -2.595   5.263   0.222  0.00  0.00    -0.053 A 
ATOM      5  C5  <0> d          -2.468   3.908   0.150  0.00  0.00     0.062 A 
ATOM      6  H4  <0> d          -5.685   4.291  -0.237  0.00  0.00     0.111 H 
ATOM      7  H5  <0> d          -4.395   6.551   0.063  0.00  0.00     0.085 H 
ATOM      8  H6  <0> d          -1.796   5.974   0.373  0.00  0.00     0.087 H 
ENDROOT
BRANCH   5   9
ATOM      9  C6  <0> d          -1.208   3.146   0.266  0.00  0.00     0.083 A 
ATOM     10  N2  <0> d          -1.245   1.821   0.360  0.00  0.00    -0.259 NA
ATOM     11  C10 <0> d          -0.143   1.105   0.464  0.00  0.00     0.003 A 
ATOM     12  C9  <0> d           1.099   1.711   0.479  0.00  0.00    -0.066 A 
ATOM     13  H10 <0> d          -0.212   0.030   0.538  0.00  0.00     0.114 H 
ATOM     14  C8  <0> d           1.184   3.094   0.383  0.00  0.00    -0.079 A 
ATOM     15  H9  <0> d           1.995   1.115   0.564  0.00  0.00     0.085 H 
ATOM     16  C7  <0> d           0.013   3.823   0.280  0.00  0.00    -0.053 A 
ATOM     17  H8  <0> d           2.143   3.590   0.393  0.00  0.00     0.083 H 
ATOM     18  H7  <0> d           0.043   4.900   0.208  0.00  0.00     0.087 H 
ENDBRANCH   5   9
BRANCH   1  19
ATOM     19  C1  <0> d          -4.032   1.952  -0.168  0.00  0.00    -0.014 C 
ATOM     20  H1  <0> d          -4.233   1.535   0.819  0.00  0.00     0.057 H 
ATOM     21  H2  <0> d          -4.911   1.828  -0.800  0.00  0.00     0.057 H 
ATOM     22  H3  <0> d          -3.186   1.432  -0.616  0.00  0.00     0.057 H 
ENDBRANCH   1  19
TORSDOF 2
