REMARK  4 active torsions:
REMARK  status: ('A' for Active; 'I' for Inactive)
REMARK    1  A    between atoms: C1_1  and  C2_2 
REMARK    2  A    between atoms: C2_2  and  C3_4 
REMARK    3  A    between atoms: C3_4  and  O2_5 
REMARK    4  A    between atoms: C3_4  and  O3_6 
ROOT
ATOM      1  C2  <0> d           0.002  -0.004   0.002  0.00  0.00     0.177 C 
ATOM      2  O1  <0> d           0.020  -0.613   1.044  0.00  0.00    -0.293 OA
ENDROOT
BRANCH   1   3
ATOM      3  C1  <0> d          -0.018   1.503   0.010  0.00  0.00    -0.016 C 
ATOM      4  H1  <0> d           1.004   1.880   0.003  0.00  0.00     0.037 H 
ATOM      5  H2  <0> d          -0.545   1.864  -0.873  0.00  0.00     0.037 H 
ATOM      6  H3  <0> d          -0.529   1.854   0.907  0.00  0.00     0.037 H 
ENDBRANCH   1   3
BRANCH   1   7
ATOM      7  C3  <0> d          -0.000  -0.750  -1.307  0.00  0.00     0.184 C 
ATOM      8  H4  <0> d          -1.026  -0.867  -1.657  0.00  0.00     0.141 H 
BRANCH   7   9
ATOM      9  O2  <0> d           0.754  -0.017  -2.275  0.00  0.00    -0.365 OA
ATOM     10  H5  <0> d           1.678   0.124  -2.029  0.00  0.00     0.213 HD
ENDBRANCH   7   9
BRANCH   7  11
ATOM     11  O3  <0> d           0.589  -2.039  -1.122  0.00  0.00    -0.365 OA
ATOM     12  H6  <0> d           0.621  -2.576  -1.925  0.00  0.00     0.213 HD
ENDBRANCH   7  11
ENDBRANCH   1   7
TORSDOF 4
