REMARK  4 active torsions:
REMARK  status: ('A' for Active; 'I' for Inactive)
REMARK    1  A    between atoms: C1_1  and  C2_2 
REMARK    2  A    between atoms: C2_2  and  C3_4 
REMARK    3  A    between atoms: C5_6  and  O2_11 
REMARK    4  A    between atoms: C8_9  and  N1_10 
ROOT
ATOM      1  C3  <0> d          -2.169   1.783   1.229  0.00  0.00     0.038 A 
ATOM      2  C4  <0> d          -2.885   1.655   0.032  0.00  0.00    -0.035 A 
ATOM      3  C5  <0> d          -4.247   1.878   0.019  0.00  0.00     0.066 A 
ATOM      4  C6  <0> d          -4.910   2.239   1.187  0.00  0.00    -0.049 A 
ATOM      5  C7  <0> d          -4.216   2.373   2.372  0.00  0.00    -0.054 A 
ATOM      6  C8  <0> d          -2.846   2.149   2.406  0.00  0.00     0.039 A 
ATOM      7  H4  <0> d          -2.373   1.379  -0.878  0.00  0.00     0.089 H 
ATOM      8  H5  <0> d          -5.976   2.415   1.167  0.00  0.00     0.087 H 
ATOM      9  H6  <0> d          -4.740   2.654   3.274  0.00  0.00     0.087 H 
ENDROOT
BRANCH   1  10
ATOM     10  C2  <0> d          -0.723   1.544   1.254  0.00  0.00     0.158 C 
ATOM     11  O1  <0> d          -0.089   1.757   2.266  0.00  0.00    -0.293 OA
BRANCH  10  12
ATOM     12  C1  <0> d          -0.022   1.034   0.021  0.00  0.00    -0.017 C 
ATOM     13  H1  <0> d          -0.019   0.034   0.029  0.00  0.00     0.038 H 
ATOM     14  H2  <0> d           1.004   1.401   0.007  0.00  0.00     0.038 H 
ATOM     15  H3  <0> d          -0.546   1.389  -0.867  0.00  0.00     0.038 H 
ENDBRANCH  10  12
ENDBRANCH   1  10
BRANCH   6  16
ATOM     16  N1  <0> d          -2.147   2.284   3.599  0.00  0.00    -0.398 N 
ATOM     17  H7  <0> d          -1.180   2.208   3.606  0.00  0.00     0.156 HD
ATOM     18  H8  <0> d          -2.626   2.455   4.425  0.00  0.00     0.156 HD
ENDBRANCH   6  16
BRANCH   3  19
ATOM     19  O2  <0> d          -4.944   1.749  -1.142  0.00  0.00    -0.361 OA
ATOM     20  H9  <0> d          -5.000   2.564  -1.659  0.00  0.00     0.217 HD
ENDBRANCH   3  19
TORSDOF 4
