REMARK  3 active torsions:
REMARK  status: ('A' for Active; 'I' for Inactive)
REMARK    1  A    between atoms: C1_1  and  O1_2 
REMARK    2  A    between atoms: O1_2  and  C2_3 
REMARK       I    between atoms: C2_3  and  N1_5 
REMARK    3  A    between atoms: N1_5  and  C3_6 
ROOT
ATOM      1  C3  <0> d          -1.229   3.132   0.024  0.00  0.00     0.039 A 
ATOM      2  C4  <0> d          -1.222   1.749  -0.149  0.00  0.00    -0.040 A 
ATOM      3  C5  <0> d          -0.015   1.081  -0.158  0.00  0.00     0.004 A 
ATOM      4  N2  <0> d           1.122   1.736  -0.016  0.00  0.00    -0.273 NA
ATOM      5  C6  <0> d           1.157   3.046   0.145  0.00  0.00     0.004 A 
ATOM      6  C7  <0> d          -0.007   3.786   0.171  0.00  0.00    -0.040 A 
ATOM      7  H5  <0> d          -2.148   1.207  -0.270  0.00  0.00     0.089 H 
ATOM      8  H6  <0> d           0.000   0.009  -0.288  0.00  0.00     0.114 H 
ATOM      9  H7  <0> d           2.108   3.544   0.257  0.00  0.00     0.114 H 
ATOM     10  H8  <0> d           0.029   4.857   0.302  0.00  0.00     0.089 H 
ENDROOT
BRANCH   1  11
ATOM     11  N1  <0> d          -2.429   3.844   0.044  0.00  0.00    -0.303 N 
ATOM     12  C2  <0> d          -3.543   3.274   0.545  0.00  0.00     0.364 C 
ATOM     13  O2  <0> d          -3.483   2.178   1.066  0.00  0.00    -0.238 OA
ATOM     14  H4  <0> d          -2.462   4.750  -0.302  0.00  0.00     0.171 HD
BRANCH  12  15
ATOM     15  O1  <0> d          -4.722   3.919   0.468  0.00  0.00    -0.309 OA
BRANCH  15  16
ATOM     16  C1  <0> d          -5.880   3.245   1.029  0.00  0.00     0.015 C 
ATOM     17  H1  <0> d          -6.031   2.296   0.515  0.00  0.00     0.067 H 
ATOM     18  H2  <0> d          -5.715   3.062   2.090  0.00  0.00     0.067 H 
ATOM     19  H3  <0> d          -6.762   3.872   0.901  0.00  0.00     0.067 H 
ENDBRANCH  15  16
ENDBRANCH  12  15
ENDBRANCH   1  11
TORSDOF 3
