REMARK  4 active torsions:
REMARK  status: ('A' for Active; 'I' for Inactive)
REMARK    1  A    between atoms: C1_1  and  C2_2 
REMARK    2  A    between atoms: C2_2  and  O1_3 
REMARK    3  A    between atoms: O1_3  and  C3_4 
REMARK    4  A    between atoms: C8_9  and  N1_10 
ROOT
ATOM      1  C3  <0> d          -0.148   1.182   2.381  0.00  0.00     0.097 A 
ATOM      2  C4  <0> d           0.993   0.398   2.422  0.00  0.00    -0.011 A 
ATOM      3  C5  <0> d           1.534   0.027   3.641  0.00  0.00     0.119 A 
ATOM      4  C6  <0> d           0.938   0.439   4.820  0.00  0.00    -0.043 A 
ATOM      5  C7  <0> d          -0.202   1.222   4.785  0.00  0.00    -0.052 A 
ATOM      6  C8  <0> d          -0.746   1.600   3.567  0.00  0.00     0.059 A 
ATOM      7  F1  <0> d           2.647  -0.737   3.680  0.00  0.00    -0.206 F 
ATOM      8  H6  <0> d           1.460   0.076   1.503  0.00  0.00     0.092 H 
ATOM      9  H7  <0> d           1.363   0.148   5.770  0.00  0.00     0.088 H 
ATOM     10  H8  <0> d          -0.665   1.542   5.707  0.00  0.00     0.087 H 
ENDROOT
BRANCH   1  11
ATOM     11  O1  <0> d          -0.682   1.547   1.184  0.00  0.00    -0.349 OA
BRANCH  11  12
ATOM     12  C2  <0> d          -0.013   1.086   0.008  0.00  0.00     0.023 C 
ATOM     13  H4  <0> d           0.002  -0.004   0.002  0.00  0.00     0.074 H 
ATOM     14  H5  <0> d           1.010   1.463   0.000  0.00  0.00     0.074 H 
BRANCH  12  15
ATOM     15  C1  <0> d          -0.753   1.593  -1.232  0.00  0.00    -0.056 C 
ATOM     16  H1  <0> d          -0.767   2.683  -1.226  0.00  0.00     0.030 H 
ATOM     17  H2  <0> d          -0.242   1.241  -2.128  0.00  0.00     0.030 H 
ATOM     18  H3  <0> d          -1.775   1.215  -1.224  0.00  0.00     0.030 H 
ENDBRANCH  12  15
ENDBRANCH  11  12
ENDBRANCH   1  11
BRANCH   6  19
ATOM     19  N1  <0> d          -1.897   2.399   3.530  0.00  0.00    -0.397 N 
ATOM     20  H9  <0> d          -2.278   2.660   2.678  0.00  0.00     0.156 HD
ATOM     21  H10 <0> d          -2.312   2.690   4.357  0.00  0.00     0.156 HD
ENDBRANCH   6  19
TORSDOF 4
