REMARK  5 active torsions:
REMARK  status: ('A' for Active; 'I' for Inactive)
REMARK    1  A    between atoms: C1_1  and  C2_2 
REMARK    2  A    between atoms: C2_2  and  C3_3 
REMARK    3  A    between atoms: C3_3  and  C4_4 
REMARK    4  A    between atoms: C4_4  and  C5_6 
REMARK    5  A    between atoms: C4_4  and  O2_8 
ROOT
ATOM      1  C3  <0> d           0.633   3.635  -1.292  0.00  0.00    -0.032 C 
ATOM      2  H7  <0> d           1.252   3.326  -2.135  0.00  0.00     0.037 H 
ATOM      3  H8  <0> d          -0.375   3.239  -1.417  0.00  0.00     0.037 H 
ENDROOT
BRANCH   1   4
ATOM      4  C2  <0> d           0.578   5.162  -1.232  0.00  0.00    -0.066 C 
ATOM      5  H5  <0> d          -0.040   5.471  -0.389  0.00  0.00     0.032 H 
ATOM      6  H6  <0> d           1.586   5.558  -1.106  0.00  0.00     0.032 H 
BRANCH   4   7
ATOM      7  C1  <0> d          -0.024   5.703  -2.530  0.00  0.00    -0.076 C 
ATOM      8  H2  <0> d           0.595   5.394  -3.373  0.00  0.00     0.027 H 
ATOM      9  H3  <0> d          -1.032   5.307  -2.656  0.00  0.00     0.027 H 
ATOM     10  H4  <0> d          -0.063   6.791  -2.488  0.00  0.00     0.027 H 
ENDBRANCH   4   7
ENDBRANCH   1   4
BRANCH   1  11
ATOM     11  C4  <0> d           1.235   3.094   0.007  0.00  0.00     0.119 C 
ATOM     12  H1  <0> d           0.668   3.476   0.856  0.00  0.00     0.100 H 
BRANCH  11  13
ATOM     13  C5  <0> d           1.177   1.588  -0.001  0.00  0.00     0.203 C 
ATOM     14  O1  <0> d           2.199   0.944  -0.014  0.00  0.00    -0.646 OA
ATOM     15  O3  <0> d          -0.011   0.963   0.007  0.00  0.00    -0.646 OA
ENDBRANCH  11  13
BRANCH  11  16
ATOM     16  O2  <0> d           2.596   3.518   0.114  0.00  0.00    -0.385 OA
ATOM     17  H9  <0> d           3.160   3.214  -0.611  0.00  0.00     0.210 HD
ENDBRANCH  11  16
ENDBRANCH   1  11
TORSDOF 5
