REMARK  3 active torsions:
REMARK  status: ('A' for Active; 'I' for Inactive)
REMARK    1  A    between atoms: C3_3  and  N2_11 
REMARK    2  A    between atoms: C5_5  and  O1_7 
REMARK    3  A    between atoms: O1_7  and  C7_8 
ROOT
ATOM      1  C7  <0> d          -2.297  -0.369   0.011  0.00  0.00     0.104 C 
ATOM      2  C8  <0> d          -3.649  -0.951   0.014  0.00  0.00     0.085 C 
ATOM      3  N1  <0> d          -4.693  -1.400   0.017  0.00  0.00    -0.195 NA
ATOM      4  H5  <0> d          -1.760  -0.696  -0.892  0.00  0.00     0.097 H 
ATOM      5  H6  <0> d          -1.751  -0.706   0.904  0.00  0.00     0.097 H 
ENDROOT
BRANCH   1   6
ATOM      6  O1  <0> d          -2.392   1.056   0.019  0.00  0.00    -0.337 OA
BRANCH   6   7
ATOM      7  C5  <0> d          -1.225   1.752   0.017  0.00  0.00     0.072 A 
ATOM      8  C4  <0> d          -1.244   3.138   0.030  0.00  0.00    -0.026 A 
ATOM      9  C3  <0> d          -0.049   3.846   0.022  0.00  0.00     0.028 A 
ATOM     10  H3  <0> d          -2.186   3.666   0.042  0.00  0.00     0.091 H 
ATOM     11  C2  <0> d           1.161   3.163   0.007  0.00  0.00    -0.058 A 
ATOM     12  C1  <0> d           1.175   1.782   0.000  0.00  0.00    -0.078 A 
ATOM     13  H2  <0> d           2.090   3.713   0.001  0.00  0.00     0.086 H 
ATOM     14  C6  <0> d          -0.013   1.076   0.008  0.00  0.00    -0.051 A 
ATOM     15  H1  <0> d           2.117   1.253  -0.011  0.00  0.00     0.083 H 
ATOM     16  H4  <0> d           0.002  -0.004   0.002  0.00  0.00     0.087 H 
BRANCH   9  17
ATOM     17  N2  <0> d          -0.064   5.243   0.029  0.00  0.00    -0.399 N 
ATOM     18  H7  <0> d          -1.023   5.782   0.040  0.00  0.00     0.156 HD
ATOM     19  H8  <0> d           0.882   5.803   0.022  0.00  0.00     0.156 HD
ENDBRANCH   9  17
ENDBRANCH   6   7
ENDBRANCH   1   6
TORSDOF 3
