REMARK  8 active torsions:
REMARK  status: ('A' for Active; 'I' for Inactive)
REMARK    1  A    between atoms: C1_1  and  C2_2 
REMARK    2  A    between atoms: C2_2  and  C3_3 
REMARK    3  A    between atoms: C3_3  and  C4_4 
REMARK    4  A    between atoms: C4_4  and  C5_6 
REMARK    5  A    between atoms: C4_4  and  O3_10 
REMARK    6  A    between atoms: C5_6  and  O2_8 
REMARK    7  A    between atoms: O2_8  and  C6_9 
REMARK    8  A    between atoms: O3_10  and  C7_11 
ROOT
ATOM      1  C4  <0> d          -1.329   1.940   0.019  0.00  0.00     0.121 C 
ATOM      2  H1  <0> d          -1.405   2.603  -0.855  0.00  0.00     0.099 H 
ENDROOT
BRANCH   1   3
ATOM      3  C3  <0> d          -1.471   2.714   1.331  0.00  0.00    -0.032 C 
ATOM      4  H7  <0> d          -0.599   3.371   1.465  0.00  0.00     0.037 H 
ATOM      5  H8  <0> d          -1.527   2.005   2.171  0.00  0.00     0.037 H 
BRANCH   3   6
ATOM      6  C2  <0> d          -2.746   3.558   1.290  0.00  0.00    -0.066 C 
ATOM      7  H5  <0> d          -3.617   2.901   1.157  0.00  0.00     0.032 H 
ATOM      8  H6  <0> d          -2.689   4.267   0.451  0.00  0.00     0.032 H 
BRANCH   6   9
ATOM      9  C1  <0> d          -2.887   4.332   2.603  0.00  0.00    -0.076 C 
ATOM     10  H2  <0> d          -3.804   4.940   2.573  0.00  0.00     0.027 H 
ATOM     11  H3  <0> d          -2.015   4.990   2.736  0.00  0.00     0.027 H 
ATOM     12  H4  <0> d          -2.943   3.624   3.442  0.00  0.00     0.027 H 
ENDBRANCH   6   9
ENDBRANCH   3   6
ENDBRANCH   1   3
BRANCH   1  13
ATOM     13  C5  <0> d          -0.014   1.204   0.009  0.00  0.00     0.287 C 
ATOM     14  O1  <0> d           0.002  -0.004   0.002  0.00  0.00    -0.262 OA
BRANCH  13  15
ATOM     15  O2  <0> d           1.139   1.891   0.001  0.00  0.00    -0.324 OA
BRANCH  15  16
ATOM     16  C6  <0> d           2.367   1.117  -0.015  0.00  0.00     0.013 C 
ATOM     17  H9  <0> d           3.230   1.799  -0.019  0.00  0.00     0.067 H 
ATOM     18  H10 <0> d           2.392   0.487  -0.916  0.00  0.00     0.067 H 
ATOM     19  H11 <0> d           2.409   0.478   0.880  0.00  0.00     0.067 H 
ENDBRANCH  15  16
ENDBRANCH  13  15
ENDBRANCH   1  13
BRANCH   1  20
ATOM     20  O3  <0> d          -2.401   1.002  -0.099  0.00  0.00    -0.381 OA
BRANCH  20  21
ATOM     21  C7  <0> d          -2.787   0.726  -1.446  0.00  0.00     0.005 C 
ATOM     22  H12 <0> d          -3.613  -0.001  -1.450  0.00  0.00     0.066 H 
ATOM     23  H13 <0> d          -1.930   0.310  -1.996  0.00  0.00     0.066 H 
ATOM     24  H14 <0> d          -3.117   1.657  -1.931  0.00  0.00     0.066 H 
ENDBRANCH  20  21
ENDBRANCH   1  20
TORSDOF 8
