REMARK  3 active torsions:
REMARK  status: ('A' for Active; 'I' for Inactive)
REMARK    1  A    between atoms: C3_3  and  N1_11 
REMARK    2  A    between atoms: C5_5  and  O1_7 
REMARK    3  A    between atoms: O1_7  and  C7_8 
ROOT
ATOM      1  C1  <0> d          -0.023   1.375  -0.053  0.00  0.00    -0.078 A 
ATOM      2  C2  <0> d           1.161   2.087  -0.073  0.00  0.00    -0.058 A 
ATOM      3  C3  <0> d           2.377   1.414  -0.075  0.00  0.00     0.028 A 
ATOM      4  C4  <0> d           2.400   0.026  -0.058  0.00  0.00    -0.026 A 
ATOM      5  C5  <0> d           1.210  -0.684  -0.038  0.00  0.00     0.071 A 
ATOM      6  C6  <0> d          -0.002  -0.006  -0.036  0.00  0.00    -0.051 A 
ATOM      7  H1  <0> d          -0.967   1.900  -0.047  0.00  0.00     0.083 H 
ATOM      8  H2  <0> d           1.142   3.167  -0.086  0.00  0.00     0.086 H 
ATOM      9  H3  <0> d           3.343  -0.499  -0.060  0.00  0.00     0.091 H 
ATOM     10  H4  <0> d          -0.929  -0.560  -0.020  0.00  0.00     0.087 H 
ENDROOT
BRANCH   5  11
ATOM     11  O1  <0> d           1.229  -2.042  -0.021  0.00  0.00    -0.346 OA
BRANCH  11  12
ATOM     12  C7  <0> d           2.504  -2.675  -0.148  0.00  0.00     0.045 A 
ATOM     13  C9  <0> d           2.648  -4.093   0.407  0.00  0.00    -0.038 A 
ATOM     14  C8  <0> d           2.610  -3.864  -1.105  0.00  0.00    -0.038 A 
ATOM     15  H8  <0> d           3.606  -4.365   0.852  0.00  0.00     0.036 H 
ATOM     16  H9  <0> d           1.770  -4.544   0.870  0.00  0.00     0.036 H 
ATOM     17  H6  <0> d           1.708  -4.164  -1.637  0.00  0.00     0.036 H 
ATOM     18  H7  <0> d           3.543  -3.986  -1.656  0.00  0.00     0.036 H 
ATOM     19  H5  <0> d           3.367  -2.014  -0.070  0.00  0.00     0.084 H 
ENDBRANCH  11  12
ENDBRANCH   5  11
BRANCH   3  20
ATOM     20  N1  <0> d           3.574   2.133  -0.096  0.00  0.00    -0.399 N 
ATOM     21  H10 <0> d           3.557   3.103  -0.108  0.00  0.00     0.156 HD
ATOM     22  H11 <0> d           4.422   1.663  -0.098  0.00  0.00     0.156 HD
ENDBRANCH   3  20
TORSDOF 3
