REMARK  4 active torsions:
REMARK  status: ('A' for Active; 'I' for Inactive)
REMARK    1  A    between atoms: C1_1  and  N1_2 
REMARK    2  A    between atoms: N1_2  and  C2_3 
REMARK    3  A    between atoms: N1_2  and  S1_4 
REMARK    4  A    between atoms: S1_4  and  C3_7 
ROOT
ATOM      1  N1  <0> d           2.278   1.646   1.423  0.00  0.00    -0.316 N 
ENDROOT
BRANCH   1   2
ATOM      2  C1  <0> d           3.204   0.514   1.506  0.00  0.00    -0.009 C 
ATOM      3  H1  <0> d           3.253   0.008   0.531  0.00  0.00     0.057 H 
ATOM      4  H2  <0> d           2.850  -0.194   2.269  0.00  0.00     0.057 H 
ATOM      5  H3  <0> d           4.205   0.879   1.781  0.00  0.00     0.057 H 
ENDBRANCH   1   2
BRANCH   1   6
ATOM      6  C2  <0> d           2.038   2.484   2.600  0.00  0.00    -0.009 C 
ATOM      7  H4  <0> d           1.318   3.276   2.346  0.00  0.00     0.057 H 
ATOM      8  H5  <0> d           2.985   2.940   2.925  0.00  0.00     0.057 H 
ATOM      9  H6  <0> d           1.630   1.866   3.414  0.00  0.00     0.057 H 
ENDBRANCH   1   6
BRANCH   1  10
ATOM     10  S1  <0> d           1.501   1.978  -0.002  0.00  0.00     0.249 S 
ATOM     11  O1  <0> d           2.299   1.421  -1.038  0.00  0.00    -0.201 OA
ATOM     12  O2  <0> d           1.154   3.355   0.036  0.00  0.00    -0.201 OA
BRANCH  10  13
ATOM     13  C3  <0> d          -0.013   1.076   0.008  0.00  0.00     0.018 C 
ATOM     14  C4  <0> d          -1.156   1.715   0.017  0.00  0.00    -0.109 C 
ATOM     15  H8  <0> d          -2.101   1.152   0.023  0.00  0.00     0.067 H 
ATOM     16  H9  <0> d          -1.171   2.815   0.018  0.00  0.00     0.067 H 
ATOM     17  H7  <0> d           0.002  -0.024   0.007  0.00  0.00     0.103 H 
ENDBRANCH  10  13
ENDBRANCH   1  10
TORSDOF 4
