REMARK  2 active torsions:
REMARK  status: ('A' for Active; 'I' for Inactive)
REMARK    1  A    between atoms: C1_1  and  C2_2 
REMARK    2  A    between atoms: C4_4  and  N3_12 
ROOT
ATOM      1  C2  <0> d           0.002  -0.004   0.002  0.00  0.00     0.033 A 
ATOM      2  C3  <0> d           0.005  -0.671  -1.216  0.00  0.00    -0.033 A 
ATOM      3  C4  <0> d           0.024  -2.057  -1.241  0.00  0.00     0.040 A 
ATOM      4  C5  <0> d           0.039  -2.736  -0.001  0.00  0.00     0.022 A 
ATOM      5  C6  <0> d           0.059  -4.136   0.087  0.00  0.00    -0.052 A 
ATOM      6  C7  <0> d           0.073  -4.714   1.322  0.00  0.00     0.003 A 
ATOM      7  N1  <0> d           0.069  -3.987   2.430  0.00  0.00    -0.271 NA
ATOM      8  C8  <0> d           0.050  -2.676   2.421  0.00  0.00     0.030 A 
ATOM      9  C9  <0> d           0.035  -1.982   1.198  0.00  0.00     0.087 A 
ATOM     10  N2  <0> d           0.022  -0.647   1.147  0.00  0.00    -0.252 NA
ATOM     11  H4  <0> d          -0.007  -0.113  -2.141  0.00  0.00     0.090 H 
ATOM     12  H5  <0> d           0.063  -4.744  -0.806  0.00  0.00     0.087 H 
ATOM     13  H6  <0> d           0.089  -5.791   1.399  0.00  0.00     0.114 H 
ATOM     14  H7  <0> d           0.047  -2.129   3.352  0.00  0.00     0.118 H 
ENDROOT
BRANCH   1  15
ATOM     15  C1  <0> d          -0.018   1.503   0.010  0.00  0.00    -0.035 C 
ATOM     16  H1  <0> d           1.004   1.880   0.003  0.00  0.00     0.035 H 
ATOM     17  H2  <0> d          -0.545   1.864  -0.873  0.00  0.00     0.035 H 
ATOM     18  H3  <0> d          -0.529   1.854   0.907  0.00  0.00     0.035 H 
ENDBRANCH   1  15
BRANCH   3  19
ATOM     19  N3  <0> d           0.027  -2.753  -2.440  0.00  0.00    -0.398 N 
ATOM     20  H8  <0> d           0.016  -2.271  -3.281  0.00  0.00     0.156 HD
ATOM     21  H9  <0> d           0.041  -3.723  -2.438  0.00  0.00     0.156 HD
ENDBRANCH   3  19
TORSDOF 2
