REMARK  2 active torsions:
REMARK  status: ('A' for Active; 'I' for Inactive)
REMARK    1  A    between atoms: N2_4  and  C4_6 
REMARK    2  A    between atoms: C4_6  and  C5_7 
REMARK       I    between atoms: C5_7  and  N3_9 
ROOT
ATOM      1  C1  <0> d          -0.016   1.349   0.009  0.00  0.00    -0.048 A 
ATOM      2  C2  <0> d           1.308   1.797  -0.001  0.00  0.00     0.023 A 
ATOM      3  N1  <0> d           2.094   0.751  -0.014  0.00  0.00    -0.185 NA
ATOM      4  N2  <0> d           1.293  -0.398  -0.012  0.00  0.00    -0.273 N 
ATOM      5  C3  <0> d           0.002  -0.004   0.002  0.00  0.00     0.000 A 
ATOM      6  H1  <0> d          -0.898   1.972   0.025  0.00  0.00     0.087 H 
ATOM      7  H2  <0> d           1.628   2.829   0.002  0.00  0.00     0.117 H 
ATOM      8  H3  <0> d          -0.862  -0.653   0.007  0.00  0.00     0.114 H 
ENDROOT
BRANCH   4   9
ATOM      9  C4  <0> d           1.771  -1.782  -0.025  0.00  0.00     0.089 C 
ATOM     10  H4  <0> d           2.309  -1.989   0.900  0.00  0.00     0.082 H 
ATOM     11  H5  <0> d           0.922  -2.460  -0.110  0.00  0.00     0.082 H 
BRANCH   9  12
ATOM     12  C5  <0> d           2.695  -1.984  -1.199  0.00  0.00     0.235 C 
ATOM     13  O1  <0> d           2.930  -1.062  -1.951  0.00  0.00    -0.272 OA
ATOM     14  N3  <0> d           3.259  -3.189  -1.413  0.00  0.00    -0.369 N 
ATOM     15  H6  <0> d           3.071  -3.927  -0.811  0.00  0.00     0.159 HD
ATOM     16  H7  <0> d           3.853  -3.319  -2.168  0.00  0.00     0.159 HD
ENDBRANCH   9  12
ENDBRANCH   4   9
TORSDOF 2
