REMARK  5 active torsions:
REMARK  status: ('A' for Active; 'I' for Inactive)
REMARK    1  A    between atoms: C1_1  and  C2_2 
REMARK    2  A    between atoms: C4_4  and  C8_10 
REMARK    3  A    between atoms: N1_5  and  C6_7 
REMARK    4  A    between atoms: C6_7  and  C7_8 
REMARK    5  A    between atoms: C7_8  and  O1_9 
ROOT
ATOM      1  C2  <0> d           0.548  -0.146   4.176  0.00  0.00    -0.045 A 
ATOM      2  C3  <0> d           1.425   0.955   4.103  0.00  0.00    -0.054 A 
ATOM      3  C4  <0> d           1.053   1.696   3.039  0.00  0.00     0.008 A 
ATOM      4  N1  <0> d          -0.020   1.094   2.454  0.00  0.00    -0.358 N 
ATOM      5  C5  <0> d          -0.329  -0.032   3.158  0.00  0.00    -0.015 A 
ATOM      6  H4  <0> d           2.243   1.166   4.775  0.00  0.00     0.087 H 
ATOM      7  H5  <0> d          -1.135  -0.716   2.938  0.00  0.00     0.112 H 
ENDROOT
BRANCH   4   8
ATOM      8  C6  <0> d          -0.729   1.579   1.267  0.00  0.00     0.019 C 
ATOM      9  H6  <0> d          -0.744   2.669   1.273  0.00  0.00     0.068 H 
ATOM     10  H7  <0> d          -1.751   1.202   1.275  0.00  0.00     0.068 H 
BRANCH   8  11
ATOM     11  C7  <0> d          -0.013   1.086   0.008  0.00  0.00     0.032 C 
ATOM     12  H8  <0> d           0.002  -0.004   0.002  0.00  0.00     0.076 H 
ATOM     13  H9  <0> d           1.010   1.463   0.000  0.00  0.00     0.076 H 
BRANCH  11  14
ATOM     14  O1  <0> d          -0.704   1.559  -1.150  0.00  0.00    -0.399 OA
ATOM     15  H10 <0> d          -0.304   1.284  -1.986  0.00  0.00     0.209 HD
ENDBRANCH  11  14
ENDBRANCH   8  11
ENDBRANCH   4   8
BRANCH   3  16
ATOM     16  C8  <0> d           1.712   2.971   2.579  0.00  0.00    -0.037 C 
ATOM     17  H11 <0> d           1.238   3.822   3.068  0.00  0.00     0.035 H 
ATOM     18  H12 <0> d           2.770   2.947   2.836  0.00  0.00     0.035 H 
ATOM     19  H13 <0> d           1.603   3.066   1.498  0.00  0.00     0.035 H 
ENDBRANCH   3  16
BRANCH   1  20
ATOM     20  C1  <0> d           0.580  -1.245   5.207  0.00  0.00    -0.050 C 
ATOM     21  H1  <0> d          -0.044  -0.966   6.056  0.00  0.00     0.033 H 
ATOM     22  H2  <0> d           0.203  -2.167   4.766  0.00  0.00     0.033 H 
ATOM     23  H3  <0> d           1.606  -1.396   5.544  0.00  0.00     0.033 H 
ENDBRANCH   1  20
TORSDOF 5
