REMARK  5 active torsions:
REMARK  status: ('A' for Active; 'I' for Inactive)
REMARK    1  A    between atoms: C1_1  and  O1_2 
REMARK    2  A    between atoms: O1_2  and  C2_3 
REMARK    3  A    between atoms: C2_3  and  C3_5 
REMARK    4  A    between atoms: C3_5  and  C6_8 
REMARK    5  A    between atoms: C6_8  and  C7_9 
ROOT
ATOM      1  C3  <0> d           0.656  -2.034   1.003  0.00  0.00     0.051 A 
ATOM      2  C4  <0> d           2.009  -2.744   0.929  0.00  0.00    -0.048 A 
ATOM      3  C5  <0> d           1.394  -2.410   2.289  0.00  0.00    -0.048 A 
ATOM      4  H4  <0> d           2.012  -3.790   0.621  0.00  0.00     0.035 H 
ATOM      5  H5  <0> d           2.869  -2.157   0.607  0.00  0.00     0.035 H 
ATOM      6  H6  <0> d           1.850  -1.603   2.863  0.00  0.00     0.035 H 
ATOM      7  H7  <0> d           0.993  -3.236   2.877  0.00  0.00     0.035 H 
ENDROOT
BRANCH   1   8
ATOM      8  C2  <0> d           0.614  -0.575   0.626  0.00  0.00     0.267 C 
ATOM      9  O2  <0> d           1.060   0.257   1.381  0.00  0.00    -0.264 OA
BRANCH   8  10
ATOM     10  O1  <0> d           0.083  -0.201  -0.548  0.00  0.00    -0.326 OA
BRANCH  10  11
ATOM     11  C1  <0> d           0.076   1.198  -0.840  0.00  0.00     0.013 C 
ATOM     12  H1  <0> d           1.100   1.572  -0.850  0.00  0.00     0.067 H 
ATOM     13  H2  <0> d          -0.380   1.363  -1.817  0.00  0.00     0.067 H 
ATOM     14  H3  <0> d          -0.496   1.726  -0.078  0.00  0.00     0.067 H 
ENDBRANCH  10  11
ENDBRANCH   8  10
ENDBRANCH   1   8
BRANCH   1  15
ATOM     15  C6  <0> d          -0.589  -2.845   0.640  0.00  0.00    -0.035 C 
ATOM     16  H8  <0> d          -0.797  -2.736  -0.424  0.00  0.00     0.040 H 
ATOM     17  H9  <0> d          -0.418  -3.897   0.871  0.00  0.00     0.040 H 
BRANCH  15  18
ATOM     18  C7  <0> d          -1.766  -2.341   1.436  0.00  0.00    -0.111 C 
ATOM     19  C8  <0> d          -2.859  -1.964   0.820  0.00  0.00    -0.125 C 
ATOM     20  H11 <0> d          -2.917  -2.013  -0.257  0.00  0.00     0.066 H 
ATOM     21  H12 <0> d          -3.703  -1.603   1.390  0.00  0.00     0.066 H 
ATOM     22  H10 <0> d          -1.708  -2.292   2.513  0.00  0.00     0.075 H 
ENDBRANCH  15  18
ENDBRANCH   1  15
TORSDOF 5
