REMARK  4 active torsions:
REMARK  status: ('A' for Active; 'I' for Inactive)
REMARK    1  A    between atoms: C1_1  and  C2_2 
REMARK    2  A    between atoms: C2_2  and  O2_6 
REMARK    3  A    between atoms: C3_3  and  C4_4 
REMARK    4  A    between atoms: O2_6  and  C5_7 
ROOT
ATOM      1  C2  <0> d           2.561   3.502   0.098  0.00  0.00     0.048 C 
ATOM      2  C3  <0> d           1.352   2.954  -0.123  0.00  0.00     0.018 C 
ATOM      3  H4  <0> d           0.480   3.585  -0.204  0.00  0.00     0.098 H 
ENDROOT
BRANCH   1   4
ATOM      4  C1  <0> d           3.795   2.637   0.082  0.00  0.00    -0.032 C 
ATOM      5  H1  <0> d           3.881   2.145  -0.887  0.00  0.00     0.036 H 
ATOM      6  H2  <0> d           4.675   3.256   0.255  0.00  0.00     0.036 H 
ATOM      7  H3  <0> d           3.720   1.883   0.866  0.00  0.00     0.036 H 
ENDBRANCH   1   4
BRANCH   1   8
ATOM      8  O2  <0> d           2.668   4.824   0.334  0.00  0.00    -0.360 OA
BRANCH   8   9
ATOM      9  C5  <0> d           1.438   5.596   0.335  0.00  0.00     0.010 C 
ATOM     10  H5  <0> d           0.955   5.511  -0.638  0.00  0.00     0.066 H 
ATOM     11  H6  <0> d           0.770   5.214   1.107  0.00  0.00     0.066 H 
ATOM     12  H7  <0> d           1.666   6.643   0.537  0.00  0.00     0.066 H 
ENDBRANCH   8   9
ENDBRANCH   1   8
BRANCH   2  13
ATOM     13  C4  <0> d           1.224   1.550  -0.252  0.00  0.00     0.200 C 
ATOM     14  O1  <0> d           2.217   0.847  -0.256  0.00  0.00    -0.644 OA
ATOM     15  O3  <0> d           0.001   0.992  -0.369  0.00  0.00    -0.644 OA
ENDBRANCH   2  13
TORSDOF 4
