REMARK  1 active torsions:
REMARK  status: ('A' for Active; 'I' for Inactive)
REMARK    1  A    between atoms: C3_3  and  C5_5 
REMARK       I    between atoms: C5_5  and  N1_7 
ROOT
ATOM      1  C1  <0> d           3.142   2.092  -1.004  0.00  0.00    -0.064 C 
ATOM      2  C2  <0> d           2.530   1.085  -0.016  0.00  0.00    -0.054 C 
ATOM      3  C3  <0> d           1.280   1.980   0.001  0.00  0.00     0.023 C 
ATOM      4  C4  <0> d           1.702   2.461  -1.398  0.00  0.00    -0.054 C 
ATOM      5  H1  <0> d           3.684   2.904  -0.520  0.00  0.00     0.033 H 
ATOM      6  H2  <0> d           3.709   1.624  -1.810  0.00  0.00     0.033 H 
ATOM      7  H3  <0> d           3.050   1.042   0.941  0.00  0.00     0.034 H 
ATOM      8  H4  <0> d           2.356   0.099  -0.449  0.00  0.00     0.034 H 
ATOM      9  H5  <0> d           1.313   2.761   0.760  0.00  0.00     0.054 H 
ATOM     10  H6  <0> d           1.301   1.851  -2.208  0.00  0.00     0.034 H 
ATOM     11  H7  <0> d           1.553   3.529  -1.556  0.00  0.00     0.034 H 
ENDROOT
BRANCH   3  12
ATOM     12  C5  <0> d          -0.014   1.209   0.009  0.00  0.00     0.219 C 
ATOM     13  O1  <0> d           0.002  -0.004   0.002  0.00  0.00    -0.273 OA
ATOM     14  N1  <0> d          -1.191   1.867   0.018  0.00  0.00    -0.370 N 
ATOM     15  H8  <0> d          -2.024   1.370   0.019  0.00  0.00     0.159 HD
ATOM     16  H9  <0> d          -1.204   2.837   0.023  0.00  0.00     0.159 HD
ENDBRANCH   3  12
TORSDOF 1
