REMARK  4 active torsions:
REMARK  status: ('A' for Active; 'I' for Inactive)
REMARK    1  A    between atoms: C1_1  and  C2_2 
REMARK    2  A    between atoms: N1_5  and  C5_7 
REMARK    3  A    between atoms: C5_7  and  C6_8 
REMARK    4  A    between atoms: C5_7  and  C7_9 
ROOT
ATOM      1  C2  <0> d           0.002  -0.004   0.002  0.00  0.00     0.074 A 
ATOM      2  C3  <0> d           0.008  -0.818  -1.136  0.00  0.00     0.077 A 
ATOM      3  C4  <0> d           0.028  -2.108  -0.725  0.00  0.00     0.022 A 
ATOM      4  N1  <0> d           0.034  -2.109   0.625  0.00  0.00    -0.275 N 
ATOM      5  N2  <0> d           0.023  -0.777   1.058  0.00  0.00    -0.176 NA
ATOM      6 Cl1  <0> d          -0.008  -0.271  -2.784  0.00  0.00    -0.081 Cl
ATOM      7  H4  <0> d           0.037  -2.979  -1.363  0.00  0.00     0.117 H 
ENDROOT
BRANCH   4   8
ATOM      8  C5  <0> d           0.055  -3.295   1.486  0.00  0.00     0.027 C 
ATOM      9  H5  <0> d           0.490  -3.035   2.451  0.00  0.00     0.074 H 
BRANCH   8  10
ATOM     10  C6  <0> d          -1.374  -3.801   1.691  0.00  0.00    -0.056 C 
ATOM     11  H6  <0> d          -1.810  -4.060   0.726  0.00  0.00     0.030 H 
ATOM     12  H7  <0> d          -1.359  -4.683   2.331  0.00  0.00     0.030 H 
ATOM     13  H8  <0> d          -1.972  -3.021   2.161  0.00  0.00     0.030 H 
ENDBRANCH   8  10
BRANCH   8  14
ATOM     14  C7  <0> d           0.894  -4.390   0.826  0.00  0.00    -0.056 C 
ATOM     15  H9  <0> d           1.913  -4.029   0.680  0.00  0.00     0.030 H 
ATOM     16  H10 <0> d           0.910  -5.272   1.466  0.00  0.00     0.030 H 
ATOM     17  H11 <0> d           0.459  -4.649  -0.140  0.00  0.00     0.030 H 
ENDBRANCH   8  14
ENDBRANCH   4   8
BRANCH   1  18
ATOM     18  C1  <0> d          -0.018   1.503   0.010  0.00  0.00    -0.032 C 
ATOM     19  H1  <0> d           1.004   1.880   0.003  0.00  0.00     0.035 H 
ATOM     20  H2  <0> d          -0.545   1.864  -0.873  0.00  0.00     0.035 H 
ATOM     21  H3  <0> d          -0.529   1.854   0.907  0.00  0.00     0.035 H 
ENDBRANCH   1  18
TORSDOF 4
