REMARK  2 active torsions:
REMARK  status: ('A' for Active; 'I' for Inactive)
REMARK    1  A    between atoms: C4_5  and  C5_7 
REMARK    2  A    between atoms: C5_7  and  N2_11 
ROOT
ATOM      1  C5  <0> d           0.240   2.040   2.338  0.00  0.00     0.217 C 
ATOM      2  H2  <0> d          -0.275   2.426   3.231  0.00  0.00     0.112 H 
ATOM      3  C6  <0> d           1.100   3.106   1.798  0.00  0.00     0.095 C 
ATOM      4  N1  <0> d           1.763   3.928   1.381  0.00  0.00    -0.195 NA
ENDROOT
BRANCH   1   5
ATOM      5  C4  <0> d          -0.753   1.593   1.264  0.00  0.00     0.011 C 
ATOM      6  C1  <0> d          -1.552   2.804   0.708  0.00  0.00    -0.037 C 
ATOM      7  C2  <0> d          -1.880   2.309  -0.724  0.00  0.00     0.020 C 
ATOM      8  H3  <0> d          -2.444   2.972   1.329  0.00  0.00     0.036 H 
ATOM      9  H4  <0> d          -0.917   3.702   0.727  0.00  0.00     0.036 H 
ATOM     10  O1  <0> d          -0.722   1.569  -1.139  0.00  0.00    -0.391 OA
ATOM     11  H5  <0> d          -2.778   1.675  -0.695  0.00  0.00     0.074 H 
ATOM     12  H6  <0> d          -2.064   3.175  -1.378  0.00  0.00     0.074 H 
ATOM     13  C3  <0> d          -0.013   1.086   0.008  0.00  0.00     0.026 C 
ATOM     14  H7  <0> d           0.005  -0.014  -0.008  0.00  0.00     0.075 H 
ATOM     15  H8  <0> d           1.018   1.470  -0.010  0.00  0.00     0.075 H 
ATOM     16  H1  <0> d          -1.374   0.828   1.754  0.00  0.00     0.048 H 
ENDBRANCH   1   5
BRANCH   1  17
ATOM     17  N2  <0> d           1.071   0.898   2.743  0.00  0.00     0.096 N 
ATOM     18  H9  <0> d           1.785   1.220   3.515  0.00  0.00     0.314 HD
ATOM     19  H10 <0> d           0.429   0.102   3.147  0.00  0.00     0.314 HD
ENDBRANCH   1  17
TORSDOF 2
