REMARK  2 active torsions:
REMARK  status: ('A' for Active; 'I' for Inactive)
REMARK    1  A    between atoms: C1_1  and  C2_2 
REMARK    2  A    between atoms: C2_2  and  N1_3 
ROOT
ATOM      1  N1  <0> d          -0.749   3.044   1.275  0.00  0.00    -0.336 N 
ATOM      2  C3  <0> d           0.205   3.751   1.947  0.00  0.00    -0.012 A 
ATOM      3  C4  <0> d           0.179   5.084   1.943  0.00  0.00    -0.026 A 
ATOM      4  S1  <0> d          -1.268   5.428   0.955  0.00  0.00    -0.063 SA
ATOM      5  C5  <0> d          -1.735   3.739   0.609  0.00  0.00     0.165 A 
ATOM      6  N2  <0> d          -2.744   3.283  -0.091  0.00  0.00    -0.277 NA
ATOM      7  H6  <0> d           0.986   3.229   2.480  0.00  0.00     0.112 H 
ATOM      8  H7  <0> d           0.857   5.777   2.419  0.00  0.00     0.097 H 
ATOM      9  H8  <0> d          -3.364   3.902  -0.508  0.00  0.00     0.189 HD
ENDROOT
BRANCH   1  10
ATOM     10  C2  <0> d          -0.729   1.579   1.267  0.00  0.00    -0.002 C 
ATOM     11  H4  <0> d          -1.751   1.202   1.275  0.00  0.00     0.064 H 
ATOM     12  H5  <0> d          -0.202   1.218   2.150  0.00  0.00     0.064 H 
BRANCH  10  13
ATOM     13  C1  <0> d          -0.013   1.086   0.008  0.00  0.00    -0.061 C 
ATOM     14  H1  <0> d           0.002  -0.004   0.002  0.00  0.00     0.029 H 
ATOM     15  H2  <0> d           1.010   1.463   0.000  0.00  0.00     0.029 H 
ATOM     16  H3  <0> d          -0.540   1.447  -0.875  0.00  0.00     0.029 H 
ENDBRANCH  10  13
ENDBRANCH   1  10
TORSDOF 2
