REMARK  2 active torsions:
REMARK  status: ('A' for Active; 'I' for Inactive)
REMARK    1  A    between atoms: C1_1  and  C2_2 
REMARK    2  A    between atoms: C3_4  and  C4_7 
ROOT
ATOM      1  C2  <0> d           1.939   5.074   0.010  0.00  0.00     0.169 A 
ATOM      2  N1  <0> d           2.356   3.833   0.000  0.00  0.00    -0.199 NA
ATOM      3  C3  <0> d           1.238   3.073   0.007  0.00  0.00     0.256 A 
ATOM      4  N2  <0> d           0.217   3.889   0.015  0.00  0.00    -0.099 NA
ATOM      5  O1  <0> d           0.602   5.039   0.023  0.00  0.00    -0.196 OA
ENDROOT
BRANCH   1   6
ATOM      6  C1  <0> d           2.802   6.309   0.009  0.00  0.00    -0.013 C 
ATOM      7  H1  <0> d           3.862   6.016  -0.003  0.00  0.00     0.038 H 
ATOM      8  H2  <0> d           2.595   6.902   0.912  0.00  0.00     0.038 H 
ATOM      9  H3  <0> d           2.579   6.911  -0.885  0.00  0.00     0.038 H 
ENDBRANCH   1   6
BRANCH   3  10
ATOM     10  C4  <0> d           1.180   1.590  -0.001  0.00  0.00     0.251 C 
ATOM     11  O2  <0> d           2.207   0.943  -0.014  0.00  0.00    -0.642 OA
ATOM     12  O3  <0> d          -0.011   0.963   0.007  0.00  0.00    -0.642 OA
ENDBRANCH   3  10
TORSDOF 2
