REMARK  1 active torsions:
REMARK  status: ('A' for Active; 'I' for Inactive)
REMARK    1  A    between atoms: C2_2  and  C3_3 
ROOT
ATOM      1  C3  <0> d          -2.222   1.335   1.351  0.00  0.00     0.019 C 
ATOM      2  H1  <0> d          -2.397   0.357   1.462  0.00  0.00     0.058 H 
ATOM      3  C4  <0> d          -2.890   1.837   0.067  0.00  0.00    -0.052 C 
ATOM      4  C5  <0> d          -2.229   1.175  -1.143  0.00  0.00    -0.064 C 
ATOM      5  C6  <0> d          -0.761   1.597  -1.227  0.00  0.00    -0.059 C 
ATOM      6  C7  <0> d          -0.013   1.086   0.008  0.00  0.00    -0.009 C 
ATOM      7  C8  <0> d          -0.728   1.577   1.247  0.00  0.00     0.134 C 
ATOM      8  O1  <0> d          -0.126   2.148   2.124  0.00  0.00    -0.297 OA
ATOM      9  H5  <0> d          -2.776   2.919  -0.003  0.00  0.00     0.034 H 
ATOM     10  H6  <0> d          -3.950   1.584   0.086  0.00  0.00     0.034 H 
ATOM     11  H7  <0> d          -2.747   1.481  -2.052  0.00  0.00     0.033 H 
ATOM     12  H8  <0> d          -2.289   0.091  -1.040  0.00  0.00     0.033 H 
ATOM     13  H9  <0> d          -0.698   2.685  -1.267  0.00  0.00     0.033 H 
ATOM     14  H10 <0> d          -0.312   1.174  -2.126  0.00  0.00     0.033 H 
ATOM     15  H11 <0> d           0.004   0.086  -0.002  0.00  0.00     0.044 H 
ATOM     16  H12 <0> d           1.009   1.466   0.000  0.00  0.00     0.044 H 
ENDROOT
BRANCH   1  17
ATOM     17  C2  <0> d          -2.777   2.082   2.536  0.00  0.00    -0.101 C 
ATOM     18  C1  <0> d          -3.383   1.430   3.497  0.00  0.00    -0.124 C 
ATOM     19  H2  <0> d          -3.485   0.356   3.439  0.00  0.00     0.066 H 
ATOM     20  H3  <0> d          -3.780   1.965   4.346  0.00  0.00     0.066 H 
ATOM     21  H4  <0> d          -2.674   3.156   2.594  0.00  0.00     0.076 H 
ENDBRANCH   1  17
TORSDOF 1
