REMARK  3 active torsions:
REMARK  status: ('A' for Active; 'I' for Inactive)
REMARK    1  A    between atoms: C1_1  and  N1_2 
REMARK    2  A    between atoms: N1_2  and  C2_3 
REMARK    3  A    between atoms: C3_4  and  N4_10 
ROOT
ATOM      1  C2  <0> d          -1.191   3.820   0.033  0.00  0.00     0.154 A 
ATOM      2  C3  <0> d          -1.227   2.419   0.021  0.00  0.00     0.113 A 
ATOM      3  C4  <0> d          -0.021   1.732   0.012  0.00  0.00     0.157 A 
ATOM      4  N2  <0> d           1.113   2.420   0.004  0.00  0.00    -0.227 NA
ATOM      5  C5  <0> d           1.109   3.737   0.011  0.00  0.00     0.090 A 
ATOM      6  N3  <0> d          -0.012   4.431   0.025  0.00  0.00    -0.222 NA
ATOM      7 Cl1  <0> d           0.002  -0.004   0.002  0.00  0.00    -0.060 Cl
ATOM      8  H5  <0> d           2.051   4.264   0.005  0.00  0.00     0.146 H 
ENDROOT
BRANCH   1   9
ATOM      9  N1  <0> d          -2.368   4.556   0.047  0.00  0.00    -0.377 N 
ATOM     10  H4  <0> d          -3.225   4.101   0.053  0.00  0.00     0.160 HD
BRANCH   9  11
ATOM     11  C1  <0> d          -2.317   6.020   0.054  0.00  0.00    -0.019 C 
ATOM     12  H1  <0> d          -3.331   6.419   0.065  0.00  0.00     0.056 H 
ATOM     13  H2  <0> d          -1.782   6.361   0.940  0.00  0.00     0.056 H 
ATOM     14  H3  <0> d          -1.798   6.369  -0.840  0.00  0.00     0.056 H 
ENDBRANCH   9  11
ENDBRANCH   1   9
BRANCH   2  15
ATOM     15  N4  <0> d          -2.448   1.730   0.023  0.00  0.00    -0.393 N 
ATOM     16  H6  <0> d          -2.458   0.761   0.018  0.00  0.00     0.156 HD
ATOM     17  H7  <0> d          -3.283   2.224   0.029  0.00  0.00     0.156 HD
ENDBRANCH   2  15
TORSDOF 3
