REMARK  3 active torsions:
REMARK  status: ('A' for Active; 'I' for Inactive)
REMARK    1  A    between atoms: C1_1  and  C2_2 
REMARK    2  A    between atoms: C2_2  and  C3_3 
REMARK    3  A    between atoms: C8_8  and  N1_9 
ROOT
ATOM      1  C3  <0> d          -2.143   1.058   1.278  0.00  0.00    -0.031 A 
ATOM      2  C4  <0> d          -3.172   1.840   0.791  0.00  0.00    -0.054 A 
ATOM      3  C5  <0> d          -4.469   1.360   0.796  0.00  0.00     0.034 A 
ATOM      4  C6  <0> d          -4.741   0.099   1.297  0.00  0.00    -0.060 A 
ATOM      5  C7  <0> d          -3.717  -0.686   1.790  0.00  0.00    -0.056 A 
ATOM      6  C8  <0> d          -2.413  -0.208   1.781  0.00  0.00     0.032 A 
ATOM      7 Cl1  <0> d          -5.760   2.343   0.178  0.00  0.00    -0.084 Cl
ATOM      8  H6  <0> d          -2.963   2.826   0.403  0.00  0.00     0.087 H 
ATOM      9  H7  <0> d          -5.756  -0.272   1.303  0.00  0.00     0.086 H 
ATOM     10  H8  <0> d          -3.930  -1.669   2.181  0.00  0.00     0.087 H 
ENDROOT
BRANCH   1  11
ATOM     11  C2  <0> d          -0.729   1.579   1.267  0.00  0.00    -0.042 C 
ATOM     12  H4  <0> d          -0.202   1.218   2.150  0.00  0.00     0.039 H 
ATOM     13  H5  <0> d          -0.744   2.669   1.273  0.00  0.00     0.039 H 
BRANCH  11  14
ATOM     14  C1  <0> d          -0.013   1.086   0.008  0.00  0.00    -0.073 C 
ATOM     15  H1  <0> d           0.002  -0.004   0.002  0.00  0.00     0.028 H 
ATOM     16  H2  <0> d           1.010   1.463   0.000  0.00  0.00     0.028 H 
ATOM     17  H3  <0> d          -0.540   1.447  -0.875  0.00  0.00     0.028 H 
ENDBRANCH  11  14
ENDBRANCH   1  11
BRANCH   6  18
ATOM     18  N1  <0> d          -1.374  -1.000   2.279  0.00  0.00    -0.399 N 
ATOM     19  H9  <0> d          -0.464  -0.665   2.272  0.00  0.00     0.156 HD
ATOM     20  H10 <0> d          -1.564  -1.883   2.631  0.00  0.00     0.156 HD
ENDBRANCH   6  18
TORSDOF 3
