REMARK  2 active torsions:
REMARK  status: ('A' for Active; 'I' for Inactive)
REMARK    1  A    between atoms: C1_1  and  C2_2 
REMARK    2  A    between atoms: C3_3  and  C7_11 
ROOT
ATOM      1  C2  <0> d          -2.946   3.857   0.050  0.00  0.00     0.077 A 
ATOM      2  C3  <0> d          -1.632   4.187   0.040  0.00  0.00     0.060 A 
ATOM      3  N1  <0> d          -0.706   3.183   0.026  0.00  0.00    -0.217 N 
ATOM      4  C4  <0> d          -1.143   1.879   0.017  0.00  0.00     0.174 A 
ATOM      5  C5  <0> d          -0.013   1.076   0.008  0.00  0.00    -0.017 A 
ATOM      6  C6  <0> d           1.095   1.909   0.002  0.00  0.00     0.026 A 
ATOM      7  N2  <0> d           0.691   3.161   0.013  0.00  0.00    -0.178 NA
ATOM      8  N3  <0> d          -2.457   1.621   0.034  0.00  0.00    -0.130 NA
ATOM      9  N4  <0> d          -3.319   2.576   0.047  0.00  0.00    -0.151 NA
ATOM     10  H4  <0> d           0.002  -0.004   0.002  0.00  0.00     0.091 H 
ATOM     11  H5  <0> d           2.125   1.583  -0.010  0.00  0.00     0.117 H 
ENDROOT
BRANCH   1  12
ATOM     12  C1  <0> d          -3.992   4.942   0.066  0.00  0.00    -0.032 C 
ATOM     13  H1  <0> d          -4.253   5.210  -0.958  0.00  0.00     0.035 H 
ATOM     14  H2  <0> d          -4.880   4.584   0.586  0.00  0.00     0.035 H 
ATOM     15  H3  <0> d          -3.598   5.819   0.580  0.00  0.00     0.035 H 
ENDBRANCH   1  12
BRANCH   2  16
ATOM     16  C7  <0> d          -1.200   5.631   0.043  0.00  0.00    -0.033 C 
ATOM     17  H6  <0> d          -1.106   5.984  -0.984  0.00  0.00     0.035 H 
ATOM     18  H7  <0> d          -1.944   6.231   0.567  0.00  0.00     0.035 H 
ATOM     19  H8  <0> d          -0.239   5.722   0.548  0.00  0.00     0.035 H 
ENDBRANCH   2  16
TORSDOF 2
