REMARK  8 active torsions:
REMARK  status: ('A' for Active; 'I' for Inactive)
REMARK    1  A    between atoms: C1_1  and  C2_2 
REMARK    2  A    between atoms: C2_2  and  C3_4 
REMARK    3  A    between atoms: C2_2  and  O3_11 
REMARK    4  A    between atoms: C4_5  and  C5_6 
REMARK    5  A    between atoms: C5_6  and  O1_7 
REMARK    6  A    between atoms: O1_7  and  C6_8 
REMARK    7  A    between atoms: C6_8  and  C7_9 
REMARK    8  A    between atoms: C7_9  and  O2_10 
ROOT
ATOM      1  C5  <0> d          -0.013   1.086   0.008  0.00  0.00     0.074 C 
ATOM      2  H5  <0> d           0.002  -0.004   0.002  0.00  0.00     0.093 H 
ATOM      3  H6  <0> d           1.010   1.463   0.000  0.00  0.00     0.093 H 
ENDROOT
BRANCH   1   4
ATOM      4  C4  <0> d          -0.702   1.560   1.219  0.00  0.00    -0.078 C 
ATOM      5  C3  <0> d          -1.251   1.939   2.185  0.00  0.00    -0.073 C 
BRANCH   5   6
ATOM      6  C2  <0> d          -1.940   2.414   3.396  0.00  0.00     0.090 C 
ATOM      7  H1  <0> d          -1.955   3.504   3.402  0.00  0.00     0.102 H 
BRANCH   6   8
ATOM      8  C1  <0> d          -1.200   1.907   4.636  0.00  0.00    -0.043 C 
ATOM      9  H2  <0> d          -0.178   2.284   4.628  0.00  0.00     0.032 H 
ATOM     10  H3  <0> d          -1.710   2.259   5.532  0.00  0.00     0.032 H 
ATOM     11  H4  <0> d          -1.185   0.817   4.630  0.00  0.00     0.032 H 
ENDBRANCH   6   8
BRANCH   6  12
ATOM     12  O3  <0> d          -3.281   1.919   3.406  0.00  0.00    -0.384 OA
ATOM     13  H12 <0> d          -3.344   0.954   3.402  0.00  0.00     0.211 HD
ENDBRANCH   6  12
ENDBRANCH   5   6
ENDBRANCH   1   4
BRANCH   1  14
ATOM     14  O1  <0> d          -0.704   1.559  -1.150  0.00  0.00    -0.377 OA
BRANCH  14  15
ATOM     15  C6  <0> d          -0.114   1.152  -2.386  0.00  0.00     0.040 C 
ATOM     16  H7  <0> d           0.907   1.531  -2.443  0.00  0.00     0.077 H 
ATOM     17  H8  <0> d          -0.101   0.064  -2.442  0.00  0.00     0.077 H 
BRANCH  15  18
ATOM     18  C7  <0> d          -0.932   1.713  -3.551  0.00  0.00     0.036 C 
ATOM     19  H9  <0> d          -0.535   1.331  -4.491  0.00  0.00     0.077 H 
ATOM     20  H10 <0> d          -1.973   1.407  -3.444  0.00  0.00     0.077 H 
BRANCH  18  21
ATOM     21  O2  <0> d          -0.853   3.140  -3.545  0.00  0.00    -0.399 OA
ATOM     22  H11 <0> d          -1.349   3.564  -4.258  0.00  0.00     0.209 HD
ENDBRANCH  18  21
ENDBRANCH  15  18
ENDBRANCH  14  15
ENDBRANCH   1  14
TORSDOF 8
