REMARK  1 active torsions:
REMARK  status: ('A' for Active; 'I' for Inactive)
REMARK    1  A    between atoms: C4_4  and  C6_6 
ROOT
ATOM      1  C1  <0> d           4.987   1.281   1.263  0.00  0.00    -0.065 C 
ATOM      2  C2  <0> d           4.830   2.557   0.398  0.00  0.00    -0.065 C 
ATOM      3  C3  <0> d           4.187   2.050  -0.909  0.00  0.00    -0.057 C 
ATOM      4  C4  <0> d           3.465   0.736  -0.564  0.00  0.00    -0.006 C 
ATOM      5  C5  <0> d           3.695   0.489   0.941  0.00  0.00    -0.057 C 
ATOM      6  H1  <0> d           5.870   0.718   0.963  0.00  0.00     0.033 H 
ATOM      7  H2  <0> d           5.031   1.536   2.322  0.00  0.00     0.033 H 
ATOM      8  H3  <0> d           5.804   3.003   0.196  0.00  0.00     0.033 H 
ATOM      9  H4  <0> d           4.177   3.276   0.891  0.00  0.00     0.033 H 
ATOM     10  H5  <0> d           4.957   1.868  -1.658  0.00  0.00     0.033 H 
ATOM     11  H6  <0> d           3.471   2.783  -1.282  0.00  0.00     0.033 H 
ATOM     12  H7  <0> d           3.885  -0.085  -1.146  0.00  0.00     0.047 H 
ATOM     13  H8  <0> d           2.858   0.874   1.523  0.00  0.00     0.033 H 
ATOM     14  H9  <0> d           3.841  -0.573   1.136  0.00  0.00     0.033 H 
ENDROOT
BRANCH   4  15
ATOM     15  C6  <0> d           1.968   0.869  -0.850  0.00  0.00     0.134 C 
ATOM     16  O2  <0> d           1.292  -0.358  -0.528  0.00  0.00    -0.359 OA
ATOM     17  C8  <0> d           0.002  -0.004   0.002  0.00  0.00     0.042 C 
ATOM     18  C7  <0> d          -0.019   1.540   0.011  0.00  0.00     0.042 C 
ATOM     19  H13 <0> d          -0.110  -0.390   1.015  0.00  0.00     0.077 H 
ATOM     20  H14 <0> d          -0.790  -0.390  -0.640  0.00  0.00     0.077 H 
ATOM     21  O1  <0> d           1.388   1.883  -0.001  0.00  0.00    -0.359 OA
ATOM     22  H11 <0> d          -0.517   1.924  -0.880  0.00  0.00     0.077 H 
ATOM     23  H12 <0> d          -0.500   1.915   0.914  0.00  0.00     0.077 H 
ATOM     24  H10 <0> d           1.808   1.122  -1.899  0.00  0.00     0.129 H 
ENDBRANCH   4  15
TORSDOF 1
