REMARK  6 active torsions:
REMARK  status: ('A' for Active; 'I' for Inactive)
REMARK    1  A    between atoms: C1_1  and  C2_2 
REMARK    2  A    between atoms: C2_2  and  C3_3 
REMARK    3  A    between atoms: C3_3  and  C4_4 
REMARK    4  A    between atoms: C3_3  and  C6_6 
REMARK    5  A    between atoms: C4_4  and  C5_5 
REMARK    6  A    between atoms: C6_6  and  O1_7 
ROOT
ATOM      1  C3  <0> d           0.718  -0.497  -1.257  0.00  0.00     0.069 C 
ATOM      2  C7  <0> d           0.738  -1.969  -1.265  0.00  0.00     0.071 C 
ATOM      3  N1  <0> d           0.754  -3.105  -1.271  0.00  0.00    -0.196 NA
ENDROOT
BRANCH   1   4
ATOM      4  C2  <0> d           0.002  -0.004   0.002  0.00  0.00    -0.047 C 
ATOM      5  H4  <0> d           0.529  -0.365   0.885  0.00  0.00     0.035 H 
ATOM      6  H5  <0> d          -1.020  -0.381   0.010  0.00  0.00     0.035 H 
BRANCH   4   7
ATOM      7  C1  <0> d          -0.019   1.526   0.010  0.00  0.00    -0.075 C 
ATOM      8  H1  <0> d           1.004   1.903   0.003  0.00  0.00     0.027 H 
ATOM      9  H2  <0> d          -0.546   1.887  -0.873  0.00  0.00     0.027 H 
ATOM     10  H3  <0> d          -0.529   1.877   0.907  0.00  0.00     0.027 H 
ENDBRANCH   4   7
ENDBRANCH   1   4
BRANCH   1  11
ATOM     11  C4  <0> d          -0.022   0.009  -2.496  0.00  0.00    -0.047 C 
ATOM     12  H6  <0> d          -0.037   1.099  -2.490  0.00  0.00     0.035 H 
ATOM     13  H7  <0> d           0.488  -0.342  -3.393  0.00  0.00     0.035 H 
BRANCH  11  14
ATOM     14  C5  <0> d          -1.457  -0.520  -2.486  0.00  0.00    -0.075 C 
ATOM     15  H8  <0> d          -1.442  -1.610  -2.491  0.00  0.00     0.027 H 
ATOM     16  H9  <0> d          -1.967  -0.169  -1.589  0.00  0.00     0.027 H 
ATOM     17  H10 <0> d          -1.984  -0.159  -3.369  0.00  0.00     0.027 H 
ENDBRANCH  11  14
ENDBRANCH   1  11
BRANCH   1  18
ATOM     18  C6  <0> d           2.154   0.032  -1.268  0.00  0.00     0.036 C 
ATOM     19  H11 <0> d           2.664  -0.319  -2.164  0.00  0.00     0.076 H 
ATOM     20  H12 <0> d           2.139   1.122  -1.262  0.00  0.00     0.076 H 
BRANCH  18  21
ATOM     21  O1  <0> d           2.845  -0.441  -0.110  0.00  0.00    -0.399 OA
ATOM     22  H13 <0> d           3.763  -0.144  -0.051  0.00  0.00     0.209 HD
ENDBRANCH  18  21
ENDBRANCH   1  18
TORSDOF 6
