REMARK  5 active torsions:
REMARK  status: ('A' for Active; 'I' for Inactive)
REMARK    1  A    between atoms: C1_1  and  C2_2 
REMARK    2  A    between atoms: C1_1  and  O5_14 
REMARK    3  A    between atoms: C3_4  and  O4_13 
REMARK    4  A    between atoms: C4_6  and  O3_12 
REMARK    5  A    between atoms: C5_8  and  O2_11 
ROOT
ATOM      1  C2  <0> d           0.002  -0.004   0.002  0.00  0.00     0.089 C 
ATOM      2  H1  <0> d           0.597  -0.361  -0.838  0.00  0.00     0.090 H 
ATOM      3  C3  <0> d          -1.439  -0.547  -0.109  0.00  0.00     0.092 C 
ATOM      4  H2  <0> d          -2.160   0.194   0.236  0.00  0.00     0.091 H 
ATOM      5  C4  <0> d          -1.405  -1.771   0.846  0.00  0.00     0.110 C 
ATOM      6  H3  <0> d          -2.391  -1.971   1.264  0.00  0.00     0.094 H 
ATOM      7  C5  <0> d          -0.428  -1.265   1.937  0.00  0.00     0.156 C 
ATOM      8  H4  <0> d          -0.956  -0.642   2.659  0.00  0.00     0.133 H 
ATOM      9  O1  <0> d           0.556  -0.489   1.231  0.00  0.00    -0.349 OA
ENDROOT
BRANCH   1  10
ATOM     10  C1  <0> d          -0.019   1.526   0.010  0.00  0.00     0.043 C 
ATOM     11  H5  <0> d          -0.546   1.887  -0.873  0.00  0.00     0.078 H 
ATOM     12  H6  <0> d          -0.529   1.877   0.907  0.00  0.00     0.078 H 
BRANCH  10  13
ATOM     13  O5  <0> d           1.322   2.020   0.000  0.00  0.00    -0.398 OA
ATOM     14  H10 <0> d           1.385   2.985   0.005  0.00  0.00     0.209 HD
ENDBRANCH  10  13
ENDBRANCH   1  10
BRANCH   3  15
ATOM     15  O4  <0> d          -1.729  -0.950  -1.449  0.00  0.00    -0.390 OA
ATOM     16  H9  <0> d          -2.623  -1.298  -1.570  0.00  0.00     0.210 HD
ENDBRANCH   3  15
BRANCH   7  17
ATOM     17  O2  <0> d           0.193  -2.370   2.598  0.00  0.00    -0.369 OA
ATOM     18  H7  <0> d           0.815  -2.114   3.292  0.00  0.00     0.212 HD
ENDBRANCH   7  17
BRANCH   5  19
ATOM     19  O3  <0> d          -0.886  -2.926   0.184  0.00  0.00    -0.388 OA
ATOM     20  H8  <0> d          -0.846  -3.715   0.742  0.00  0.00     0.210 HD
ENDBRANCH   5  19
TORSDOF 5
