REMARK  3 active torsions:
REMARK  status: ('A' for Active; 'I' for Inactive)
REMARK    1  A    between atoms: C3_3  and  S1_8 
REMARK    2  A    between atoms: C6_6  and  N1_7 
REMARK    3  A    between atoms: S1_8  and  O2_10 
ROOT
ATOM      1  C1  <0> d          -0.218  -2.072  -1.185  0.00  0.00    -0.056 A 
ATOM      2  C2  <0> d          -0.236  -0.691  -1.174  0.00  0.00    -0.060 A 
ATOM      3  C3  <0> d           0.002  -0.004   0.002  0.00  0.00     0.059 A 
ATOM      4  C4  <0> d           0.265  -0.697   1.170  0.00  0.00    -0.060 A 
ATOM      5  C5  <0> d           0.279  -2.078   1.167  0.00  0.00    -0.056 A 
ATOM      6  C6  <0> d           0.040  -2.771  -0.013  0.00  0.00     0.025 A 
ATOM      7  H1  <0> d          -0.405  -2.607  -2.104  0.00  0.00     0.086 H 
ATOM      8  H2  <0> d          -0.437  -0.147  -2.085  0.00  0.00     0.085 H 
ATOM      9  H3  <0> d           0.455  -0.157   2.086  0.00  0.00     0.085 H 
ATOM     10  H4  <0> d           0.480  -2.618   2.080  0.00  0.00     0.086 H 
ENDROOT
BRANCH   3  11
ATOM     11  S1  <0> d          -0.022   1.758   0.012  0.00  0.00     0.187 S 
ATOM     12  O1  <0> d           1.352   2.120   0.001  0.00  0.00    -0.223 OA
BRANCH  11  13
ATOM     13  O2  <0> d          -0.485   2.112   1.418  0.00  0.00    -0.302 OA
ATOM     14  H7  <0> d          -0.593   3.166   1.712  0.00  0.00     0.230 HD
ENDBRANCH  11  13
ENDBRANCH   3  11
BRANCH   6  15
ATOM     15  N1  <0> d           0.059  -4.167  -0.021  0.00  0.00    -0.399 N 
ATOM     16  H5  <0> d           0.264  -4.720   0.908  0.00  0.00     0.156 HD
ATOM     17  H6  <0> d          -0.130  -4.715  -0.956  0.00  0.00     0.156 HD
ENDBRANCH   6  15
TORSDOF 3
