REMARK  1 active torsions:
REMARK  status: ('A' for Active; 'I' for Inactive)
REMARK    1  A    between atoms: C1_1  and  C2_2 
ROOT
ATOM      1  C2  <0> d          -0.718   1.572   1.248  0.00  0.00    -0.019 A 
ATOM      2  C3  <0> d          -0.949   2.839   1.644  0.00  0.00    -0.053 A 
ATOM      3  C4  <0> d          -1.631   3.078   2.837  0.00  0.00     0.022 A 
ATOM      4  C5  <0> d          -2.037   1.964   3.578  0.00  0.00     0.022 A 
ATOM      5  S1  <0> d          -1.449   0.614   2.562  0.00  0.00    -0.094 SA
ATOM      6  C6  <0> d          -2.715   2.203   4.774  0.00  0.00    -0.059 A 
ATOM      7  C7  <0> d          -2.950   3.470   5.167  0.00  0.00    -0.043 A 
ATOM      8  S2  <0> d          -2.219   4.428   3.854  0.00  0.00    -0.101 SA
ATOM      9  H4  <0> d          -0.609   3.666   1.038  0.00  0.00     0.087 H 
ATOM     10  H5  <0> d          -3.049   1.376   5.383  0.00  0.00     0.086 H 
ATOM     11  H6  <0> d          -3.455   3.818   6.056  0.00  0.00     0.095 H 
ENDROOT
BRANCH   1  12
ATOM     12  C1  <0> d          -0.013   1.086   0.008  0.00  0.00    -0.045 C 
ATOM     13  H1  <0> d           0.002  -0.004   0.002  0.00  0.00     0.034 H 
ATOM     14  H2  <0> d           1.010   1.463   0.000  0.00  0.00     0.034 H 
ATOM     15  H3  <0> d          -0.540   1.447  -0.875  0.00  0.00     0.034 H 
ENDBRANCH   1  12
TORSDOF 1
