REMARK  4 active torsions:
REMARK  status: ('A' for Active; 'I' for Inactive)
REMARK    1  A    between atoms: C1_1  and  C2_2 
REMARK    2  A    between atoms: C2_2  and  C7_10 
REMARK    3  A    between atoms: C4_4  and  C6_8 
REMARK    4  A    between atoms: C4_4  and  O2_9 
ROOT
ATOM      1  C2  <0> d          -1.266   2.058   0.019  0.00  0.00     0.038 C 
ATOM      2  C3  <0> d          -0.775   3.464  -0.393  0.00  0.00    -0.005 C 
ATOM      3  C4  <0> d           0.712   3.415   0.022  0.00  0.00     0.131 C 
ATOM      4  N1  <0> d           1.077   1.993   0.003  0.00  0.00    -0.329 N 
ATOM      5  C5  <0> d          -0.014   1.209   0.009  0.00  0.00     0.228 C 
ATOM      6  O1  <0> d           0.002  -0.004   0.002  0.00  0.00    -0.273 OA
ATOM      7  H4  <0> d          -1.308   4.241   0.155  0.00  0.00     0.042 H 
ATOM      8  H5  <0> d          -0.875   3.609  -1.469  0.00  0.00     0.042 H 
ATOM      9  H6  <0> d           1.989   1.663  -0.013  0.00  0.00     0.165 HD
ENDROOT
BRANCH   1  10
ATOM     10  C1  <0> d          -2.282   1.526  -0.994  0.00  0.00    -0.061 C 
ATOM     11  H1  <0> d          -2.568   0.510  -0.723  0.00  0.00     0.029 H 
ATOM     12  H2  <0> d          -3.166   2.165  -0.992  0.00  0.00     0.029 H 
ATOM     13  H3  <0> d          -1.837   1.525  -1.989  0.00  0.00     0.029 H 
ENDBRANCH   1  10
BRANCH   1  14
ATOM     14  C7  <0> d          -1.876   2.097   1.421  0.00  0.00    -0.061 C 
ATOM     15  H11 <0> d          -1.145   2.497   2.124  0.00  0.00     0.029 H 
ATOM     16  H12 <0> d          -2.761   2.733   1.415  0.00  0.00     0.029 H 
ATOM     17  H13 <0> d          -2.156   1.088   1.724  0.00  0.00     0.029 H 
ENDBRANCH   1  14
BRANCH   3  18
ATOM     18  C6  <0> d           1.567   4.195  -0.978  0.00  0.00    -0.031 C 
ATOM     19  H7  <0> d           1.425   3.783  -1.977  0.00  0.00     0.034 H 
ATOM     20  H8  <0> d           1.268   5.243  -0.971  0.00  0.00     0.034 H 
ATOM     21  H9  <0> d           2.617   4.115  -0.698  0.00  0.00     0.034 H 
ENDBRANCH   3  18
BRANCH   3  22
ATOM     22  O2  <0> d           0.876   3.949   1.338  0.00  0.00    -0.371 OA
ATOM     23  H10 <0> d           1.784   3.909   1.668  0.00  0.00     0.212 HD
ENDBRANCH   3  22
TORSDOF 4
