REMARK  0 active torsions:
REMARK  status: ('A' for Active; 'I' for Inactive)
ROOT
ATOM      1  C1  <0> d          -0.013   1.076   0.008  0.00  0.00    -0.034 A 
ATOM      2  C2  <0> d          -1.188   1.736   0.017  0.00  0.00    -0.017 A 
ATOM      3  N1  <0> d          -1.242   3.098   0.031  0.00  0.00    -0.333 N 
ATOM      4  H1  <0> d          -2.215   3.610   0.047  0.00  0.00     0.168 HD
ATOM      5  C3  <0> d          -0.116   3.841   0.024  0.00  0.00     0.258 A 
ATOM      6  O1  <0> d          -0.182   5.059   0.031  0.00  0.00    -0.267 OA
ATOM      7  C4  <0> d           1.140   3.197   0.008  0.00  0.00     0.068 A 
ATOM      8  C5  <0> d           1.197   1.799   0.000  0.00  0.00     0.092 A 
ATOM      9  O2  <0> d           2.492   1.448  -0.014  0.00  0.00    -0.322 OA
ATOM     10  C6  <0> d           3.284   2.536  -0.016  0.00  0.00     0.020 A 
ATOM     11  C7  <0> d           2.532   3.648  -0.003  0.00  0.00    -0.043 A 
ATOM     12  H2  <0> d           0.002  -0.004   0.002  0.00  0.00     0.089 H 
ATOM     13  H3  <0> d          -2.109   1.173   0.018  0.00  0.00     0.111 H 
ATOM     14  H4  <0> d           4.363   2.517  -0.026  0.00  0.00     0.123 H 
ATOM     15  H5  <0> d           2.884   4.670   0.000  0.00  0.00     0.088 H 
ENDROOT
TORSDOF 0
