REMARK  4 active torsions:
REMARK  status: ('A' for Active; 'I' for Inactive)
REMARK    1  A    between atoms: C1_1  and  C2_2 
REMARK    2  A    between atoms: C2_2  and  C3_4 
REMARK    3  A    between atoms: C2_2  and  N1_7 
REMARK    4  A    between atoms: C6_8  and  N3_12 
ROOT
ATOM      1  C2  <0> d          -2.179   0.893  -1.445  0.00  0.00     0.036 C 
ATOM      2  H1  <0> d          -2.668   0.253  -0.711  0.00  0.00     0.076 H 
ENDROOT
BRANCH   1   3
ATOM      3  C1  <0> d          -3.227   1.772  -2.132  0.00  0.00    -0.055 C 
ATOM      4  H2  <0> d          -2.738   2.412  -2.867  0.00  0.00     0.030 H 
ATOM      5  H3  <0> d          -3.960   1.139  -2.633  0.00  0.00     0.030 H 
ATOM      6  H4  <0> d          -3.728   2.390  -1.388  0.00  0.00     0.030 H 
ENDBRANCH   1   3
BRANCH   1   7
ATOM      7  C3  <0> d          -1.150   1.781  -0.743  0.00  0.00    -0.033 A 
ATOM      8  C5  <0> d          -1.136   1.773   0.788  0.00  0.00    -0.059 A 
ATOM      9  C4  <0> d          -0.013   1.086   0.008  0.00  0.00    -0.059 A 
ATOM     10  H8  <0> d          -1.859   1.135   1.295  0.00  0.00     0.033 H 
ATOM     11  H9  <0> d          -0.897   2.708   1.294  0.00  0.00     0.033 H 
ATOM     12  H6  <0> d           0.002  -0.004   0.002  0.00  0.00     0.033 H 
ATOM     13  H7  <0> d           0.964   1.569   0.001  0.00  0.00     0.033 H 
ATOM     14  H5  <0> d          -0.922   2.722  -1.243  0.00  0.00     0.043 H 
ENDBRANCH   1   7
BRANCH   1  15
ATOM     15  N1  <0> d          -1.506   0.062  -2.446  0.00  0.00    -0.250 N 
ATOM     16  N2  <0> d          -0.777   0.528  -3.548  0.00  0.00    -0.183 NA
ATOM     17  C8  <0> d          -0.323  -0.506  -4.209  0.00  0.00     0.025 A 
ATOM     18  C7  <0> d          -0.753  -1.667  -3.559  0.00  0.00    -0.021 A 
ATOM     19  H11 <0> d           0.277  -0.469  -5.106  0.00  0.00     0.117 H 
ATOM     20  C6  <0> d          -1.482  -1.290  -2.473  0.00  0.00     0.119 A 
ATOM     21  H10 <0> d          -0.544  -2.681  -3.864  0.00  0.00     0.091 H 
BRANCH  20  22
ATOM     22  N3  <0> d          -2.092  -2.141  -1.556  0.00  0.00    -0.384 N 
ATOM     23  H12 <0> d          -2.592  -1.773  -0.811  0.00  0.00     0.157 HD
ATOM     24  H13 <0> d          -2.017  -3.102  -1.662  0.00  0.00     0.157 HD
ENDBRANCH  20  22
ENDBRANCH   1  15
TORSDOF 4
