REMARK  1 active torsions:
REMARK  status: ('A' for Active; 'I' for Inactive)
REMARK    1  A    between atoms: C4_4  and  C7_7 
ROOT
ATOM      1  C1  <0> d           0.002  -0.004   0.002  0.00  0.00    -0.083 A 
ATOM      2  C2  <0> d          -0.017   1.379   0.010  0.00  0.00    -0.082 A 
ATOM      3  C3  <0> d           1.167   2.088   0.002  0.00  0.00    -0.069 A 
ATOM      4  C4  <0> d           2.384   1.407  -0.013  0.00  0.00     0.012 A 
ATOM      5  C5  <0> d           2.397   0.013  -0.021  0.00  0.00    -0.069 A 
ATOM      6  C6  <0> d           1.206  -0.685  -0.013  0.00  0.00    -0.082 A 
ATOM      7  H1  <0> d          -0.927  -0.555   0.008  0.00  0.00     0.083 H 
ATOM      8  H2  <0> d          -0.960   1.905   0.017  0.00  0.00     0.083 H 
ATOM      9  H3  <0> d           1.151   3.168   0.008  0.00  0.00     0.085 H 
ATOM     10  H4  <0> d           3.336  -0.519  -0.032  0.00  0.00     0.085 H 
ATOM     11  H5  <0> d           1.215  -1.765  -0.019  0.00  0.00     0.083 H 
ENDROOT
BRANCH   4  12
ATOM     12  C7  <0> d           3.659   2.163  -0.022  0.00  0.00     0.162 A 
ATOM     13  N3  <0> d           3.647   3.494  -0.014  0.00  0.00    -0.222 NA
ATOM     14  C9  <0> d           4.785   4.163  -0.022  0.00  0.00     0.090 A 
ATOM     15  N2  <0> d           5.937   3.513  -0.037  0.00  0.00    -0.235 NA
ATOM     16  H7  <0> d           4.775   5.243  -0.016  0.00  0.00     0.146 H 
ATOM     17  C8  <0> d           5.954   2.190  -0.044  0.00  0.00     0.090 A 
ATOM     18  N1  <0> d           4.820   1.513  -0.031  0.00  0.00    -0.222 NA
ATOM     19  H6  <0> d           6.897   1.663  -0.055  0.00  0.00     0.146 H 
ENDBRANCH   4  12
TORSDOF 1
