REMARK  2 active torsions:
REMARK  status: ('A' for Active; 'I' for Inactive)
REMARK    1  A    between atoms: C3_3  and  C4_4 
REMARK       I    between atoms: C4_4  and  N1_6 
REMARK    2  A    between atoms: N1_6  and  C5_7 
ROOT
ATOM      1  C4  <0> d           1.140   2.151   0.003  0.00  0.00     0.222 C 
ATOM      2  O1  <0> d           2.199   1.558  -0.011  0.00  0.00    -0.273 OA
ATOM      3  N1  <0> d          -0.018   1.461   0.010  0.00  0.00    -0.356 N 
ATOM      4  H6  <0> d          -0.864   1.934   0.017  0.00  0.00     0.162 HD
ENDROOT
BRANCH   1   5
ATOM      5  C3  <0> d           1.120   3.657   0.011  0.00  0.00     0.024 A 
ATOM      6  C1  <0> d           1.593   4.377  -1.254  0.00  0.00    -0.053 A 
ATOM      7  C2  <0> d           2.467   4.382   0.002  0.00  0.00    -0.053 A 
ATOM      8  H1  <0> d           1.919   3.761  -2.091  0.00  0.00     0.034 H 
ATOM      9  H2  <0> d           1.091   5.307  -1.521  0.00  0.00     0.034 H 
ATOM     10  H3  <0> d           2.540   5.315   0.561  0.00  0.00     0.034 H 
ATOM     11  H4  <0> d           3.368   3.769  -0.009  0.00  0.00     0.034 H 
ATOM     12  H5  <0> d           0.307   4.113   0.576  0.00  0.00     0.054 H 
ENDBRANCH   1   5
BRANCH   3  13
ATOM     13  C5  <0> d           0.002  -0.004   0.002  0.00  0.00     0.012 A 
ATOM     14  C7  <0> d          -1.213  -0.730   0.583  0.00  0.00    -0.044 A 
ATOM     15  C6  <0> d          -0.980  -0.719  -0.929  0.00  0.00    -0.044 A 
ATOM     16  H10 <0> d          -1.034  -1.666   1.113  0.00  0.00     0.036 H 
ATOM     17  H11 <0> d          -2.026  -0.118   0.972  0.00  0.00     0.036 H 
ATOM     18  H8  <0> d          -1.640  -0.099  -1.535  0.00  0.00     0.036 H 
ATOM     19  H9  <0> d          -0.647  -1.647  -1.394  0.00  0.00     0.036 H 
ATOM     20  H7  <0> d           0.980  -0.462   0.150  0.00  0.00     0.072 H 
ENDBRANCH   3  13
TORSDOF 2
