REMARK  2 active torsions:
REMARK  status: ('A' for Active; 'I' for Inactive)
REMARK    1  A    between atoms: C1_1  and  C2_2 
REMARK    2  A    between atoms: C9_10  and  N3_12 
ROOT
ATOM      1  C2  <0> d           0.002  -0.004   0.002  0.00  0.00     0.125 A 
ATOM      2  N1  <0> d           0.005  -0.624  -1.154  0.00  0.00    -0.233 NA
ATOM      3  C3  <0> d           0.023  -1.964  -1.207  0.00  0.00     0.072 A 
ATOM      4  C4  <0> d           0.028  -2.659  -2.424  0.00  0.00    -0.054 A 
ATOM      5  C5  <0> d           0.047  -4.022  -2.421  0.00  0.00    -0.081 A 
ATOM      6  C6  <0> d           0.062  -4.737  -1.226  0.00  0.00    -0.082 A 
ATOM      7  C7  <0> d           0.059  -4.091  -0.024  0.00  0.00    -0.067 A 
ATOM      8  C8  <0> d           0.040  -2.693   0.007  0.00  0.00     0.038 A 
ATOM      9  C9  <0> d           0.035  -1.967   1.223  0.00  0.00     0.136 A 
ATOM     10  N2  <0> d           0.022  -0.642   1.161  0.00  0.00    -0.216 NA
ATOM     11  H4  <0> d           0.015  -2.118  -3.359  0.00  0.00     0.087 H 
ATOM     12  H5  <0> d           0.050  -4.556  -3.359  0.00  0.00     0.083 H 
ATOM     13  H6  <0> d           0.077  -5.816  -1.251  0.00  0.00     0.083 H 
ATOM     14  H7  <0> d           0.070  -4.656   0.896  0.00  0.00     0.085 H 
ENDROOT
BRANCH   1  15
ATOM     15  C1  <0> d          -0.018   1.503   0.010  0.00  0.00    -0.019 C 
ATOM     16  H1  <0> d           1.004   1.880   0.003  0.00  0.00     0.037 H 
ATOM     17  H2  <0> d          -0.545   1.864  -0.873  0.00  0.00     0.037 H 
ATOM     18  H3  <0> d          -0.529   1.854   0.907  0.00  0.00     0.037 H 
ENDBRANCH   1  15
BRANCH   9  19
ATOM     19  N3  <0> d           0.050  -2.619   2.437  0.00  0.00    -0.383 N 
ATOM     20  H8  <0> d           0.064  -3.589   2.467  0.00  0.00     0.157 HD
ATOM     21  H9  <0> d           0.047  -2.109   3.262  0.00  0.00     0.157 HD
ENDBRANCH   9  19
TORSDOF 2
