REMARK  3 active torsions:
REMARK  status: ('A' for Active; 'I' for Inactive)
REMARK    1  A    between atoms: C1_1  and  C2_2 
REMARK    2  A    between atoms: C5_5  and  N1_9 
REMARK    3  A    between atoms: C7_7  and  O1_8 
ROOT
ATOM      1  C2  <0> d           0.002  -0.004   0.002  0.00  0.00    -0.027 A 
ATOM      2  C3  <0> d           0.006  -0.688  -1.200  0.00  0.00    -0.051 A 
ATOM      3  C4  <0> d           0.024  -2.069  -1.211  0.00  0.00     0.060 A 
ATOM      4  C5  <0> d           0.039  -2.775  -0.013  0.00  0.00     0.050 A 
ATOM      5  C6  <0> d           0.036  -2.089   1.194  0.00  0.00    -0.024 A 
ATOM      6  C7  <0> d           0.023  -0.703   1.200  0.00  0.00     0.073 A 
ATOM      7 Cl1  <0> d           0.029  -2.925  -2.722  0.00  0.00    -0.082 Cl
ATOM      8  H4  <0> d          -0.006  -0.141  -2.131  0.00  0.00     0.087 H 
ATOM      9  H5  <0> d           0.047  -2.635   2.126  0.00  0.00     0.091 H 
ENDROOT
BRANCH   1  10
ATOM     10  C1  <0> d          -0.018   1.503   0.010  0.00  0.00    -0.049 C 
ATOM     11  H1  <0> d           1.004   1.880   0.003  0.00  0.00     0.033 H 
ATOM     12  H2  <0> d          -0.545   1.864  -0.873  0.00  0.00     0.033 H 
ATOM     13  H3  <0> d          -0.529   1.854   0.907  0.00  0.00     0.033 H 
ENDBRANCH   1  10
BRANCH   6  14
ATOM     14  O1  <0> d           0.025  -0.029   2.381  0.00  0.00    -0.360 OA
ATOM     15  H6  <0> d          -0.857   0.154   2.731  0.00  0.00     0.217 HD
ENDBRANCH   6  14
BRANCH   4  16
ATOM     16  N1  <0> d           0.057  -4.172  -0.024  0.00  0.00    -0.398 N 
ATOM     17  H7  <0> d           0.059  -4.651  -0.868  0.00  0.00     0.156 HD
ATOM     18  H8  <0> d           0.068  -4.663   0.812  0.00  0.00     0.156 HD
ENDBRANCH   4  16
TORSDOF 3
