REMARK  1 active torsions:
REMARK  status: ('A' for Active; 'I' for Inactive)
REMARK    1  A    between atoms: C2_2  and  O3_13 
ROOT
ATOM      1  C1  <0> d           0.957  -1.080  -2.012  0.00  0.00    -0.035 C 
ATOM      2  C2  <0> d          -0.469  -1.629  -1.762  0.00  0.00     0.038 C 
ATOM      3  H1  <0> d          -0.431  -2.562  -1.201  0.00  0.00     0.083 H 
ATOM      4  C3  <0> d          -1.125  -0.505  -0.924  0.00  0.00    -0.016 C 
ATOM      5  C4  <0> d           0.002  -0.004   0.002  0.00  0.00     0.054 C 
ATOM      6  H2  <0> d          -0.073  -0.415   1.009  0.00  0.00     0.085 H 
ATOM      7  C5  <0> d           1.336  -0.399  -0.683  0.00  0.00    -0.018 C 
ATOM      8  H3  <0> d           1.965  -1.025  -0.050  0.00  0.00     0.044 H 
ATOM      9  C6  <0> d           1.981   0.975  -0.987  0.00  0.00     0.021 C 
ATOM     10  C7  <0> d           1.265   1.892   0.000  0.00  0.00     0.259 C 
ATOM     11  O1  <0> d           1.739   2.805   0.634  0.00  0.00    -0.265 OA
ATOM     12  O2  <0> d          -0.018   1.458   0.010  0.00  0.00    -0.316 OA
ATOM     13  H4  <0> d           0.950  -0.353  -2.825  0.00  0.00     0.037 H 
ATOM     14  H5  <0> d           1.647  -1.895  -2.234  0.00  0.00     0.037 H 
ATOM     15  H6  <0> d          -1.952  -0.904  -0.336  0.00  0.00     0.040 H 
ATOM     16  H7  <0> d          -1.472   0.300  -1.572  0.00  0.00     0.040 H 
ATOM     17  H8  <0> d           3.053   0.953  -0.789  0.00  0.00     0.048 H 
ATOM     18  H9  <0> d           1.784   1.278  -2.015  0.00  0.00     0.048 H 
ENDROOT
BRANCH   2  19
ATOM     19  O3  <0> d          -1.165  -1.812  -2.997  0.00  0.00    -0.395 OA
ATOM     20  H10 <0> d          -2.063  -2.154  -2.896  0.00  0.00     0.210 HD
ENDBRANCH   2  19
TORSDOF 1
