REMARK  5 active torsions:
REMARK  status: ('A' for Active; 'I' for Inactive)
REMARK    1  A    between atoms: C1_1  and  C2_2 
REMARK    2  A    between atoms: C3_3  and  C6_8 
REMARK    3  A    between atoms: C6_8  and  C7_9 
REMARK    4  A    between atoms: C7_9  and  C8_10 
REMARK    5  A    between atoms: C7_9  and  C9_11 
ROOT
ATOM      1  C6  <0> d           3.566   2.182  -0.020  0.00  0.00    -0.020 C 
ATOM      2  H6  <0> d           3.428   3.130   0.500  0.00  0.00     0.043 H 
ATOM      3  H7  <0> d           4.339   1.600   0.484  0.00  0.00     0.043 H 
ENDROOT
BRANCH   1   4
ATOM      4  C3  <0> d           2.272   1.411  -0.012  0.00  0.00     0.058 A 
ATOM      5  C2  <0> d           2.291   0.027  -0.020  0.00  0.00     0.055 A 
ATOM      6  N2  <0> d           1.155  -0.649  -0.012  0.00  0.00    -0.262 NA
ATOM      7  C5  <0> d           0.002  -0.004   0.002  0.00  0.00     0.019 A 
ATOM      8  C4  <0> d          -0.017   1.379   0.010  0.00  0.00     0.019 A 
ATOM      9  H5  <0> d          -0.926  -0.557   0.007  0.00  0.00     0.117 H 
ATOM     10  N1  <0> d           1.119   2.055   0.002  0.00  0.00    -0.262 NA
ATOM     11  H4  <0> d          -0.959   1.906   0.017  0.00  0.00     0.117 H 
BRANCH   5  12
ATOM     12  C1  <0> d           3.606  -0.709  -0.036  0.00  0.00    -0.034 C 
ATOM     13  H1  <0> d           3.913  -0.881  -1.067  0.00  0.00     0.035 H 
ATOM     14  H2  <0> d           4.362  -0.112   0.474  0.00  0.00     0.035 H 
ATOM     15  H3  <0> d           3.493  -1.665   0.474  0.00  0.00     0.035 H 
ENDBRANCH   5  12
ENDBRANCH   1   4
BRANCH   1  16
ATOM     16  C7  <0> d           3.991   2.450  -1.465  0.00  0.00    -0.056 C 
ATOM     17  H8  <0> d           3.182   2.954  -1.994  0.00  0.00     0.039 H 
BRANCH  16  18
ATOM     18  C8  <0> d           5.237   3.339  -1.473  0.00  0.00    -0.073 C 
ATOM     19  H9  <0> d           6.046   2.835  -0.944  0.00  0.00     0.028 H 
ATOM     20  H10 <0> d           5.540   3.530  -2.503  0.00  0.00     0.028 H 
ATOM     21  H11 <0> d           5.013   4.284  -0.979  0.00  0.00     0.028 H 
ENDBRANCH  16  18
BRANCH  16  22
ATOM     22  C9  <0> d           4.306   1.124  -2.159  0.00  0.00    -0.073 C 
ATOM     23  H12 <0> d           4.609   1.315  -3.188  0.00  0.00     0.028 H 
ATOM     24  H13 <0> d           5.115   0.620  -1.630  0.00  0.00     0.028 H 
ATOM     25  H14 <0> d           3.419   0.491  -2.153  0.00  0.00     0.028 H 
ENDBRANCH  16  22
ENDBRANCH   1  16
TORSDOF 5
