REMARK  6 active torsions:
REMARK  status: ('A' for Active; 'I' for Inactive)
REMARK    1  A    between atoms: C1_1  and  C2_2 
REMARK    2  A    between atoms: C2_2  and  C3_3 
REMARK    3  A    between atoms: C2_2  and  C4_4 
REMARK       I    between atoms: C4_4  and  N1_6 
REMARK    4  A    between atoms: N1_6  and  C5_7 
REMARK    5  A    between atoms: C5_7  and  C6_8 
REMARK    6  A    between atoms: C6_8  and  C7_9 
ROOT
ATOM      1  C4  <0> d          -4.380   1.810  -2.105  0.00  0.00     0.221 C 
ATOM      2  O1  <0> d          -4.149   0.993  -2.971  0.00  0.00    -0.273 OA
ATOM      3  N1  <0> d          -3.461   2.060  -1.152  0.00  0.00    -0.360 N 
ATOM      4  H8  <0> d          -3.646   2.713  -0.459  0.00  0.00     0.162 HD
ENDROOT
BRANCH   3   5
ATOM      5  C5  <0> d          -2.182   1.345  -1.162  0.00  0.00    -0.002 C 
ATOM      6  H9  <0> d          -1.658   1.552  -2.095  0.00  0.00     0.064 H 
ATOM      7  H10 <0> d          -2.365   0.274  -1.077  0.00  0.00     0.064 H 
BRANCH   5   8
ATOM      8  C6  <0> d          -1.328   1.812   0.018  0.00  0.00    -0.036 C 
ATOM      9  H11 <0> d          -1.853   1.605   0.951  0.00  0.00     0.041 H 
ATOM     10  H12 <0> d          -1.145   2.883  -0.066  0.00  0.00     0.041 H 
BRANCH   8  11
ATOM     11  C7  <0> d          -0.013   1.076   0.008  0.00  0.00    -0.110 C 
ATOM     12  C8  <0> d           1.113   1.746   0.001  0.00  0.00    -0.125 C 
ATOM     13  H14 <0> d           1.098   2.826   0.007  0.00  0.00     0.066 H 
ATOM     14  H15 <0> d           2.055   1.219  -0.011  0.00  0.00     0.066 H 
ATOM     15  H13 <0> d           0.002  -0.004   0.002  0.00  0.00     0.075 H 
ENDBRANCH   8  11
ENDBRANCH   5   8
ENDBRANCH   3   5
BRANCH   1  16
ATOM     16  C2  <0> d          -5.696   2.546  -2.095  0.00  0.00     0.017 C 
ATOM     17  H4  <0> d          -5.513   3.617  -2.179  0.00  0.00     0.053 H 
BRANCH  16  18
ATOM     18  C1  <0> d          -6.550   2.079  -3.275  0.00  0.00    -0.065 C 
ATOM     19  H1  <0> d          -6.732   1.008  -3.190  0.00  0.00     0.028 H 
ATOM     20  H2  <0> d          -7.502   2.611  -3.268  0.00  0.00     0.028 H 
ATOM     21  H3  <0> d          -6.026   2.286  -4.208  0.00  0.00     0.028 H 
ENDBRANCH  16  18
BRANCH  16  22
ATOM     22  C3  <0> d          -6.432   2.255  -0.786  0.00  0.00    -0.065 C 
ATOM     23  H5  <0> d          -6.614   1.184  -0.701  0.00  0.00     0.028 H 
ATOM     24  H6  <0> d          -5.823   2.588   0.055  0.00  0.00     0.028 H 
ATOM     25  H7  <0> d          -7.383   2.788  -0.778  0.00  0.00     0.028 H 
ENDBRANCH  16  22
ENDBRANCH   1  16
TORSDOF 6
