REMARK  2 active torsions:
REMARK  status: ('A' for Active; 'I' for Inactive)
REMARK    1  A    between atoms: C1_1  and  C2_2 
REMARK    2  A    between atoms: C2_2  and  C3_3 
ROOT
ATOM      1  C2  <0> d           0.002  -0.004   0.002  0.00  0.00    -0.009 C 
ATOM      2  H4  <0> d           0.529  -0.365   0.885  0.00  0.00     0.044 H 
ATOM      3  H5  <0> d          -1.020  -0.381   0.010  0.00  0.00     0.044 H 
ENDROOT
BRANCH   1   4
ATOM      4  C1  <0> d          -0.019   1.526   0.010  0.00  0.00    -0.070 C 
ATOM      5  H1  <0> d           1.004   1.903   0.003  0.00  0.00     0.028 H 
ATOM      6  H2  <0> d          -0.546   1.887  -0.873  0.00  0.00     0.028 H 
ATOM      7  H3  <0> d          -0.529   1.877   0.907  0.00  0.00     0.028 H 
ENDBRANCH   1   4
BRANCH   1   8
ATOM      8  C3  <0> d           0.707  -0.490  -1.238  0.00  0.00     0.158 A 
ATOM      9  N2  <0> d           2.018  -0.730  -1.341  0.00  0.00    -0.181 NA
ATOM     10  C4  <0> d           2.304  -1.145  -2.553  0.00  0.00     0.343 A 
ATOM     11  O1  <0> d           1.166  -1.170  -3.263  0.00  0.00    -0.164 OA
ATOM     12  O2  <0> d           3.530  -1.482  -3.007  0.00  0.00    -0.139 OA
ATOM     13  N1  <0> d           0.139  -0.738  -2.383  0.00  0.00    -0.108 NA
ENDBRANCH   1   8
TORSDOF 2
