REMARK  5 active torsions:
REMARK  status: ('A' for Active; 'I' for Inactive)
REMARK    1  A    between atoms: C1_1  and  C2_2 
REMARK    2  A    between atoms: C2_2  and  C3_3 
REMARK    3  A    between atoms: C2_2  and  N1_4 
REMARK    4  A    between atoms: N1_4  and  C4_5 
REMARK    5  A    between atoms: N3_9  and  C7_10 
ROOT
ATOM      1  N1  <0> d          -1.110  -0.829   0.009  0.00  0.00    -0.220 N 
ATOM      2  H8  <0> d          -2.000  -0.444   0.019  0.00  0.00     0.178 HD
ENDROOT
BRANCH   1   3
ATOM      3  C2  <0> d          -0.943  -2.285  -0.001  0.00  0.00     0.019 C 
ATOM      4  H4  <0> d          -0.059  -2.552   0.578  0.00  0.00     0.072 H 
BRANCH   3   5
ATOM      5  C1  <0> d          -2.177  -2.944   0.618  0.00  0.00    -0.057 C 
ATOM      6  H1  <0> d          -3.061  -2.676   0.038  0.00  0.00     0.030 H 
ATOM      7  H2  <0> d          -2.052  -4.027   0.611  0.00  0.00     0.030 H 
ATOM      8  H3  <0> d          -2.297  -2.599   1.644  0.00  0.00     0.030 H 
ENDBRANCH   3   5
BRANCH   3   9
ATOM      9  C3  <0> d          -0.774  -2.769  -1.442  0.00  0.00    -0.057 C 
ATOM     10  H5  <0> d           0.106  -2.299  -1.883  0.00  0.00     0.030 H 
ATOM     11  H6  <0> d          -0.649  -3.852  -1.449  0.00  0.00     0.030 H 
ATOM     12  H7  <0> d          -1.657  -2.501  -2.022  0.00  0.00     0.030 H 
ENDBRANCH   3   9
ENDBRANCH   1   3
BRANCH   1  13
ATOM     13  C4  <0> d           0.002  -0.004   0.002  0.00  0.00     0.702 A 
ATOM     14  N3  <0> d          -0.016   1.356   0.009  0.00  0.00    -0.195 N 
ATOM     15  C6  <0> d           1.294   1.777  -0.001  0.00  0.00     0.014 A 
ATOM     16  C5  <0> d           2.060   0.672  -0.014  0.00  0.00     0.036 A 
ATOM     17  H10 <0> d           1.641   2.800   0.001  0.00  0.00     0.114 H 
ATOM     18  N2  <0> d           1.252  -0.402  -0.012  0.00  0.00    -0.076 NA
ATOM     19  H9  <0> d           3.140   0.652  -0.025  0.00  0.00     0.117 H 
BRANCH  14  20
ATOM     20  C7  <0> d          -1.206   2.211   0.020  0.00  0.00     0.002 C 
ATOM     21  H11 <0> d          -1.496   2.418   1.050  0.00  0.00     0.058 H 
ATOM     22  H12 <0> d          -0.984   3.149  -0.490  0.00  0.00     0.058 H 
ATOM     23  H13 <0> d          -2.023   1.704  -0.492  0.00  0.00     0.058 H 
ENDBRANCH  14  20
ENDBRANCH   1  13
TORSDOF 5
