REMARK  7 active torsions:
REMARK  status: ('A' for Active; 'I' for Inactive)
REMARK    1  A    between atoms: C1_1  and  C2_2 
REMARK    2  A    between atoms: C2_2  and  C3_4 
REMARK    3  A    between atoms: C3_4  and  C4_5 
REMARK    4  A    between atoms: C3_4  and  C5_6 
REMARK    5  A    between atoms: C3_4  and  N1_7 
REMARK    6  A    between atoms: N1_7  and  C6_8 
REMARK    7  A    between atoms: C6_8  and  C7_9 
ROOT
ATOM      1  C7  <0> d           1.578   0.087  -4.563  0.00  0.00    -0.087 C 
ATOM      2  C8  <0> d           2.203   0.711  -5.337  0.00  0.00    -0.152 C 
ATOM      3  H13 <0> d           2.762   1.270  -6.028  0.00  0.00     0.166 H 
ENDROOT
BRANCH   1   4
ATOM      4  C6  <0> d           0.794  -0.696  -3.594  0.00  0.00     0.166 C 
ATOM      5  H11 <0> d           1.249  -1.679  -3.468  0.00  0.00     0.099 H 
ATOM      6  H12 <0> d          -0.226  -0.812  -3.960  0.00  0.00     0.099 H 
BRANCH   4   7
ATOM      7  N1  <0> d           0.775   0.003  -2.302  0.00  0.00     0.110 N 
ATOM      8  H10 <0> d           0.417   0.941  -2.404  0.00  0.00     0.318 HD
BRANCH   7   9
ATOM      9  C3  <0> d          -0.000  -0.750  -1.307  0.00  0.00     0.210 C 
BRANCH   9  10
ATOM     10  C2  <0> d           0.002  -0.004   0.002  0.00  0.00     0.160 C 
ATOM     11  O1  <0> d           0.020  -0.613   1.044  0.00  0.00    -0.296 OA
BRANCH  10  12
ATOM     12  C1  <0> d          -0.018   1.503   0.010  0.00  0.00    -0.018 C 
ATOM     13  H1  <0> d           1.004   1.880   0.003  0.00  0.00     0.037 H 
ATOM     14  H2  <0> d          -0.545   1.864  -0.873  0.00  0.00     0.037 H 
ATOM     15  H3  <0> d          -0.529   1.854   0.907  0.00  0.00     0.037 H 
ENDBRANCH  10  12
ENDBRANCH   9  10
BRANCH   9  16
ATOM     16  C4  <0> d           0.630  -2.130  -1.109  0.00  0.00    -0.036 C 
ATOM     17  H4  <0> d           0.055  -2.690  -0.370  0.00  0.00     0.031 H 
ATOM     18  H5  <0> d           0.629  -2.670  -2.055  0.00  0.00     0.031 H 
ATOM     19  H6  <0> d           1.656  -2.014  -0.758  0.00  0.00     0.031 H 
ENDBRANCH   9  16
BRANCH   9  20
ATOM     20  C5  <0> d          -1.440  -0.913  -1.799  0.00  0.00    -0.036 C 
ATOM     21  H7  <0> d          -1.889   0.070  -1.940  0.00  0.00     0.031 H 
ATOM     22  H8  <0> d          -1.441  -1.453  -2.746  0.00  0.00     0.031 H 
ATOM     23  H9  <0> d          -2.015  -1.473  -1.061  0.00  0.00     0.031 H 
ENDBRANCH   9  20
ENDBRANCH   7   9
ENDBRANCH   4   7
ENDBRANCH   1   4
TORSDOF 7
