REMARK  5 active torsions:
REMARK  status: ('A' for Active; 'I' for Inactive)
REMARK    1  A    between atoms: C3_3  and  C4_4 
REMARK    2  A    between atoms: C4_4  and  O1_5 
REMARK    3  A    between atoms: O1_5  and  C5_6 
REMARK    4  A    between atoms: C5_6  and  C6_8 
REMARK    5  A    between atoms: C6_8  and  N1_9 
ROOT
ATOM      1  C4  <0> d          -0.408  -0.709  -1.292  0.00  0.00     0.032 C 
ATOM      2  H6  <0> d          -1.398  -0.366  -1.595  0.00  0.00     0.075 H 
ATOM      3  H7  <0> d           0.312  -0.477  -2.077  0.00  0.00     0.075 H 
ENDROOT
BRANCH   1   4
ATOM      4  C3  <0> d           0.002  -0.004   0.002  0.00  0.00    -0.033 A 
ATOM      5  C1  <0> d          -0.019   1.526   0.010  0.00  0.00    -0.059 A 
ATOM      6  C2  <0> d           1.317   0.779  -0.006  0.00  0.00    -0.059 A 
ATOM      7  H1  <0> d          -0.307   2.020   0.938  0.00  0.00     0.033 H 
ATOM      8  H2  <0> d          -0.325   2.030  -0.906  0.00  0.00     0.033 H 
ATOM      9  H3  <0> d           1.889   0.792  -0.934  0.00  0.00     0.033 H 
ATOM     10  H4  <0> d           1.906   0.782   0.910  0.00  0.00     0.033 H 
ATOM     11  H5  <0> d          -0.273  -0.516   0.924  0.00  0.00     0.043 H 
ENDBRANCH   1   4
BRANCH   1  12
ATOM     12  O1  <0> d          -0.440  -2.121  -1.076  0.00  0.00    -0.320 OA
BRANCH  12  13
ATOM     13  C5  <0> d          -0.784  -2.890  -2.121  0.00  0.00     0.286 C 
ATOM     14  O2  <0> d          -1.051  -2.381  -3.184  0.00  0.00    -0.263 OA
BRANCH  13  15
ATOM     15  C6  <0> d          -0.840  -4.388  -1.969  0.00  0.00     0.188 C 
ATOM     16  H8  <0> d           0.144  -4.761  -1.681  0.00  0.00     0.094 H 
ATOM     17  H9  <0> d          -1.566  -4.649  -1.199  0.00  0.00     0.094 H 
BRANCH  15  18
ATOM     18  N1  <0> d          -1.239  -4.996  -3.245  0.00  0.00     0.087 N 
ATOM     19  H10 <0> d          -0.617  -4.717  -3.989  0.00  0.00     0.313 HD
ATOM     20  H11 <0> d          -1.283  -6.001  -3.169  0.00  0.00     0.313 HD
ENDBRANCH  15  18
ENDBRANCH  13  15
ENDBRANCH  12  13
ENDBRANCH   1  12
TORSDOF 5
