REMARK  5 active torsions:
REMARK  status: ('A' for Active; 'I' for Inactive)
REMARK    1  A    between atoms: C1_1  and  C2_2 
REMARK    2  A    between atoms: C2_2  and  C3_3 
REMARK    3  A    between atoms: C2_2  and  C4_4 
REMARK    4  A    between atoms: C2_2  and  O1_11 
REMARK    5  A    between atoms: N1_8  and  C8_9 
ROOT
ATOM      1  C4  <0> d           0.661   3.196   0.013  0.00  0.00     0.049 A 
ATOM      2  C5  <0> d           1.113   1.925   0.002  0.00  0.00    -0.056 A 
ATOM      3  C6  <0> d          -0.013   1.076   0.008  0.00  0.00    -0.066 A 
ATOM      4  C7  <0> d          -1.111   1.859   0.017  0.00  0.00    -0.015 A 
ATOM      5  N1  <0> d          -0.705   3.163   0.026  0.00  0.00    -0.334 N 
ATOM      6  H7  <0> d           2.147   1.615  -0.010  0.00  0.00     0.086 H 
ATOM      7  H8  <0> d           0.002  -0.004   0.002  0.00  0.00     0.085 H 
ATOM      8  H9  <0> d          -2.134   1.514   0.019  0.00  0.00     0.112 H 
ENDROOT
BRANCH   1   9
ATOM      9  C2  <0> d           1.515   4.437   0.011  0.00  0.00     0.093 C 
BRANCH   9  10
ATOM     10  C1  <0> d           2.993   4.039  -0.005  0.00  0.00    -0.043 C 
ATOM     11  H1  <0> d           3.201   3.454  -0.901  0.00  0.00     0.032 H 
ATOM     12  H2  <0> d           3.611   4.937  -0.006  0.00  0.00     0.032 H 
ATOM     13  H3  <0> d           3.219   3.444   0.879  0.00  0.00     0.032 H 
ENDBRANCH   9  10
BRANCH   9  14
ATOM     14  C3  <0> d           1.198   5.273  -1.230  0.00  0.00    -0.043 C 
ATOM     15  H4  <0> d           0.146   5.556  -1.218  0.00  0.00     0.032 H 
ATOM     16  H5  <0> d           1.816   6.171  -1.231  0.00  0.00     0.032 H 
ATOM     17  H6  <0> d           1.407   4.687  -2.125  0.00  0.00     0.032 H 
ENDBRANCH   9  14
BRANCH   9  18
ATOM     18  O1  <0> d           1.242   5.205   1.185  0.00  0.00    -0.384 OA
ATOM     19  H13 <0> d           0.322   5.492   1.262  0.00  0.00     0.211 HD
ENDBRANCH   9  18
ENDBRANCH   1   9
BRANCH   5  20
ATOM     20  C8  <0> d          -1.545   4.277   0.040  0.00  0.00    -0.024 C 
ATOM     21  C9  <0> d          -2.853   4.115   0.051  0.00  0.00    -0.106 C 
ATOM     22  H11 <0> d          -3.504   4.977   0.062  0.00  0.00     0.068 H 
ATOM     23  H12 <0> d          -3.275   3.121   0.050  0.00  0.00     0.068 H 
ATOM     24  H10 <0> d          -1.124   5.271   0.041  0.00  0.00     0.110 H 
ENDBRANCH   5  20
TORSDOF 5
