REMARK  6 active torsions:
REMARK  status: ('A' for Active; 'I' for Inactive)
REMARK    1  A    between atoms: C1_1  and  C2_2 
REMARK    2  A    between atoms: C2_2  and  C3_3 
REMARK    3  A    between atoms: C3_3  and  C4_4 
REMARK    4  A    between atoms: C4_4  and  C5_6 
REMARK    5  A    between atoms: C4_4  and  O2_9 
REMARK    6  A    between atoms: C5_6  and  C6_7 
ROOT
ATOM      1  C3  <0> d           2.756   5.072  -0.123  0.00  0.00    -0.041 C 
ATOM      2  H7  <0> d           2.195   5.391  -1.001  0.00  0.00     0.036 H 
ATOM      3  H8  <0> d           2.321   5.523   0.769  0.00  0.00     0.036 H 
ENDROOT
BRANCH   1   4
ATOM      4  C2  <0> d           4.214   5.516  -0.260  0.00  0.00    -0.066 C 
ATOM      5  H5  <0> d           4.774   5.198   0.619  0.00  0.00     0.032 H 
ATOM      6  H6  <0> d           4.649   5.066  -1.152  0.00  0.00     0.032 H 
BRANCH   4   7
ATOM      7  C1  <0> d           4.273   7.041  -0.378  0.00  0.00    -0.076 C 
ATOM      8  H2  <0> d           3.712   7.359  -1.256  0.00  0.00     0.027 H 
ATOM      9  H3  <0> d           3.838   7.492   0.514  0.00  0.00     0.027 H 
ATOM     10  H4  <0> d           5.312   7.357  -0.475  0.00  0.00     0.027 H 
ENDBRANCH   4   7
ENDBRANCH   1   4
BRANCH   1  11
ATOM     11  C4  <0> d           2.696   3.548  -0.005  0.00  0.00     0.044 C 
ATOM     12  H1  <0> d           3.210   3.097  -0.854  0.00  0.00     0.083 H 
BRANCH  11  13
ATOM     13  C5  <0> d           1.235   3.094   0.007  0.00  0.00     0.039 C 
ATOM     14  H9  <0> d           0.727   3.482  -0.876  0.00  0.00     0.052 H 
ATOM     15  H10 <0> d           0.744   3.473   0.904  0.00  0.00     0.052 H 
BRANCH  13  16
ATOM     16  C6  <0> d           1.177   1.588  -0.001  0.00  0.00     0.175 C 
ATOM     17  O1  <0> d           2.199   0.944  -0.014  0.00  0.00    -0.648 OA
ATOM     18  O3  <0> d          -0.011   0.963   0.007  0.00  0.00    -0.648 OA
ENDBRANCH  13  16
ENDBRANCH  11  13
BRANCH  11  19
ATOM     19  O2  <0> d           3.332   3.139   1.208  0.00  0.00    -0.395 OA
ATOM     20  H11 <0> d           2.926   3.503   2.007  0.00  0.00     0.210 HD
ENDBRANCH  11  19
ENDBRANCH   1  11
TORSDOF 6
