REMARK  1 active torsions:
REMARK  status: ('A' for Active; 'I' for Inactive)
REMARK    1  A    between atoms: C3_3  and  C6_10 
REMARK       I    between atoms: N1_5  and  C5_7 
REMARK       I    between atoms: C5_7  and  N2_9 
ROOT
ATOM      1  C1  <0> d          -0.825   1.630  -1.196  0.00  0.00    -0.048 C 
ATOM      2  C2  <0> d          -0.013   1.086   0.008  0.00  0.00    -0.035 C 
ATOM      3  C3  <0> d          -0.798   1.615   1.227  0.00  0.00     0.100 C 
ATOM      4  H1  <0> d          -0.335   2.530   1.597  0.00  0.00     0.090 H 
ATOM      5  N1  <0> d          -2.171   1.894   0.768  0.00  0.00    -0.320 N 
ATOM      6  C4  <0> d          -2.275   1.541  -0.659  0.00  0.00     0.000 C 
ATOM      7  C5  <0> d          -3.167   2.389   1.530  0.00  0.00     0.316 C 
ATOM      8  O1  <0> d          -2.967   2.645   2.701  0.00  0.00    -0.247 OA
ATOM      9  N2  <0> d          -4.384   2.602   0.992  0.00  0.00    -0.352 N 
ATOM     10  H2  <0> d          -0.553   2.663  -1.417  0.00  0.00     0.035 H 
ATOM     11  H3  <0> d          -0.694   0.998  -2.075  0.00  0.00     0.035 H 
ATOM     12  H4  <0> d           0.002  -0.004   0.002  0.00  0.00     0.036 H 
ATOM     13  H5  <0> d           1.002   1.484   0.001  0.00  0.00     0.036 H 
ATOM     14  H6  <0> d          -2.917   2.252  -1.180  0.00  0.00     0.064 H 
ATOM     15  H7  <0> d          -2.661   0.528  -0.774  0.00  0.00     0.064 H 
ATOM     16  H8  <0> d          -4.544   2.398   0.057  0.00  0.00     0.160 HD
ATOM     17  H9  <0> d          -5.101   2.958   1.540  0.00  0.00     0.160 HD
ENDROOT
BRANCH   3  18
ATOM     18  C6  <0> d          -0.819   0.572   2.315  0.00  0.00     0.197 C 
ATOM     19  O2  <0> d          -1.794  -0.125   2.465  0.00  0.00    -0.646 OA
ATOM     20  O3  <0> d           0.247   0.416   3.116  0.00  0.00    -0.646 OA
ENDBRANCH   3  18
TORSDOF 1
