REMARK  2 active torsions:
REMARK  status: ('A' for Active; 'I' for Inactive)
REMARK    1  A    between atoms: C1_1  and  C2_2 
REMARK    2  A    between atoms: C7_7  and  O2_10 
ROOT
ATOM      1  C2  <0> d           0.002  -0.004   0.002  0.00  0.00    -0.022 A 
ATOM      2  C3  <0> d           0.004  -0.592  -1.243  0.00  0.00    -0.074 A 
ATOM      3  C4  <0> d           0.020  -1.946  -1.574  0.00  0.00    -0.079 A 
ATOM      4  C5  <0> d           0.039  -3.032  -0.746  0.00  0.00    -0.032 A 
ATOM      5  C6  <0> d           0.047  -3.063   0.661  0.00  0.00     0.207 A 
ATOM      6  C7  <0> d           0.036  -1.972   1.559  0.00  0.00     0.153 A 
ATOM      7  C8  <0> d           0.022  -0.615   1.260  0.00  0.00     0.150 A 
ATOM      8  O1  <0> d           0.021   0.224   2.325  0.00  0.00    -0.188 OA
ATOM      9  O3  <0> d           0.065  -4.176   1.171  0.00  0.00    -0.285 OA
ATOM     10  H4  <0> d          -0.010   0.090  -2.079  0.00  0.00     0.084 H 
ATOM     11  H5  <0> d           0.018  -2.167  -2.631  0.00  0.00     0.083 H 
ATOM     12  H6  <0> d           0.050  -3.995  -1.236  0.00  0.00     0.089 H 
ENDROOT
BRANCH   1  13
ATOM     13  C1  <0> d          -0.018   1.503   0.010  0.00  0.00    -0.048 C 
ATOM     14  H1  <0> d           1.004   1.880   0.003  0.00  0.00     0.033 H 
ATOM     15  H2  <0> d          -0.545   1.864  -0.873  0.00  0.00     0.033 H 
ATOM     16  H3  <0> d          -0.529   1.854   0.907  0.00  0.00     0.033 H 
ENDBRANCH   1  13
BRANCH   6  17
ATOM     17  O2  <0> d           0.047  -2.289   2.877  0.00  0.00    -0.355 OA
ATOM     18  H7  <0> d           0.061  -3.240   3.053  0.00  0.00     0.218 HD
ENDBRANCH   6  17
TORSDOF 2
