REMARK  0 active torsions:
REMARK  status: ('A' for Active; 'I' for Inactive)
ROOT
ATOM      1  C1  <0> d          -0.017   1.383   0.010  0.00  0.00    -0.049 A 
ATOM      2  C2  <0> d           1.193   2.063   0.002  0.00  0.00     0.006 A 
ATOM      3  N1  <0> d           2.320   1.373  -0.013  0.00  0.00    -0.232 NA
ATOM      4  C3  <0> d           2.303   0.047  -0.020  0.00  0.00     0.231 A 
ATOM      5  N2  <0> d           1.164  -0.633  -0.013  0.00  0.00    -0.232 NA
ATOM      6  C4  <0> d           0.002  -0.004   0.002  0.00  0.00     0.006 A 
ATOM      7  C5  <0> d           3.543  -0.668  -0.035  0.00  0.00     0.141 C 
ATOM      8  N3  <0> d           4.528  -1.235  -0.048  0.00  0.00    -0.188 NA
ATOM      9  H1  <0> d          -0.952   1.923   0.026  0.00  0.00     0.087 H 
ATOM     10  H2  <0> d           1.214   3.143   0.007  0.00  0.00     0.114 H 
ATOM     11  H3  <0> d          -0.922  -0.563   0.008  0.00  0.00     0.114 H 
ENDROOT
TORSDOF 0
