REMARK  4 active torsions:
REMARK  status: ('A' for Active; 'I' for Inactive)
REMARK    1  A    between atoms: C1_1  and  C2_2 
REMARK    2  A    between atoms: C2_2  and  C3_3 
REMARK    3  A    between atoms: C2_2  and  O1_4 
REMARK    4  A    between atoms: O1_4  and  C4_5 
ROOT
ATOM      1  C2  <0> d           0.002  -0.004   0.002  0.00  0.00     0.040 C 
ATOM      2  H4  <0> d          -1.020  -0.381   0.010  0.00  0.00     0.083 H 
ENDROOT
BRANCH   1   3
ATOM      3  C1  <0> d          -0.019   1.526   0.010  0.00  0.00    -0.052 C 
ATOM      4  H1  <0> d           1.004   1.903   0.003  0.00  0.00     0.030 H 
ATOM      5  H2  <0> d          -0.546   1.887  -0.873  0.00  0.00     0.030 H 
ATOM      6  H3  <0> d          -0.529   1.877   0.907  0.00  0.00     0.030 H 
ENDBRANCH   1   3
BRANCH   1   7
ATOM      7  C3  <0> d           0.718  -0.497  -1.257  0.00  0.00    -0.052 C 
ATOM      8  H5  <0> d           1.741  -0.120  -1.264  0.00  0.00     0.030 H 
ATOM      9  H6  <0> d           0.733  -1.587  -1.263  0.00  0.00     0.030 H 
ATOM     10  H7  <0> d           0.191  -0.136  -2.140  0.00  0.00     0.030 H 
ENDBRANCH   1   7
BRANCH   1  11
ATOM     11  O1  <0> d           0.693  -0.477   1.160  0.00  0.00    -0.324 OA
BRANCH  11  12
ATOM     12  C4  <0> d          -0.049  -0.699   2.272  0.00  0.00     0.208 A 
ATOM     13  S1  <0> d           0.462  -1.250   3.778  0.00  0.00    -0.055 SA
ATOM     14  C6  <0> d          -1.125  -1.238   4.597  0.00  0.00    -0.024 A 
ATOM     15  C5  <0> d          -1.924  -0.802   3.593  0.00  0.00     0.012 A 
ATOM     16  H9  <0> d          -1.379  -1.507   5.611  0.00  0.00     0.097 H 
ATOM     17  N1  <0> d          -1.344  -0.540   2.435  0.00  0.00    -0.230 NA
ATOM     18  H8  <0> d          -2.987  -0.673   3.733  0.00  0.00     0.115 H 
ENDBRANCH  11  12
ENDBRANCH   1  11
TORSDOF 4
