REMARK  2 active torsions:
REMARK  status: ('A' for Active; 'I' for Inactive)
REMARK    1  A    between atoms: C1_1  and  C2_2 
REMARK    2  A    between atoms: C5_6  and  C7_8 
ROOT
ATOM      1  C2  <0> d           2.376   1.369  -0.013  0.00  0.00    -0.058 A 
ATOM      2  C3  <0> d           1.161   2.040   0.002  0.00  0.00    -0.060 A 
ATOM      3  C4  <0> d          -0.016   1.313   0.009  0.00  0.00     0.003 A 
ATOM      4  N1  <0> d           0.002  -0.004   0.002  0.00  0.00    -0.261 NA
ATOM      5  C5  <0> d           1.143  -0.684  -0.013  0.00  0.00     0.056 A 
ATOM      6  C6  <0> d           2.367  -0.015  -0.021  0.00  0.00    -0.050 A 
ATOM      7  H4  <0> d           1.134   3.119   0.008  0.00  0.00     0.086 H 
ATOM      8  H5  <0> d          -0.963   1.833   0.017  0.00  0.00     0.114 H 
ATOM      9  H6  <0> d           3.294  -0.569  -0.033  0.00  0.00     0.087 H 
ENDROOT
BRANCH   5  10
ATOM     10  C7  <0> d           1.115  -2.162  -0.020  0.00  0.00    -0.064 C 
ATOM     11  C8  <0> d          -0.046  -2.803  -0.012  0.00  0.00    -0.119 C 
ATOM     12  H8  <0> d          -0.066  -3.903  -0.017  0.00  0.00     0.066 H 
ATOM     13  H9  <0> d          -0.988  -2.235   0.000  0.00  0.00     0.066 H 
ATOM     14  H7  <0> d           2.057  -2.729  -0.032  0.00  0.00     0.085 H 
ENDBRANCH   5  10
BRANCH   1  15
ATOM     15  C1  <0> d           3.676   2.130  -0.022  0.00  0.00    -0.051 C 
ATOM     16  H1  <0> d           3.468   3.211  -0.014  0.00  0.00     0.033 H 
ATOM     17  H2  <0> d           4.246   1.873  -0.927  0.00  0.00     0.033 H 
ATOM     18  H3  <0> d           4.263   1.863   0.869  0.00  0.00     0.033 H 
ENDBRANCH   1  15
TORSDOF 2
