REMARK  1 active torsions:
REMARK  status: ('A' for Active; 'I' for Inactive)
REMARK    1  A    between atoms: C3_3  and  C7_9 
ROOT
ATOM      1  C7  <0> d          -1.332   2.113   0.020  0.00  0.00     0.041 C 
ATOM      2  C8  <0> d          -1.636   2.555   1.390  0.00  0.00     0.063 C 
ATOM      3  N1  <0> d          -1.871   2.897   2.448  0.00  0.00    -0.197 NA
ATOM      4  H4  <0> d          -1.268   2.981  -0.636  0.00  0.00     0.062 H 
ATOM      5  H5  <0> d          -2.122   1.449  -0.332  0.00  0.00     0.062 H 
ENDROOT
BRANCH   1   6
ATOM      6  C3  <0> d          -0.017   1.378   0.010  0.00  0.00    -0.006 A 
ATOM      7  C2  <0> d           0.002  -0.004   0.002  0.00  0.00    -0.070 A 
ATOM      8  C1  <0> d           1.208  -0.680  -0.014  0.00  0.00    -0.045 A 
ATOM      9  H2  <0> d          -0.926  -0.556   0.008  0.00  0.00     0.084 H 
ATOM     10  C6  <0> d           2.398   0.027  -0.021  0.00  0.00     0.119 A 
ATOM     11  H1  <0> d           1.221  -1.760  -0.020  0.00  0.00     0.088 H 
ATOM     12  C5  <0> d           2.381   1.411  -0.013  0.00  0.00    -0.008 A 
ATOM     13  F1  <0> d           3.576  -0.634  -0.036  0.00  0.00    -0.206 F 
ATOM     14  C4  <0> d           1.173   2.087   0.002  0.00  0.00     0.126 A 
ATOM     15  H3  <0> d           3.309   1.964  -0.019  0.00  0.00     0.093 H 
ATOM     16  F2  <0> d           1.154   3.438   0.009  0.00  0.00    -0.205 F 
ENDBRANCH   1   6
TORSDOF 1
