REMARK  4 active torsions:
REMARK  status: ('A' for Active; 'I' for Inactive)
REMARK    1  A    between atoms: C2_2  and  C4_7 
REMARK    2  A    between atoms: C4_7  and  C5_8 
REMARK    3  A    between atoms: C5_8  and  C6_10 
REMARK    4  A    between atoms: C5_8  and  O2_12 
ROOT
ATOM      1  C4  <0> d          -2.559   1.303   0.019  0.00  0.00     0.008 C 
ATOM      2  H5  <0> d          -3.164   1.996  -0.564  0.00  0.00     0.046 H 
ATOM      3  H6  <0> d          -2.622   0.307  -0.420  0.00  0.00     0.046 H 
ENDROOT
BRANCH   1   4
ATOM      4  C2  <0> d          -1.124   1.763   0.016  0.00  0.00     0.030 A 
ATOM      5  C1  <0> d          -0.690   3.038   0.025  0.00  0.00     0.025 A 
ATOM      6  N2  <0> d           0.651   3.020   0.012  0.00  0.00    -0.254 NA
ATOM      7  H3  <0> d          -1.312   3.920   0.035  0.00  0.00     0.117 H 
ATOM      8  C3  <0> d           1.065   1.782   0.002  0.00  0.00     0.063 A 
ATOM      9  N1  <0> d          -0.011   0.966   0.007  0.00  0.00    -0.353 N 
ATOM     10  H4  <0> d           2.097   1.463  -0.011  0.00  0.00     0.143 H 
ATOM     11  H1  <0> d           0.003  -0.034   0.006  0.00  0.00     0.166 HD
ENDBRANCH   1   4
BRANCH   1  12
ATOM     12  C5  <0> d          -3.077   1.258   1.458  0.00  0.00     0.124 C 
ATOM     13  H2  <0> d          -2.932   2.232   1.927  0.00  0.00     0.100 H 
BRANCH  12  14
ATOM     14  C6  <0> d          -4.545   0.917   1.453  0.00  0.00     0.203 C 
ATOM     15  O1  <0> d          -4.926  -0.120   1.941  0.00  0.00    -0.646 OA
ATOM     16  O3  <0> d          -5.429   1.766   0.906  0.00  0.00    -0.646 OA
ENDBRANCH  12  14
BRANCH  12  17
ATOM     17  O2  <0> d          -2.360   0.264   2.192  0.00  0.00    -0.384 OA
ATOM     18  H7  <0> d          -2.444  -0.629   1.831  0.00  0.00     0.210 HD
ENDBRANCH  12  17
ENDBRANCH   1  12
TORSDOF 4
