REMARK  4 active torsions:
REMARK  status: ('A' for Active; 'I' for Inactive)
REMARK    1  A    between atoms: C1_1  and  C2_2 
REMARK    2  A    between atoms: C3_3  and  C5_8 
REMARK    3  A    between atoms: C5_8  and  O2_10 
REMARK    4  A    between atoms: O2_10  and  C6_11 
ROOT
ATOM      1  C2  <0> d           2.132   0.717  -0.014  0.00  0.00     0.041 A 
ATOM      2  C3  <0> d           1.352  -0.423  -0.013  0.00  0.00     0.082 A 
ATOM      3  C4  <0> d           0.002  -0.004   0.002  0.00  0.00     0.039 A 
ATOM      4  N1  <0> d          -0.016   1.300   0.009  0.00  0.00    -0.186 NA
ATOM      5  N2  <0> d           1.302   1.772  -0.001  0.00  0.00    -0.282 N 
ATOM      6  H1  <0> d           1.578   2.733   0.002  0.00  0.00     0.189 HD
ATOM      7  H5  <0> d          -0.863  -0.651   0.007  0.00  0.00     0.119 H 
ENDROOT
BRANCH   2   8
ATOM      8  C5  <0> d           1.836  -1.814  -0.026  0.00  0.00     0.296 C 
ATOM      9  O1  <0> d           3.030  -2.042  -0.039  0.00  0.00    -0.259 OA
BRANCH   8  10
ATOM     10  O2  <0> d           0.955  -2.834  -0.023  0.00  0.00    -0.322 OA
BRANCH  10  11
ATOM     11  C6  <0> d           1.504  -4.178  -0.036  0.00  0.00     0.013 C 
ATOM     12  H6  <0> d           0.690  -4.903  -0.033  0.00  0.00     0.067 H 
ATOM     13  H7  <0> d           2.108  -4.315  -0.933  0.00  0.00     0.067 H 
ATOM     14  H8  <0> d           2.126  -4.326   0.847  0.00  0.00     0.067 H 
ENDBRANCH  10  11
ENDBRANCH   8  10
ENDBRANCH   2   8
BRANCH   1  15
ATOM     15  C1  <0> d           3.638   0.767  -0.029  0.00  0.00    -0.035 C 
ATOM     16  H2  <0> d           3.991   0.785  -1.060  0.00  0.00     0.035 H 
ATOM     17  H3  <0> d           3.977   1.666   0.486  0.00  0.00     0.035 H 
ATOM     18  H4  <0> d           4.036  -0.113   0.476  0.00  0.00     0.035 H 
ENDBRANCH   1  15
TORSDOF 4
