REMARK  2 active torsions:
REMARK  status: ('A' for Active; 'I' for Inactive)
REMARK    1  A    between atoms: C2_2  and  N3_12 
REMARK    2  A    between atoms: C4_4  and  O1_11 
ROOT
ATOM      1  C1  <0> d           3.535   0.794  -0.028  0.00  0.00    -0.029 A 
ATOM      2  C2  <0> d           4.084   2.064  -0.027  0.00  0.00     0.030 A 
ATOM      3  C3  <0> d           3.262   3.190  -0.014  0.00  0.00    -0.025 A 
ATOM      4  C4  <0> d           1.891   3.053  -0.000  0.00  0.00     0.081 A 
ATOM      5  C5  <0> d           1.319   1.768  -0.001  0.00  0.00     0.044 A 
ATOM      6  C6  <0> d           2.153   0.635  -0.015  0.00  0.00     0.066 A 
ATOM      7  N1  <0> d           1.326  -0.460  -0.013  0.00  0.00    -0.278 N 
ATOM      8  H1  <0> d           1.618  -1.416  -0.021  0.00  0.00     0.189 HD
ATOM      9  N2  <0> d           0.002  -0.004   0.002  0.00  0.00    -0.186 NA
ATOM     10  C7  <0> d          -0.016   1.297   0.009  0.00  0.00     0.036 A 
ATOM     11  H2  <0> d           4.179  -0.073  -0.039  0.00  0.00     0.090 H 
ATOM     12  H3  <0> d           3.702   4.176  -0.014  0.00  0.00     0.091 H 
ATOM     13  H4  <0> d          -0.901   1.915   0.017  0.00  0.00     0.118 H 
ENDROOT
BRANCH   2  14
ATOM     14  N3  <0> d           5.472   2.219  -0.040  0.00  0.00    -0.399 N 
ATOM     15  H6  <0> d           6.047   1.438  -0.050  0.00  0.00     0.156 HD
ATOM     16  H7  <0> d           5.861   3.108  -0.040  0.00  0.00     0.156 HD
ENDBRANCH   2  14
BRANCH   4  17
ATOM     17  O1  <0> d           1.095   4.153   0.013  0.00  0.00    -0.360 OA
ATOM     18  H5  <0> d           0.856   4.476  -0.866  0.00  0.00     0.217 HD
ENDBRANCH   4  17
TORSDOF 2
