REMARK  2 active torsions:
REMARK  status: ('A' for Active; 'I' for Inactive)
REMARK    1  A    between atoms: C1_1  and  C2_2 
REMARK    2  A    between atoms: N1_4  and  C4_7 
ROOT
ATOM      1  C4  <0> d           1.177   2.086   0.002  0.00  0.00     0.059 A 
ATOM      2  C5  <0> d          -0.017   1.377   0.010  0.00  0.00    -0.055 A 
ATOM      3  C6  <0> d           0.002  -0.004   0.002  0.00  0.00    -0.081 A 
ATOM      4  C7  <0> d           1.208  -0.680  -0.013  0.00  0.00    -0.083 A 
ATOM      5  C8  <0> d           2.398   0.023  -0.021  0.00  0.00    -0.081 A 
ATOM      6  C9  <0> d           2.386   1.404  -0.013  0.00  0.00    -0.055 A 
ATOM      7  H5  <0> d          -0.959   1.905   0.017  0.00  0.00     0.087 H 
ATOM      8  H6  <0> d          -0.926  -0.556   0.008  0.00  0.00     0.083 H 
ATOM      9  H7  <0> d           1.220  -1.760  -0.019  0.00  0.00     0.083 H 
ATOM     10  H8  <0> d           3.339  -0.508  -0.033  0.00  0.00     0.083 H 
ATOM     11  H9  <0> d           3.316   1.953  -0.018  0.00  0.00     0.087 H 
ENDROOT
BRANCH   1  12
ATOM     12  N1  <0> d           1.161   3.488   0.009  0.00  0.00    -0.225 N 
ATOM     13  C3  <0> d           2.254   4.300   0.003  0.00  0.00     0.031 A 
ATOM     14  C2  <0> d           1.779   5.567   0.014  0.00  0.00     0.072 A 
ATOM     15  H4  <0> d           3.290   3.994  -0.008  0.00  0.00     0.118 H 
ATOM     16  N3  <0> d           0.445   5.474   0.026  0.00  0.00    -0.135 NA
ATOM     17  N2  <0> d           0.110   4.232   0.017  0.00  0.00    -0.061 NA
BRANCH  14  18
ATOM     18  C1  <0> d           2.594   6.835   0.013  0.00  0.00    -0.032 C 
ATOM     19  H1  <0> d           2.780   7.146  -1.015  0.00  0.00     0.035 H 
ATOM     20  H2  <0> d           2.046   7.619   0.536  0.00  0.00     0.035 H 
ATOM     21  H3  <0> d           3.544   6.657   0.517  0.00  0.00     0.035 H 
ENDBRANCH  14  18
ENDBRANCH   1  12
TORSDOF 2
