REMARK  0 active torsions:
REMARK  status: ('A' for Active; 'I' for Inactive)
ROOT
ATOM      1  C1  <0> d          -2.403  -0.041   0.025  0.00  0.00    -0.079 A 
ATOM      2  C2  <0> d          -2.466   1.347   0.033  0.00  0.00    -0.062 A 
ATOM      3  C3  <0> d          -1.302   2.105   0.032  0.00  0.00     0.057 A 
ATOM      4  C4  <0> d          -0.017   1.411   0.010  0.00  0.00     0.013 A 
ATOM      5  C5  <0> d           1.197   2.114   0.002  0.00  0.00    -0.068 A 
ATOM      6  C6  <0> d           2.359   1.392  -0.012  0.00  0.00    -0.065 A 
ATOM      7  C7  <0> d           2.310  -0.000  -0.019  0.00  0.00     0.003 A 
ATOM      8  N1  <0> d           1.172  -0.651  -0.012  0.00  0.00    -0.260 NA
ATOM      9  C8  <0> d           0.002  -0.004   0.002  0.00  0.00     0.068 A 
ATOM     10  C9  <0> d          -1.216  -0.706   0.010  0.00  0.00    -0.054 A 
ATOM     11  C10 <0> d          -1.361   3.535   0.040  0.00  0.00     0.100 C 
ATOM     12  N2  <0> d          -1.408   4.670   0.047  0.00  0.00    -0.191 NA
ATOM     13  H1  <0> d          -3.322  -0.608   0.030  0.00  0.00     0.083 H 
ATOM     14  H2  <0> d          -3.427   1.840   0.045  0.00  0.00     0.085 H 
ATOM     15  H3  <0> d           1.214   3.194   0.007  0.00  0.00     0.085 H 
ATOM     16  H4  <0> d           3.312   1.900  -0.018  0.00  0.00     0.085 H 
ATOM     17  H5  <0> d           3.235  -0.558  -0.030  0.00  0.00     0.114 H 
ATOM     18  H6  <0> d          -1.210  -1.786   0.004  0.00  0.00     0.087 H 
ENDROOT
TORSDOF 0
