REMARK  4 active torsions:
REMARK  status: ('A' for Active; 'I' for Inactive)
REMARK    1  A    between atoms: C1_1  and  C2_2 
REMARK    2  A    between atoms: C1_1  and  C4_5 
REMARK    3  A    between atoms: C2_2  and  C3_3 
REMARK    4  A    between atoms: C3_3  and  O1_4 
ROOT
ATOM      1  C4  <0> d           1.417   2.055  -0.000  0.00  0.00     0.015 C 
ATOM      2  C5  <0> d           1.397   3.527   0.008  0.00  0.00     0.059 C 
ATOM      3  N1  <0> d           1.381   4.663   0.014  0.00  0.00    -0.197 NA
ATOM      4  H8  <0> d           1.944   1.694   0.883  0.00  0.00     0.054 H 
ATOM      5  H9  <0> d           1.927   1.704  -0.897  0.00  0.00     0.054 H 
ENDROOT
BRANCH   1   6
ATOM      6  C1  <0> d          -0.019   1.526   0.010  0.00  0.00    -0.052 C 
ATOM      7  H1  <0> d          -0.546   1.887  -0.873  0.00  0.00     0.034 H 
ATOM      8  H2  <0> d          -0.529   1.877   0.907  0.00  0.00     0.034 H 
BRANCH   6   9
ATOM      9  C2  <0> d           0.002  -0.004   0.002  0.00  0.00    -0.044 C 
ATOM     10  H3  <0> d           0.512  -0.356  -0.895  0.00  0.00     0.036 H 
ATOM     11  H4  <0> d           0.529  -0.365   0.885  0.00  0.00     0.036 H 
BRANCH   9  12
ATOM     12  C3  <0> d          -1.433  -0.534   0.013  0.00  0.00     0.017 C 
ATOM     13  H5  <0> d          -1.944  -0.182   0.910  0.00  0.00     0.073 H 
ATOM     14  H6  <0> d          -1.960  -0.173  -0.870  0.00  0.00     0.073 H 
BRANCH  12  15
ATOM     15  O1  <0> d          -1.414  -1.962   0.005  0.00  0.00    -0.401 OA
ATOM     16  H7  <0> d          -2.292  -2.368   0.011  0.00  0.00     0.209 HD
ENDBRANCH  12  15
ENDBRANCH   9  12
ENDBRANCH   6   9
ENDBRANCH   1   6
TORSDOF 4
