REMARK  1 active torsions:
REMARK  status: ('A' for Active; 'I' for Inactive)
REMARK    1  A    between atoms: C1_1  and  C2_2 
ROOT
ATOM      1  C2  <0> d          -0.799   1.616   1.233  0.00  0.00     0.058 C 
ATOM      2  H1  <0> d          -0.522   2.646   1.459  0.00  0.00     0.086 H 
ATOM      3  C3  <0> d          -0.013   1.086   0.008  0.00  0.00     0.046 C 
ATOM      4  O1  <0> d          -0.766   1.591  -1.112  0.00  0.00    -0.364 OA
ATOM      5  C4  <0> d          -2.090   1.877  -0.641  0.00  0.00     0.103 C 
ATOM      6  O2  <0> d          -2.168   1.538   0.753  0.00  0.00    -0.360 OA
ATOM      7  H5  <0> d           0.002  -0.004   0.002  0.00  0.00     0.078 H 
ATOM      8  H6  <0> d           1.002   1.484   0.001  0.00  0.00     0.078 H 
ATOM      9  H7  <0> d          -2.305   2.937  -0.774  0.00  0.00     0.117 H 
ATOM     10  H8  <0> d          -2.814   1.284  -1.201  0.00  0.00     0.117 H 
ENDROOT
BRANCH   1  11
ATOM     11  C1  <0> d          -0.589   0.715   2.451  0.00  0.00    -0.050 C 
ATOM     12  H2  <0> d           0.471   0.685   2.702  0.00  0.00     0.031 H 
ATOM     13  H3  <0> d          -1.152   1.109   3.297  0.00  0.00     0.031 H 
ATOM     14  H4  <0> d          -0.936  -0.293   2.222  0.00  0.00     0.031 H 
ENDBRANCH   1  11
TORSDOF 1
