REMARK  1 active torsions:
REMARK  status: ('A' for Active; 'I' for Inactive)
REMARK    1  A    between atoms: C4_4  and  N1_7 
REMARK       I    between atoms: N1_7  and  C7_8 
REMARK       I    between atoms: C7_8  and  N2_10 
ROOT
ATOM      1  C1  <0> d          -0.068   4.162   0.006  0.00  0.00    -0.083 A 
ATOM      2  C2  <0> d           1.142   3.492  -0.001  0.00  0.00    -0.081 A 
ATOM      3  C3  <0> d           1.169   2.111  -0.002  0.00  0.00    -0.057 A 
ATOM      4  C4  <0> d          -0.021   1.395   0.003  0.00  0.00     0.036 A 
ATOM      5  C5  <0> d          -1.235   2.071   0.005  0.00  0.00    -0.057 A 
ATOM      6  C6  <0> d          -1.254   3.452   0.011  0.00  0.00    -0.081 A 
ATOM      7  H1  <0> d          -0.086   5.242   0.007  0.00  0.00     0.083 H 
ATOM      8  H2  <0> d           2.067   4.049  -0.004  0.00  0.00     0.083 H 
ATOM      9  H3  <0> d           2.114   1.589  -0.008  0.00  0.00     0.086 H 
ATOM     10  H4  <0> d          -2.162   1.517   0.004  0.00  0.00     0.086 H 
ATOM     11  H5  <0> d          -2.198   3.978   0.016  0.00  0.00     0.083 H 
ENDROOT
BRANCH   4  12
ATOM     12  N1  <0> d           0.002  -0.004   0.002  0.00  0.00    -0.309 N 
ATOM     13  C7  <0> d          -0.938  -0.695   0.677  0.00  0.00     0.318 C 
ATOM     14  O1  <0> d          -1.855  -0.105   1.216  0.00  0.00    -0.247 OA
ATOM     15  N2  <0> d          -0.863  -2.038   0.753  0.00  0.00    -0.352 N 
ATOM     16  H7  <0> d          -0.132  -2.508   0.323  0.00  0.00     0.160 HD
ATOM     17  H8  <0> d          -1.540  -2.535   1.239  0.00  0.00     0.160 HD
ATOM     18  H6  <0> d           0.695  -0.477  -0.485  0.00  0.00     0.170 HD
ENDBRANCH   4  12
TORSDOF 1
