REMARK  4 active torsions:
REMARK  status: ('A' for Active; 'I' for Inactive)
REMARK    1  A    between atoms: C1_1  and  C2_2 
REMARK    2  A    between atoms: C2_2  and  C3_4 
REMARK    3  A    between atoms: C2_2  and  C5_7 
REMARK    4  A    between atoms: C3_4  and  C4_5 
ROOT
ATOM      1  C2  <0> d          -0.013   1.086   0.008  0.00  0.00     0.046 C 
ATOM      2  H1  <0> d           0.002  -0.004   0.002  0.00  0.00     0.053 H 
ENDROOT
BRANCH   1   3
ATOM      3  C1  <0> d          -0.729   1.579   1.267  0.00  0.00    -0.064 C 
ATOM      4  H2  <0> d          -1.751   1.202   1.275  0.00  0.00     0.028 H 
ATOM      5  H3  <0> d          -0.202   1.218   2.150  0.00  0.00     0.028 H 
ATOM      6  H4  <0> d          -0.744   2.669   1.273  0.00  0.00     0.028 H 
ENDBRANCH   1   3
BRANCH   1   7
ATOM      7  C3  <0> d           1.423   1.615  -0.003  0.00  0.00     0.027 C 
ATOM      8  H5  <0> d           1.905   1.339  -0.940  0.00  0.00     0.050 H 
ATOM      9  H6  <0> d           1.410   2.701   0.093  0.00  0.00     0.050 H 
BRANCH   7  10
ATOM     10  C4  <0> d           2.187   1.018   1.151  0.00  0.00     0.173 C 
ATOM     11  O1  <0> d           1.640   0.248   1.904  0.00  0.00    -0.648 OA
ATOM     12  O2  <0> d           3.476   1.342   1.341  0.00  0.00    -0.648 OA
ENDBRANCH   7  10
ENDBRANCH   1   7
BRANCH   1  13
ATOM     13  C5  <0> d          -0.753   1.593  -1.232  0.00  0.00     0.391 C 
ATOM     14  F1  <0> d          -0.098   1.141  -2.382  0.00  0.00    -0.171 F 
ATOM     15  F2  <0> d          -2.065   1.108  -1.222  0.00  0.00    -0.171 F 
ATOM     16  F3  <0> d          -0.772   2.991  -1.224  0.00  0.00    -0.171 F 
ENDBRANCH   1  13
TORSDOF 4
