REMARK  3 active torsions:
REMARK  status: ('A' for Active; 'I' for Inactive)
REMARK    1  A    between atoms: C1_1  and  C2_2 
REMARK    2  A    between atoms: C2_2  and  C10_11 
REMARK    3  A    between atoms: C6_6  and  C9_10 
ROOT
ATOM      1  C2  <0> d           0.002  -0.004   0.002  0.00  0.00     0.058 C 
ATOM      2  C3  <0> d          -1.436  -0.535   0.018  0.00  0.00    -0.025 C 
ATOM      3  C4  <0> d          -1.396  -2.068   0.030  0.00  0.00    -0.056 C 
ATOM      4  C5  <0> d          -0.579  -2.531   1.241  0.00  0.00    -0.036 C 
ATOM      5  C6  <0> d          -0.098  -1.303   2.018  0.00  0.00     0.058 C 
ATOM      6  O1  <0> d           0.693  -0.478   1.160  0.00  0.00    -0.370 OA
ATOM      7  C7  <0> d          -1.313  -0.508   2.507  0.00  0.00    -0.036 C 
ATOM      8  C8  <0> d          -2.129  -0.046   1.295  0.00  0.00    -0.056 C 
ATOM      9  H4  <0> d          -1.975  -0.176  -0.858  0.00  0.00     0.044 H 
ATOM     10  H5  <0> d          -2.410  -2.460   0.102  0.00  0.00     0.033 H 
ATOM     11  H6  <0> d          -0.927  -2.428  -0.886  0.00  0.00     0.033 H 
ATOM     12  H7  <0> d          -1.203  -3.150   1.886  0.00  0.00     0.037 H 
ATOM     13  H8  <0> d           0.281  -3.108   0.901  0.00  0.00     0.037 H 
ATOM     14  H9  <0> d          -1.931  -1.142   3.143  0.00  0.00     0.037 H 
ATOM     15  H10 <0> d          -0.976   0.361   3.073  0.00  0.00     0.037 H 
ATOM     16  H11 <0> d          -2.186   1.042   1.286  0.00  0.00     0.033 H 
ATOM     17  H12 <0> d          -3.133  -0.466   1.350  0.00  0.00     0.033 H 
ENDROOT
BRANCH   1  18
ATOM     18  C1  <0> d          -0.019   1.526   0.010  0.00  0.00    -0.048 C 
ATOM     19  H1  <0> d           1.004   1.903   0.003  0.00  0.00     0.031 H 
ATOM     20  H2  <0> d          -0.546   1.887  -0.873  0.00  0.00     0.031 H 
ATOM     21  H3  <0> d          -0.529   1.877   0.907  0.00  0.00     0.031 H 
ENDBRANCH   1  18
BRANCH   1  22
ATOM     22  C10 <0> d           0.716  -0.498  -1.258  0.00  0.00    -0.048 C 
ATOM     23  H16 <0> d           1.739  -0.121  -1.267  0.00  0.00     0.031 H 
ATOM     24  H17 <0> d           0.731  -1.588  -1.263  0.00  0.00     0.031 H 
ATOM     25  H18 <0> d           0.188  -0.138  -2.140  0.00  0.00     0.031 H 
ENDBRANCH   1  22
BRANCH   5  26
ATOM     26  C9  <0> d           0.743  -1.751   3.215  0.00  0.00    -0.048 C 
ATOM     27  H13 <0> d           1.605  -2.317   2.862  0.00  0.00     0.031 H 
ATOM     28  H14 <0> d           1.085  -0.876   3.767  0.00  0.00     0.031 H 
ATOM     29  H15 <0> d           0.138  -2.380   3.869  0.00  0.00     0.031 H 
ENDBRANCH   5  26
TORSDOF 3
