REMARK  3 active torsions:
REMARK  status: ('A' for Active; 'I' for Inactive)
REMARK    1  A    between atoms: C1_1  and  C2_2 
REMARK    2  A    between atoms: C2_2  and  C3_4 
REMARK    3  A    between atoms: N1_8  and  C7_9 
ROOT
ATOM      1  C3  <0> d          -0.742   3.169   0.026  0.00  0.00     0.079 A 
ATOM      2  C4  <0> d           0.642   3.203   0.013  0.00  0.00    -0.052 A 
ATOM      3  C5  <0> d           1.081   1.878   0.002  0.00  0.00    -0.066 A 
ATOM      4  C6  <0> d          -0.013   1.076   0.008  0.00  0.00    -0.020 A 
ATOM      5  N1  <0> d          -1.121   1.843   0.017  0.00  0.00    -0.358 N 
ATOM      6  H4  <0> d           1.263   4.086   0.012  0.00  0.00     0.087 H 
ATOM      7  H5  <0> d           2.110   1.549  -0.009  0.00  0.00     0.085 H 
ATOM      8  H6  <0> d           0.002  -0.004   0.002  0.00  0.00     0.111 H 
ENDROOT
BRANCH   1   9
ATOM      9  C2  <0> d          -1.606   4.287   0.041  0.00  0.00     0.172 C 
ATOM     10  O1  <0> d          -2.810   4.124   0.052  0.00  0.00    -0.291 OA
BRANCH   9  11
ATOM     11  C1  <0> d          -1.035   5.681   0.044  0.00  0.00    -0.015 C 
ATOM     12  H1  <0> d          -0.036   5.632   0.033  0.00  0.00     0.038 H 
ATOM     13  H2  <0> d          -1.381   6.218  -0.840  0.00  0.00     0.038 H 
ATOM     14  H3  <0> d          -1.363   6.207   0.940  0.00  0.00     0.038 H 
ENDBRANCH   9  11
ENDBRANCH   1   9
BRANCH   5  15
ATOM     15  C7  <0> d          -2.501   1.351   0.019  0.00  0.00    -0.014 C 
ATOM     16  H7  <0> d          -2.839   1.223   1.048  0.00  0.00     0.057 H 
ATOM     17  H8  <0> d          -3.145   2.069  -0.488  0.00  0.00     0.057 H 
ATOM     18  H9  <0> d          -2.546   0.393  -0.499  0.00  0.00     0.057 H 
ENDBRANCH   5  15
TORSDOF 3
