REMARK  3 active torsions:
REMARK  status: ('A' for Active; 'I' for Inactive)
REMARK    1  A    between atoms: C1_1  and  N1_2 
REMARK    2  A    between atoms: N1_2  and  C2_3 
REMARK    3  A    between atoms: N1_2  and  C3_4 
ROOT
ATOM      1  C3  <0> d          -0.017   1.376   0.010  0.00  0.00     0.128 A 
ATOM      2  C4  <0> d           1.187   2.111   0.002  0.00  0.00     0.102 A 
ATOM      3  C5  <0> d           1.104   3.506   0.010  0.00  0.00     0.027 A 
ATOM      4  N2  <0> d          -0.088   4.077   0.024  0.00  0.00    -0.252 NA
ATOM      5  C6  <0> d          -1.192   3.355   0.030  0.00  0.00     0.088 A 
ATOM      6  N3  <0> d          -1.169   2.038   0.019  0.00  0.00    -0.228 NA
ATOM      7  C7  <0> d           2.457   1.448  -0.014  0.00  0.00     0.104 C 
ATOM      8  N4  <0> d           3.463   0.922  -0.026  0.00  0.00    -0.191 NA
ATOM      9  H7  <0> d           2.001   4.109   0.005  0.00  0.00     0.117 H 
ATOM     10  H8  <0> d          -2.146   3.860   0.042  0.00  0.00     0.146 H 
ENDROOT
BRANCH   1  11
ATOM     11  N1  <0> d           0.002  -0.004   0.002  0.00  0.00    -0.275 NA
BRANCH  11  12
ATOM     12  C1  <0> d          -1.362  -0.549   0.012  0.00  0.00    -0.028 C 
ATOM     13  H1  <0> d          -1.899  -0.202  -0.871  0.00  0.00     0.049 H 
ATOM     14  H2  <0> d          -1.318  -1.638   0.006  0.00  0.00     0.049 H 
ATOM     15  H3  <0> d          -1.881  -0.212   0.909  0.00  0.00     0.049 H 
ENDBRANCH  11  12
BRANCH  11  16
ATOM     16  C2  <0> d           0.764  -0.514  -1.146  0.00  0.00    -0.028 C 
ATOM     17  H4  <0> d           1.790  -0.151  -1.091  0.00  0.00     0.049 H 
ATOM     18  H5  <0> d           0.763  -1.604  -1.127  0.00  0.00     0.049 H 
ATOM     19  H6  <0> d           0.305  -0.166  -2.071  0.00  0.00     0.049 H 
ENDBRANCH  11  16
ENDBRANCH   1  11
TORSDOF 3
