REMARK  3 active torsions:
REMARK  status: ('A' for Active; 'I' for Inactive)
REMARK    1  A    between atoms: C1_1  and  C2_2 
REMARK    2  A    between atoms: C4_4  and  C7_10 
REMARK    3  A    between atoms: C5_7  and  C6_8 
ROOT
ATOM      1  C2  <0> d           1.126  -0.805  -0.013  0.00  0.00    -0.026 A 
ATOM      2  C3  <0> d           0.682  -2.131  -0.016  0.00  0.00    -0.053 A 
ATOM      3  C4  <0> d          -0.673  -2.115  -0.003  0.00  0.00     0.006 A 
ATOM      4  N1  <0> d          -1.097  -0.834   0.014  0.00  0.00    -0.354 N 
ATOM      5  H1  <0> d          -2.023  -0.545   0.029  0.00  0.00     0.166 HD
ATOM      6  C5  <0> d           0.002  -0.004   0.002  0.00  0.00     0.116 A 
ATOM      7  H5  <0> d           1.307  -3.011  -0.027  0.00  0.00     0.087 H 
ENDROOT
BRANCH   1   8
ATOM      8  C1  <0> d           2.559  -0.339  -0.024  0.00  0.00    -0.049 C 
ATOM      9  H2  <0> d           2.914  -0.233   1.001  0.00  0.00     0.033 H 
ATOM     10  H3  <0> d           3.175  -1.071  -0.548  0.00  0.00     0.033 H 
ATOM     11  H4  <0> d           2.624   0.622  -0.533  0.00  0.00     0.033 H 
ENDBRANCH   1   8
BRANCH   6  12
ATOM     12  C6  <0> d          -0.018   1.461   0.010  0.00  0.00     0.227 C 
ATOM     13  O1  <0> d           1.027   2.083   0.003  0.00  0.00    -0.643 OA
ATOM     14  O2  <0> d          -1.195   2.119   0.019  0.00  0.00    -0.643 OA
ENDBRANCH   6  12
BRANCH   3  15
ATOM     15  C7  <0> d          -1.563  -3.331  -0.001  0.00  0.00    -0.037 C 
ATOM     16  H6  <0> d          -1.767  -3.630   1.027  0.00  0.00     0.035 H 
ATOM     17  H7  <0> d          -2.500  -3.096  -0.505  0.00  0.00     0.035 H 
ATOM     18  H8  <0> d          -1.064  -4.147  -0.524  0.00  0.00     0.035 H 
ENDBRANCH   3  15
TORSDOF 3
