REMARK  4 active torsions:
REMARK  status: ('A' for Active; 'I' for Inactive)
REMARK    1  A    between atoms: C2_2  and  C3_3 
REMARK    2  A    between atoms: C3_3  and  C4_4 
REMARK    3  A    between atoms: C4_4  and  C5_6 
REMARK    4  A    between atoms: C4_4  and  O1_10 
ROOT
ATOM      1  C3  <0> d          -1.176   3.222   0.025  0.00  0.00    -0.018 C 
ATOM      2  H5  <0> d          -1.611   3.575   0.961  0.00  0.00     0.043 H 
ATOM      3  H6  <0> d          -0.158   3.600  -0.067  0.00  0.00     0.043 H 
ENDROOT
BRANCH   1   4
ATOM      4  C2  <0> d          -1.156   1.715   0.017  0.00  0.00    -0.109 C 
ATOM      5  C1  <0> d          -0.013   1.076   0.008  0.00  0.00    -0.125 C 
ATOM      6  H2  <0> d           0.002  -0.004   0.002  0.00  0.00     0.066 H 
ATOM      7  H3  <0> d           0.915   1.629   0.002  0.00  0.00     0.066 H 
ATOM      8  H4  <0> d          -2.084   1.163   0.018  0.00  0.00     0.075 H 
ENDBRANCH   1   4
BRANCH   1   9
ATOM      9  C4  <0> d          -2.016   3.727  -1.150  0.00  0.00     0.132 C 
ATOM     10  H1  <0> d          -3.009   3.279  -1.106  0.00  0.00     0.097 H 
BRANCH   9  11
ATOM     11  C5  <0> d          -2.140   5.250  -1.070  0.00  0.00     0.413 C 
ATOM     12  F1  <0> d          -0.867   5.826  -1.126  0.00  0.00    -0.168 F 
ATOM     13  F2  <0> d          -2.908   5.712  -2.145  0.00  0.00    -0.168 F 
ATOM     14  F3  <0> d          -2.760   5.605   0.133  0.00  0.00    -0.168 F 
ENDBRANCH   9  11
BRANCH   9  15
ATOM     15  O1  <0> d          -1.383   3.365  -2.378  0.00  0.00    -0.386 OA
ATOM     16  H7  <0> d          -0.494   3.729  -2.486  0.00  0.00     0.210 HD
ENDBRANCH   9  15
ENDBRANCH   1   9
TORSDOF 4
