REMARK  5 active torsions:
REMARK  status: ('A' for Active; 'I' for Inactive)
REMARK    1  A    between atoms: C1_1  and  C2_2 
REMARK    2  A    between atoms: C2_2  and  C3_3 
REMARK    3  A    between atoms: C7_7  and  C9_10 
REMARK    4  A    between atoms: C8_8  and  N1_9 
REMARK    5  A    between atoms: C9_10  and  C10_11 
ROOT
ATOM      1  C3  <0> d          -1.251   3.037   0.030  0.00  0.00    -0.032 A 
ATOM      2  C4  <0> d          -2.458   3.708   0.035  0.00  0.00    -0.075 A 
ATOM      3  C5  <0> d          -3.645   2.998   0.037  0.00  0.00    -0.082 A 
ATOM      4  C6  <0> d          -3.628   1.616   0.029  0.00  0.00    -0.075 A 
ATOM      5  C7  <0> d          -2.424   0.938   0.019  0.00  0.00    -0.032 A 
ATOM      6  C8  <0> d          -1.230   1.648   0.017  0.00  0.00     0.038 A 
ATOM      7  H6  <0> d          -2.474   4.787   0.041  0.00  0.00     0.084 H 
ATOM      8  H7  <0> d          -4.587   3.526   0.045  0.00  0.00     0.083 H 
ATOM      9  H8  <0> d          -4.557   1.065   0.030  0.00  0.00     0.084 H 
ENDROOT
BRANCH   1  10
ATOM     10  C2  <0> d           0.043   3.810   0.035  0.00  0.00    -0.042 C 
ATOM     11  H4  <0> d          -0.123   4.792   0.479  0.00  0.00     0.039 H 
ATOM     12  H5  <0> d           0.788   3.269   0.617  0.00  0.00     0.039 H 
BRANCH  10  13
ATOM     13  C1  <0> d           0.541   3.978  -1.402  0.00  0.00    -0.073 C 
ATOM     14  H1  <0> d           1.477   4.538  -1.399  0.00  0.00     0.028 H 
ATOM     15  H2  <0> d           0.707   2.997  -1.846  0.00  0.00     0.028 H 
ATOM     16  H3  <0> d          -0.204   4.520  -1.984  0.00  0.00     0.028 H 
ENDBRANCH  10  13
ENDBRANCH   1  10
BRANCH   6  17
ATOM     17  N1  <0> d          -0.011   0.966   0.007  0.00  0.00    -0.398 N 
ATOM     18  H9  <0> d           0.002  -0.004   0.002  0.00  0.00     0.156 HD
ATOM     19  H10 <0> d           0.822   1.462   0.002  0.00  0.00     0.156 HD
ENDBRANCH   6  17
BRANCH   5  20
ATOM     20  C9  <0> d          -2.407  -0.569   0.010  0.00  0.00    -0.042 C 
ATOM     21  H11 <0> d          -3.336  -0.940  -0.422  0.00  0.00     0.039 H 
ATOM     22  H12 <0> d          -1.564  -0.919  -0.585  0.00  0.00     0.039 H 
BRANCH  20  23
ATOM     23  C10 <0> d          -2.268  -1.085   1.444  0.00  0.00    -0.073 C 
ATOM     24  H13 <0> d          -1.339  -0.713   1.876  0.00  0.00     0.028 H 
ATOM     25  H14 <0> d          -3.112  -0.735   2.039  0.00  0.00     0.028 H 
ATOM     26  H15 <0> d          -2.256  -2.175   1.438  0.00  0.00     0.028 H 
ENDBRANCH  20  23
ENDBRANCH   5  20
TORSDOF 5
