REMARK  0 active torsions:
REMARK  status: ('A' for Active; 'I' for Inactive)
ROOT
ATOM      1  C1  <0> d           0.002  -0.004   0.002  0.00  0.00    -0.082 A 
ATOM      2  C2  <0> d           1.200  -0.722  -0.014  0.00  0.00    -0.081 A 
ATOM      3  C3  <0> d           2.408  -0.105  -0.022  0.00  0.00    -0.053 A 
ATOM      4  C4  <0> d           2.466   1.306  -0.015  0.00  0.00     0.087 A 
ATOM      5  C5  <0> d           1.200   2.059   0.002  0.00  0.00    -0.000 A 
ATOM      6  C6  <0> d          -0.016   1.355   0.009  0.00  0.00    -0.071 A 
ATOM      7  C7  <0> d           1.268   3.454   0.009  0.00  0.00    -0.004 A 
ATOM      8  C8  <0> d           2.547   4.027  -0.000  0.00  0.00     0.262 A 
ATOM      9  O1  <0> d           2.665   5.244   0.005  0.00  0.00    -0.267 OA
ATOM     10  N1  <0> d           3.643   3.252  -0.016  0.00  0.00    -0.243 N 
ATOM     11  H1  <0> d           4.642   3.712  -0.023  0.00  0.00     0.192 HD
ATOM     12  N2  <0> d           3.607   1.968  -0.022  0.00  0.00    -0.171 NA
ATOM     13  H2  <0> d          -0.934  -0.543   0.008  0.00  0.00     0.083 H 
ATOM     14  H3  <0> d           1.163  -1.802  -0.020  0.00  0.00     0.083 H 
ATOM     15  H4  <0> d           3.318  -0.687  -0.034  0.00  0.00     0.087 H 
ATOM     16  H5  <0> d          -0.956   1.889   0.017  0.00  0.00     0.084 H 
ATOM     17  H6  <0> d           0.377   4.063   0.022  0.00  0.00     0.093 H 
ENDROOT
TORSDOF 0
