REMARK  2 active torsions:
REMARK  status: ('A' for Active; 'I' for Inactive)
REMARK    1  A    between atoms: C6_8  and  C8_10 
REMARK    2  A    between atoms: C8_10  and  O1_11 
ROOT
ATOM      1  C1  <0> d          -0.017   1.401   0.010  0.00  0.00    -0.079 A 
ATOM      2  C2  <0> d           1.157   2.088   0.002  0.00  0.00    -0.055 A 
ATOM      3  C3  <0> d           2.371   1.376  -0.013  0.00  0.00     0.060 A 
ATOM      4  C4  <0> d           3.702   1.774  -0.023  0.00  0.00    -0.037 A 
ATOM      5  C5  <0> d           4.481   0.628  -0.036  0.00  0.00     0.024 A 
ATOM      6  N1  <0> d           3.693  -0.425  -0.035  0.00  0.00    -0.179 NA
ATOM      7  N2  <0> d           2.361   0.005  -0.021  0.00  0.00    -0.236 N 
ATOM      8  C6  <0> d           1.175  -0.672  -0.014  0.00  0.00     0.060 A 
ATOM      9  C7  <0> d           0.002  -0.004   0.002  0.00  0.00    -0.057 A 
ATOM     10  H1  <0> d          -0.958   1.931   0.026  0.00  0.00     0.083 H 
ATOM     11  H2  <0> d           1.157   3.168   0.008  0.00  0.00     0.087 H 
ATOM     12  H3  <0> d           4.064   2.791  -0.021  0.00  0.00     0.089 H 
ATOM     13  H4  <0> d           5.561   0.603  -0.046  0.00  0.00     0.117 H 
ATOM     14  H5  <0> d          -0.928  -0.553   0.008  0.00  0.00     0.086 H 
ENDROOT
BRANCH   8  15
ATOM     15  C8  <0> d           1.175  -2.179  -0.022  0.00  0.00     0.056 C 
ATOM     16  H6  <0> d           1.681  -2.537  -0.919  0.00  0.00     0.083 H 
ATOM     17  H7  <0> d           1.697  -2.547   0.861  0.00  0.00     0.083 H 
BRANCH  15  18
ATOM     18  O1  <0> d          -0.172  -2.655  -0.013  0.00  0.00    -0.395 OA
ATOM     19  H8  <0> d          -0.248  -3.619  -0.018  0.00  0.00     0.209 HD
ENDBRANCH  15  18
ENDBRANCH   8  15
TORSDOF 2
