REMARK  1 active torsions:
REMARK  status: ('A' for Active; 'I' for Inactive)
REMARK    1  A    between atoms: C1_1  and  C2_2 
ROOT
ATOM      1  C2  <0> d          -0.742   1.585  -1.213  0.00  0.00     0.046 A 
ATOM      2  C3  <0> d          -2.079   1.790  -1.159  0.00  0.00     0.179 A 
ATOM      3  C4  <0> d          -2.754   2.260  -2.314  0.00  0.00     0.211 A 
ATOM      4  C5  <0> d          -2.003   2.499  -3.487  0.00  0.00    -0.017 A 
ATOM      5  C6  <0> d          -0.670   2.274  -3.476  0.00  0.00    -0.019 A 
ATOM      6  N1  <0> d          -0.050   1.830  -2.356  0.00  0.00    -0.367 N 
ATOM      7  O1  <0> d          -3.961   2.454  -2.296  0.00  0.00    -0.285 OA
ATOM      8  O2  <0> d          -2.767   1.548  -0.010  0.00  0.00    -0.186 OA
ATOM      9  H4  <0> d          -2.489   2.857  -4.382  0.00  0.00     0.091 H 
ATOM     10  H5  <0> d          -0.091   2.455  -4.370  0.00  0.00     0.111 H 
ATOM     11  H6  <0> d           0.908   1.680  -2.372  0.00  0.00     0.165 HD
ENDROOT
BRANCH   1  12
ATOM     12  C1  <0> d          -0.013   1.086   0.008  0.00  0.00    -0.035 C 
ATOM     13  H1  <0> d           0.002  -0.004   0.002  0.00  0.00     0.035 H 
ATOM     14  H2  <0> d           1.010   1.463   0.000  0.00  0.00     0.035 H 
ATOM     15  H3  <0> d          -0.523   1.437   0.905  0.00  0.00     0.035 H 
ENDBRANCH   1  12
TORSDOF 1
