REMARK  4 active torsions:
REMARK  status: ('A' for Active; 'I' for Inactive)
REMARK    1  A    between atoms: C1_1  and  C2_2 
REMARK    2  A    between atoms: C2_2  and  C7_10 
REMARK    3  A    between atoms: C4_5  and  C6_8 
REMARK    4  A    between atoms: C6_8  and  O3_9 
ROOT
ATOM      1  C2  <0> d           0.002  -0.004   0.002  0.00  0.00     0.156 C 
ATOM      2  O1  <0> d          -1.339  -0.499   0.012  0.00  0.00    -0.355 OA
ATOM      3  C3  <0> d          -2.088  -0.113   1.169  0.00  0.00     0.030 C 
ATOM      4  C4  <0> d          -1.358  -0.610   2.422  0.00  0.00     0.008 C 
ATOM      5  C5  <0> d           0.083  -0.090   2.395  0.00  0.00     0.030 C 
ATOM      6  O2  <0> d           0.694  -0.478   1.160  0.00  0.00    -0.355 OA
ATOM      7  H4  <0> d          -2.172   0.973   1.203  0.00  0.00     0.075 H 
ATOM      8  H5  <0> d          -3.082  -0.557   1.125  0.00  0.00     0.075 H 
ATOM      9  H6  <0> d          -1.353  -1.700   2.433  0.00  0.00     0.049 H 
ATOM     10  H7  <0> d           0.080   0.997   2.476  0.00  0.00     0.075 H 
ATOM     11  H8  <0> d           0.641  -0.518   3.228  0.00  0.00     0.075 H 
ENDROOT
BRANCH   1  12
ATOM     12  C1  <0> d          -0.019   1.526   0.010  0.00  0.00    -0.026 C 
ATOM     13  H1  <0> d           1.004   1.903   0.003  0.00  0.00     0.035 H 
ATOM     14  H2  <0> d          -0.546   1.887  -0.873  0.00  0.00     0.035 H 
ATOM     15  H3  <0> d          -0.529   1.877   0.907  0.00  0.00     0.035 H 
ENDBRANCH   1  12
BRANCH   1  16
ATOM     16  C7  <0> d           0.718  -0.497  -1.257  0.00  0.00    -0.026 C 
ATOM     17  H12 <0> d           1.741  -0.120  -1.264  0.00  0.00     0.035 H 
ATOM     18  H13 <0> d           0.733  -1.587  -1.263  0.00  0.00     0.035 H 
ATOM     19  H14 <0> d           0.191  -0.136  -2.140  0.00  0.00     0.035 H 
ENDBRANCH   1  16
BRANCH   4  20
ATOM     20  C6  <0> d          -2.069  -0.085   3.671  0.00  0.00     0.024 C 
ATOM     21  H9  <0> d          -1.990   1.001   3.705  0.00  0.00     0.074 H 
ATOM     22  H10 <0> d          -3.120  -0.372   3.638  0.00  0.00     0.074 H 
BRANCH  20  23
ATOM     23  O3  <0> d          -1.459  -0.644   4.836  0.00  0.00    -0.400 OA
ATOM     24  H11 <0> d          -1.860  -0.354   5.667  0.00  0.00     0.209 HD
ENDBRANCH  20  23
ENDBRANCH   4  20
TORSDOF 4
