REMARK  0 active torsions:
REMARK  status: ('A' for Active; 'I' for Inactive)
ROOT
ATOM      1  C1  <0> d           1.104   3.074   0.008  0.00  0.00     0.019 A 
ATOM      2  C2  <0> d          -0.102   3.750   0.022  0.00  0.00     0.022 A 
ATOM      3  N1  <0> d          -1.239   3.076   0.029  0.00  0.00    -0.230 NA
ATOM      4  C3  <0> d          -1.223   1.753   0.017  0.00  0.00     0.227 A 
ATOM      5  C4  <0> d          -0.013   1.076   0.008  0.00  0.00     0.058 A 
ATOM      6  N2  <0> d           1.122   1.752   0.001  0.00  0.00    -0.267 NA
ATOM      7  F1  <0> d          -2.384   1.063   0.019  0.00  0.00    -0.183 F 
ATOM      8  H1  <0> d           2.033   3.626   0.002  0.00  0.00     0.117 H 
ATOM      9  H2  <0> d          -0.115   4.830   0.027  0.00  0.00     0.117 H 
ATOM     10  H3  <0> d           0.002  -0.004   0.002  0.00  0.00     0.122 H 
ENDROOT
TORSDOF 0
