REMARK  2 active torsions:
REMARK  status: ('A' for Active; 'I' for Inactive)
REMARK    1  A    between atoms: C1_1  and  C2_2 
REMARK    2  A    between atoms: C4_5  and  C6_9 
ROOT
ATOM      1  C2  <0> d          -0.017   1.379   0.010  0.00  0.00     0.050 A 
ATOM      2  C3  <0> d           0.002  -0.004   0.002  0.00  0.00     0.026 A 
ATOM      3  N1  <0> d           1.155  -0.650  -0.013  0.00  0.00    -0.261 NA
ATOM      4  C4  <0> d           2.291   0.025  -0.020  0.00  0.00     0.070 A 
ATOM      5  C5  <0> d           2.272   1.410  -0.012  0.00  0.00     0.150 A 
ATOM      6  N2  <0> d           1.118   2.056   0.002  0.00  0.00    -0.238 NA
ATOM      7 Cl1  <0> d           3.764   2.298  -0.022  0.00  0.00    -0.060 Cl
ATOM      8  H4  <0> d          -0.926  -0.556   0.008  0.00  0.00     0.117 H 
ENDROOT
BRANCH   1   9
ATOM      9  C1  <0> d          -1.332   2.115   0.020  0.00  0.00    -0.034 C 
ATOM     10  H1  <0> d          -1.644   2.287   1.050  0.00  0.00     0.035 H 
ATOM     11  H2  <0> d          -1.217   3.072  -0.489  0.00  0.00     0.035 H 
ATOM     12  H3  <0> d          -2.086   1.518  -0.494  0.00  0.00     0.035 H 
ENDBRANCH   1   9
BRANCH   4  13
ATOM     13  C6  <0> d           3.605  -0.711  -0.038  0.00  0.00    -0.033 C 
ATOM     14  H5  <0> d           3.912  -0.883  -1.070  0.00  0.00     0.035 H 
ATOM     15  H6  <0> d           4.362  -0.116   0.472  0.00  0.00     0.035 H 
ATOM     16  H7  <0> d           3.492  -1.668   0.471  0.00  0.00     0.035 H 
ENDBRANCH   4  13
TORSDOF 2
