REMARK  0 active torsions:
REMARK  status: ('A' for Active; 'I' for Inactive)
ROOT
ATOM      1  C1  <0> d          -0.016   1.343   0.009  0.00  0.00     0.037 A 
ATOM      2  C2  <0> d           0.002  -0.004   0.002  0.00  0.00     0.022 A 
ATOM      3  N1  <0> d           1.321  -0.389  -0.013  0.00  0.00    -0.131 N 
ATOM      4  C3  <0> d           1.930  -1.615  -0.025  0.00  0.00     0.204 A 
ATOM      5  C4  <0> d           3.291  -1.677  -0.038  0.00  0.00     0.022 A 
ATOM      6  C5  <0> d           4.031  -0.485  -0.039  0.00  0.00     0.197 A 
ATOM      7  N2  <0> d           3.414   0.682  -0.027  0.00  0.00    -0.165 N 
ATOM      8  C6  <0> d           2.075   0.755  -0.014  0.00  0.00     0.714 A 
ATOM      9  N3  <0> d           1.246   1.789  -0.000  0.00  0.00    -0.075 NA
ATOM     10  O1  <0> d           5.385  -0.532  -0.052  0.00  0.00    -0.172 OA
ATOM     11  O2  <0> d           1.191  -2.748  -0.025  0.00  0.00    -0.171 OA
ATOM     12  H1  <0> d          -0.902   1.961   0.017  0.00  0.00     0.117 H 
ATOM     13  H2  <0> d          -0.858  -0.658   0.007  0.00  0.00     0.115 H 
ATOM     14  H3  <0> d           3.795  -2.633  -0.049  0.00  0.00     0.097 H 
ATOM     15  H4  <0> d           4.000   1.613  -0.029  0.00  0.00     0.186 HD
ENDROOT
TORSDOF 0
