REMARK  6 active torsions:
REMARK  status: ('A' for Active; 'I' for Inactive)
REMARK    1  A    between atoms: C1_1  and  C2_2 
REMARK    2  A    between atoms: C2_2  and  C3_3 
REMARK    3  A    between atoms: C2_2  and  C4_4 
REMARK    4  A    between atoms: C2_2  and  C5_5 
REMARK    5  A    between atoms: C5_5  and  C6_6 
REMARK       I    between atoms: C6_6  and  N1_8 
REMARK    6  A    between atoms: N1_8  and  C7_9 
ROOT
ATOM      1  C2  <0> d          -0.019   1.526   0.010  0.00  0.00    -0.043 C 
ENDROOT
BRANCH   1   2
ATOM      2  C1  <0> d           1.417   2.055  -0.000  0.00  0.00    -0.069 C 
ATOM      3  H1  <0> d           1.927   1.704  -0.897  0.00  0.00     0.028 H 
ATOM      4  H2  <0> d           1.402   3.145   0.006  0.00  0.00     0.028 H 
ATOM      5  H3  <0> d           1.944   1.694   0.883  0.00  0.00     0.028 H 
ENDBRANCH   1   2
BRANCH   1   6
ATOM      6  C3  <0> d          -0.759   2.033  -1.229  0.00  0.00    -0.069 C 
ATOM      7  H4  <0> d          -1.781   1.655  -1.221  0.00  0.00     0.028 H 
ATOM      8  H5  <0> d          -0.773   3.123  -1.223  0.00  0.00     0.028 H 
ATOM      9  H6  <0> d          -0.248   1.681  -2.126  0.00  0.00     0.028 H 
ENDBRANCH   1   6
BRANCH   1  10
ATOM     10  C4  <0> d          -0.735   2.019   1.269  0.00  0.00    -0.069 C 
ATOM     11  H7  <0> d          -0.208   1.658   2.152  0.00  0.00     0.028 H 
ATOM     12  H8  <0> d          -0.750   3.109   1.275  0.00  0.00     0.028 H 
ATOM     13  H9  <0> d          -1.757   1.642   1.277  0.00  0.00     0.028 H 
ENDBRANCH   1  10
BRANCH   1  14
ATOM     14  C5  <0> d           0.002  -0.004   0.002  0.00  0.00     0.015 C 
ATOM     15  H10 <0> d          -1.020  -0.381   0.010  0.00  0.00     0.048 H 
ATOM     16  H11 <0> d           0.512  -0.356  -0.895  0.00  0.00     0.048 H 
BRANCH  14  17
ATOM     17  C6  <0> d           0.731  -0.503   1.223  0.00  0.00     0.217 C 
ATOM     18  O1  <0> d           1.189   0.287   2.021  0.00  0.00    -0.274 OA
ATOM     19  N1  <0> d           0.874  -1.828   1.428  0.00  0.00    -0.365 N 
ATOM     20  H12 <0> d           0.508  -2.459   0.789  0.00  0.00     0.161 HD
BRANCH  19  21
ATOM     21  C7  <0> d           1.583  -2.313   2.615  0.00  0.00    -0.018 C 
ATOM     22  H13 <0> d           1.072  -1.962   3.511  0.00  0.00     0.056 H 
ATOM     23  H14 <0> d           1.597  -3.403   2.609  0.00  0.00     0.056 H 
ATOM     24  H15 <0> d           2.605  -1.936   2.607  0.00  0.00     0.056 H 
ENDBRANCH  19  21
ENDBRANCH  14  17
ENDBRANCH   1  14
TORSDOF 6
