REMARK  3 active torsions:
REMARK  status: ('A' for Active; 'I' for Inactive)
REMARK    1  A    between atoms: C1_1  and  N1_2 
REMARK    2  A    between atoms: N1_2  and  C2_3 
REMARK    3  A    between atoms: C5_7  and  C6_9 
ROOT
ATOM      1  C2  <0> d           2.380   3.972   0.001  0.00  0.00     0.141 A 
ATOM      2  C3  <0> d           3.596   3.284  -0.014  0.00  0.00     0.046 A 
ATOM      3  N2  <0> d           3.609   1.965  -0.021  0.00  0.00    -0.267 NA
ATOM      4  C4  <0> d           2.473   1.289  -0.009  0.00  0.00     0.036 A 
ATOM      5  C5  <0> d           1.257   1.968   0.001  0.00  0.00     0.152 A 
ATOM      6  N3  <0> d           1.240   3.300   0.008  0.00  0.00    -0.222 NA
ATOM      7  H5  <0> d           4.526   3.833  -0.019  0.00  0.00     0.120 H 
ATOM      8  H6  <0> d           2.488   0.209  -0.010  0.00  0.00     0.118 H 
ENDROOT
BRANCH   1   9
ATOM      9  N1  <0> d           2.367   5.362   0.009  0.00  0.00    -0.378 N 
ATOM     10  H4  <0> d           1.522   5.839   0.020  0.00  0.00     0.160 HD
BRANCH   9  11
ATOM     11  C1  <0> d           3.629   6.106   0.002  0.00  0.00    -0.020 C 
ATOM     12  H1  <0> d           4.194   5.853  -0.895  0.00  0.00     0.056 H 
ATOM     13  H2  <0> d           3.420   7.176   0.010  0.00  0.00     0.056 H 
ATOM     14  H3  <0> d           4.211   5.843   0.885  0.00  0.00     0.056 H 
ENDBRANCH   9  11
ENDBRANCH   1   9
BRANCH   5  15
ATOM     15  C6  <0> d          -0.014   1.210   0.009  0.00  0.00     0.230 C 
ATOM     16  O1  <0> d           0.002  -0.004   0.002  0.00  0.00    -0.643 OA
ATOM     17  O2  <0> d          -1.190   1.868   0.018  0.00  0.00    -0.643 OA
ENDBRANCH   5  15
TORSDOF 3
