REMARK  4 active torsions:
REMARK  status: ('A' for Active; 'I' for Inactive)
REMARK    1  A    between atoms: C1_1  and  C2_2 
REMARK    2  A    between atoms: C2_2  and  C3_4 
REMARK    3  A    between atoms: C2_2  and  C5_7 
REMARK    4  A    between atoms: C3_4  and  C4_5 
ROOT
ATOM      1  C2  <0> d           2.696   3.548  -0.005  0.00  0.00     0.036 C 
ATOM      2  H1  <0> d           3.210   3.097  -0.854  0.00  0.00     0.056 H 
ENDROOT
BRANCH   1   3
ATOM      3  C1  <0> d           3.376   3.110   1.294  0.00  0.00    -0.063 C 
ATOM      4  H2  <0> d           3.334   2.024   1.378  0.00  0.00     0.028 H 
ATOM      5  H3  <0> d           4.417   3.433   1.286  0.00  0.00     0.028 H 
ATOM      6  H4  <0> d           2.863   3.561   2.143  0.00  0.00     0.028 H 
ENDBRANCH   1   3
BRANCH   1   7
ATOM      7  C3  <0> d           1.235   3.094   0.007  0.00  0.00     0.028 C 
ATOM      8  H5  <0> d           0.727   3.482  -0.876  0.00  0.00     0.050 H 
ATOM      9  H6  <0> d           0.744   3.473   0.904  0.00  0.00     0.050 H 
BRANCH   7  10
ATOM     10  C4  <0> d           1.177   1.588  -0.001  0.00  0.00     0.173 C 
ATOM     11  O1  <0> d           2.199   0.944  -0.014  0.00  0.00    -0.648 OA
ATOM     12  O3  <0> d          -0.011   0.963   0.007  0.00  0.00    -0.648 OA
ENDBRANCH   7  10
ENDBRANCH   1   7
BRANCH   1  13
ATOM     13  C5  <0> d           2.755   5.049  -0.121  0.00  0.00     0.177 C 
ATOM     14  O2  <0> d           1.733   5.691  -0.188  0.00  0.00    -0.648 OA
ATOM     15  O4  <0> d           3.943   5.674  -0.150  0.00  0.00    -0.648 OA
ENDBRANCH   1  13
TORSDOF 4
