REMARK  8 active torsions:
REMARK  status: ('A' for Active; 'I' for Inactive)
REMARK    1  A    between atoms: C1_1  and  C2_2 
REMARK    2  A    between atoms: C2_2  and  C10_11 
REMARK    3  A    between atoms: C3_3  and  C4_4 
REMARK    4  A    between atoms: C4_4  and  C5_5 
REMARK    5  A    between atoms: C5_5  and  C6_6 
REMARK    6  A    between atoms: C6_6  and  C7_7 
REMARK    7  A    between atoms: C6_6  and  C8_8 
REMARK    8  A    between atoms: C6_6  and  O1_10 
ROOT
ATOM      1  C8  <0> d          -0.575   0.575  -0.824  0.00  0.00    -0.080 C 
ATOM      2  C9  <0> d          -0.694  -0.570  -1.052  0.00  0.00    -0.151 C 
ATOM      3  H12 <0> d          -0.801  -1.595  -1.256  0.00  0.00     0.166 H 
ENDROOT
BRANCH   1   4
ATOM      4  C6  <0> d          -0.425   2.011  -0.538  0.00  0.00     0.117 C 
BRANCH   4   5
ATOM      5  C5  <0> d          -1.060   2.331   0.817  0.00  0.00    -0.023 C 
ATOM      6  H7  <0> d          -2.119   2.074   0.791  0.00  0.00     0.039 H 
ATOM      7  H8  <0> d          -0.565   1.752   1.596  0.00  0.00     0.039 H 
BRANCH   5   8
ATOM      8  C4  <0> d          -0.905   3.824   1.114  0.00  0.00    -0.046 C 
ATOM      9  H5  <0> d           0.154   4.080   1.139  0.00  0.00     0.039 H 
ATOM     10  H6  <0> d          -1.400   4.403   0.334  0.00  0.00     0.039 H 
BRANCH   8  11
ATOM     11  C3  <0> d          -1.530   4.138   2.448  0.00  0.00    -0.101 C 
ATOM     12  C2  <0> d          -0.826   4.734   3.378  0.00  0.00    -0.091 C 
ATOM     13  H4  <0> d          -2.560   3.872   2.638  0.00  0.00     0.077 H 
BRANCH  12  14
ATOM     14  C1  <0> d           0.571   5.212   3.074  0.00  0.00    -0.055 C 
ATOM     15  H1  <0> d           0.548   5.876   2.210  0.00  0.00     0.033 H 
ATOM     16  H2  <0> d           0.966   5.750   3.936  0.00  0.00     0.033 H 
ATOM     17  H3  <0> d           1.209   4.355   2.857  0.00  0.00     0.033 H 
ENDBRANCH  12  14
BRANCH  12  18
ATOM     18  C10 <0> d          -1.412   4.942   4.750  0.00  0.00    -0.055 C 
ATOM     19  H14 <0> d          -1.177   4.083   5.379  0.00  0.00     0.033 H 
ATOM     20  H15 <0> d          -0.988   5.843   5.194  0.00  0.00     0.033 H 
ATOM     21  H16 <0> d          -2.493   5.050   4.671  0.00  0.00     0.033 H 
ENDBRANCH  12  18
ENDBRANCH   8  11
ENDBRANCH   5   8
ENDBRANCH   4   5
BRANCH   4  22
ATOM     22  C7  <0> d           1.061   2.372  -0.502  0.00  0.00    -0.037 C 
ATOM     23  H9  <0> d           1.514   2.144  -1.468  0.00  0.00     0.033 H 
ATOM     24  H10 <0> d           1.172   3.435  -0.291  0.00  0.00     0.033 H 
ATOM     25  H11 <0> d           1.557   1.793   0.277  0.00  0.00     0.033 H 
ENDBRANCH   4  22
BRANCH   4  26
ATOM     26  O1  <0> d          -1.075   2.771  -1.560  0.00  0.00    -0.378 OA
ATOM     27  H13 <0> d          -2.022   2.593  -1.640  0.00  0.00     0.211 HD
ENDBRANCH   4  26
ENDBRANCH   1   4
TORSDOF 8
