REMARK  7 active torsions:
REMARK  status: ('A' for Active; 'I' for Inactive)
REMARK    1  A    between atoms: C1_1  and  C2_2 
REMARK    2  A    between atoms: C2_2  and  C3_4 
REMARK    3  A    between atoms: C2_2  and  O2_10 
REMARK    4  A    between atoms: C3_4  and  C4_5 
REMARK    5  A    between atoms: C3_4  and  C5_6 
REMARK    6  A    between atoms: C5_6  and  C6_8 
REMARK    7  A    between atoms: C5_6  and  O1_9 
ROOT
ATOM      1  C3  <0> d          -1.446  -0.499   0.113  0.00  0.00    -0.009 C 
ATOM      2  H6  <0> d          -2.127  -0.342  -0.725  0.00  0.00     0.047 H 
ENDROOT
BRANCH   1   3
ATOM      3  C2  <0> d          -0.124   0.220  -0.163  0.00  0.00     0.037 C 
ATOM      4  H1  <0> d           0.358  -0.228  -1.033  0.00  0.00     0.083 H 
BRANCH   3   5
ATOM      5  C1  <0> d          -0.396   1.700  -0.437  0.00  0.00    -0.052 C 
ATOM      6  H3  <0> d           0.550   2.223  -0.577  0.00  0.00     0.030 H 
ATOM      7  H4  <0> d          -1.002   1.798  -1.337  0.00  0.00     0.030 H 
ATOM      8  H5  <0> d          -0.929   2.134   0.409  0.00  0.00     0.030 H 
ENDBRANCH   3   5
BRANCH   3   9
ATOM      9  O2  <0> d           0.732   0.095   0.974  0.00  0.00    -0.396 OA
ATOM     10  H14 <0> d           1.591   0.527   0.869  0.00  0.00     0.210 HD
ENDBRANCH   3   9
ENDBRANCH   1   3
BRANCH   1  11
ATOM     11  C4  <0> d          -1.187  -1.997   0.285  0.00  0.00    -0.068 C 
ATOM     12  H7  <0> d          -2.129  -2.509   0.481  0.00  0.00     0.028 H 
ATOM     13  H8  <0> d          -0.740  -2.395  -0.626  0.00  0.00     0.028 H 
ATOM     14  H9  <0> d          -0.506  -2.154   1.122  0.00  0.00     0.028 H 
ENDBRANCH   1  11
BRANCH   1  15
ATOM     15  C5  <0> d          -2.074   0.060   1.391  0.00  0.00     0.037 C 
ATOM     16  H2  <0> d          -2.173   1.142   1.304  0.00  0.00     0.083 H 
BRANCH  15  17
ATOM     17  C6  <0> d          -3.455  -0.564   1.597  0.00  0.00    -0.052 C 
ATOM     18  H10 <0> d          -3.879  -0.208   2.535  0.00  0.00     0.030 H 
ATOM     19  H11 <0> d          -4.109  -0.280   0.772  0.00  0.00     0.030 H 
ATOM     20  H12 <0> d          -3.362  -1.650   1.629  0.00  0.00     0.030 H 
ENDBRANCH  15  17
BRANCH  15  21
ATOM     21  O1  <0> d          -1.239  -0.253   2.508  0.00  0.00    -0.396 OA
ATOM     22  H13 <0> d          -1.575   0.072   3.354  0.00  0.00     0.210 HD
ENDBRANCH  15  21
ENDBRANCH   1  15
TORSDOF 7
