REMARK  1 active torsions:
REMARK  status: ('A' for Active; 'I' for Inactive)
REMARK    1  A    between atoms: C1_1  and  C2_2 
ROOT
ATOM      1  C2  <0> d           0.002  -0.004   0.002  0.00  0.00     0.015 A 
ATOM      2  C3  <0> d           1.184  -0.657  -0.013  0.00  0.00     0.004 A 
ATOM      3  C4  <0> d           2.385   0.093  -0.020  0.00  0.00     0.251 A 
ATOM      4  O1  <0> d           3.463  -0.473  -0.034  0.00  0.00    -0.268 OA
ATOM      5  N1  <0> d           2.324   1.440  -0.012  0.00  0.00    -0.275 N 
ATOM      6  H1  <0> d           3.168   1.977  -0.018  0.00  0.00     0.173 HD
ATOM      7  C5  <0> d           1.132   2.065   0.002  0.00  0.00     0.327 A 
ATOM      8  O2  <0> d           1.092   3.280   0.009  0.00  0.00    -0.247 OA
ATOM      9  N2  <0> d          -0.017   1.364   0.009  0.00  0.00    -0.313 N 
ATOM     10  H2  <0> d          -0.892   1.847   0.020  0.00  0.00     0.170 HD
ATOM     11  H6  <0> d           1.213  -1.736  -0.018  0.00  0.00     0.095 H 
ENDROOT
BRANCH   1  12
ATOM     12  C1  <0> d          -1.290  -0.779   0.011  0.00  0.00    -0.037 C 
ATOM     13  H3  <0> d          -1.612  -0.960  -1.015  0.00  0.00     0.035 H 
ATOM     14  H4  <0> d          -1.140  -1.732   0.518  0.00  0.00     0.035 H 
ATOM     15  H5  <0> d          -2.054  -0.205   0.535  0.00  0.00     0.035 H 
ENDBRANCH   1  12
TORSDOF 1
