REMARK  1 active torsions:
REMARK  status: ('A' for Active; 'I' for Inactive)
REMARK    1  A    between atoms: C3_3  and  C5_6 
ROOT
ATOM      1  C1  <0> d          -1.192   1.776   0.017  0.00  0.00    -0.075 A 
ATOM      2  C2  <0> d          -0.013   1.076   0.008  0.00  0.00    -0.059 A 
ATOM      3  C3  <0> d           1.161   1.816   0.001  0.00  0.00     0.081 A 
ATOM      4  S1  <0> d           0.539   3.488   0.016  0.00  0.00    -0.095 SA
ATOM      5  C4  <0> d          -1.158   3.135   0.030  0.00  0.00    -0.044 A 
ATOM      6  H1  <0> d          -2.138   1.253   0.019  0.00  0.00     0.084 H 
ATOM      7  H2  <0> d           0.002  -0.004   0.002  0.00  0.00     0.086 H 
ATOM      8  H3  <0> d          -1.987   3.827   0.041  0.00  0.00     0.095 H 
ENDROOT
BRANCH   3   9
ATOM      9  C5  <0> d           2.547   1.347  -0.015  0.00  0.00     0.216 C 
ATOM     10  O1  <0> d           2.786   0.154  -0.023  0.00  0.00    -0.643 OA
ATOM     11  O2  <0> d           3.561   2.237  -0.020  0.00  0.00    -0.643 OA
ENDBRANCH   3   9
TORSDOF 1
