REMARK  2 active torsions:
REMARK  status: ('A' for Active; 'I' for Inactive)
REMARK    1  A    between atoms: C2_3  and  C3_5 
REMARK    2  A    between atoms: C2_3  and  N3_8 
REMARK       I    between atoms: C3_5  and  N2_7 
ROOT
ATOM      1  C1  <0> d           0.002  -0.004   0.002  0.00  0.00     0.105 C 
ATOM      2  N1  <0> d           0.018  -1.140  -0.004  0.00  0.00    -0.194 NA
ATOM      3  C2  <0> d          -0.018   1.468   0.010  0.00  0.00     0.286 C 
ATOM      4  H1  <0> d           1.005   1.845   0.002  0.00  0.00     0.127 H 
ENDROOT
BRANCH   3   5
ATOM      5  C3  <0> d          -0.723   1.954   1.250  0.00  0.00     0.262 C 
ATOM      6  O1  <0> d          -1.880   2.313   1.188  0.00  0.00    -0.270 OA
ATOM      7  N2  <0> d          -0.069   1.990   2.428  0.00  0.00    -0.367 N 
ATOM      8  H2  <0> d           0.857   1.703   2.477  0.00  0.00     0.159 HD
ATOM      9  H3  <0> d          -0.522   2.303   3.225  0.00  0.00     0.159 HD
ENDBRANCH   3   5
BRANCH   3  10
ATOM     10  N3  <0> d          -0.728   1.954  -1.180  0.00  0.00     0.105 N 
ATOM     11  H4  <0> d          -0.239   1.696  -2.024  0.00  0.00     0.315 HD
ATOM     12  H5  <0> d          -1.679   1.618  -1.196  0.00  0.00     0.315 HD
ENDBRANCH   3  10
TORSDOF 2
