REMARK  2 active torsions:
REMARK  status: ('A' for Active; 'I' for Inactive)
REMARK    1  A    between atoms: C1_1  and  N1_2 
REMARK    2  A    between atoms: C2_3  and  N3_11 
ROOT
ATOM      1  N1  <0> d          -1.193   3.127   0.030  0.00  0.00    -0.290 N 
ATOM      2  C2  <0> d          -1.200   1.753   0.017  0.00  0.00     0.109 A 
ATOM      3  C3  <0> d          -0.013   1.076   0.008  0.00  0.00     0.025 A 
ATOM      4  C4  <0> d           1.187   1.804   0.000  0.00  0.00     0.252 A 
ATOM      5  O1  <0> d           2.258   1.221  -0.013  0.00  0.00    -0.268 OA
ATOM      6  N2  <0> d           1.149   3.151   0.008  0.00  0.00    -0.275 N 
ATOM      7  H1  <0> d           2.002   3.671   0.003  0.00  0.00     0.173 HD
ATOM      8  C5  <0> d          -0.029   3.801   0.023  0.00  0.00     0.330 A 
ATOM      9  O2  <0> d          -0.042   5.017   0.030  0.00  0.00    -0.246 OA
ATOM     10  H5  <0> d           0.002  -0.004   0.002  0.00  0.00     0.098 H 
ENDROOT
BRANCH   1  11
ATOM     11  C1  <0> d          -2.461   3.861   0.046  0.00  0.00    -0.008 C 
ATOM     12  H2  <0> d          -2.260   4.933   0.050  0.00  0.00     0.057 H 
ATOM     13  H3  <0> d          -3.041   3.603  -0.840  0.00  0.00     0.057 H 
ATOM     14  H4  <0> d          -3.024   3.594   0.940  0.00  0.00     0.057 H 
ENDBRANCH   1  11
BRANCH   2  15
ATOM     15  N3  <0> d          -2.388   1.067   0.018  0.00  0.00    -0.385 N 
ATOM     16  H6  <0> d          -2.388   0.097   0.013  0.00  0.00     0.157 HD
ATOM     17  H7  <0> d          -3.228   1.552   0.025  0.00  0.00     0.157 HD
ENDBRANCH   2  15
TORSDOF 2
