REMARK  3 active torsions:
REMARK  status: ('A' for Active; 'I' for Inactive)
REMARK    1  A    between atoms: C1_1  and  C2_2 
REMARK    2  A    between atoms: C5_5  and  C9_10 
REMARK    3  A    between atoms: C6_6  and  C8_8 
ROOT
ATOM      1  C2  <0> d          -1.270   3.093   0.022  0.00  0.00    -0.061 A 
ATOM      2  C3  <0> d          -1.183   1.735   0.275  0.00  0.00    -0.077 A 
ATOM      3  C4  <0> d           0.048   1.103   0.273  0.00  0.00    -0.076 A 
ATOM      4  C5  <0> d           1.196   1.821   0.009  0.00  0.00    -0.045 A 
ATOM      5  C6  <0> d           1.114   3.190  -0.252  0.00  0.00     0.047 A 
ATOM      6  C7  <0> d          -0.131   3.823  -0.244  0.00  0.00    -0.060 A 
ATOM      7  H4  <0> d          -2.079   1.167   0.478  0.00  0.00     0.084 H 
ATOM      8  H5  <0> d           0.110   0.043   0.474  0.00  0.00     0.084 H 
ATOM      9  H6  <0> d          -0.201   4.882  -0.445  0.00  0.00     0.086 H 
ENDROOT
BRANCH   1  10
ATOM     10  C1  <0> d          -2.615   3.774   0.032  0.00  0.00    -0.051 C 
ATOM     11  H1  <0> d          -3.046   3.741  -0.969  0.00  0.00     0.033 H 
ATOM     12  H2  <0> d          -3.277   3.261   0.730  0.00  0.00     0.033 H 
ATOM     13  H3  <0> d          -2.494   4.812   0.341  0.00  0.00     0.033 H 
ENDBRANCH   1  10
BRANCH   5  14
ATOM     14  C8  <0> d           2.338   3.966  -0.536  0.00  0.00     0.209 C 
ATOM     15  O1  <0> d           3.405   3.396  -0.655  0.00  0.00    -0.644 OA
ATOM     16  O2  <0> d           2.273   5.305  -0.664  0.00  0.00    -0.644 OA
ENDBRANCH   5  14
BRANCH   4  17
ATOM     17  C9  <0> d           2.534   1.129   0.001  0.00  0.00    -0.050 C 
ATOM     18  H7  <0> d           2.803   0.869  -1.023  0.00  0.00     0.033 H 
ATOM     19  H8  <0> d           3.290   1.796   0.416  0.00  0.00     0.033 H 
ATOM     20  H9  <0> d           2.479   0.223   0.604  0.00  0.00     0.033 H 
ENDBRANCH   4  17
TORSDOF 3
