REMARK  0 active torsions:
REMARK  status: ('A' for Active; 'I' for Inactive)
ROOT
ATOM      1  C1  <0> d          -0.019   1.541   0.011  0.00  0.00    -0.029 C 
ATOM      2  C2  <0> d           1.486   1.909  -0.002  0.00  0.00     0.113 C 
ATOM      3  N1  <0> d           2.097   0.870   0.866  0.00  0.00     0.094 N 
ATOM      4  C3  <0> d           1.391  -0.390   0.545  0.00  0.00     0.204 A 
ATOM      5  H1  <0> d           1.974  -1.189   0.088  0.00  0.00     0.098 H 
ATOM      6  C4  <0> d           0.002  -0.004   0.002  0.00  0.00     0.049 A 
ATOM      7  H2  <0> d          -0.438  -0.510  -0.857  0.00  0.00     0.052 H 
ATOM      8  C5  <0> d           0.143  -0.745   1.357  0.00  0.00     0.280 A 
ATOM      9  F1  <0> d          -0.092  -0.018   2.530  0.00  0.00    -0.203 F 
ATOM     10  F2  <0> d          -0.242  -2.089   1.395  0.00  0.00    -0.203 F 
ATOM     11  H3  <0> d          -0.500   1.915   0.914  0.00  0.00     0.036 H 
ATOM     12  H4  <0> d          -0.517   1.925  -0.880  0.00  0.00     0.036 H 
ATOM     13  H5  <0> d           1.888   1.850  -1.013  0.00  0.00     0.079 H 
ATOM     14  H6  <0> d           1.643   2.902   0.418  0.00  0.00     0.079 H 
ATOM     15  H7  <0> d           3.086   0.785   0.688  0.00  0.00     0.316 HD
ENDROOT
TORSDOF 0
