REMARK  2 active torsions:
REMARK  status: ('A' for Active; 'I' for Inactive)
REMARK    1  A    between atoms: C3_3  and  O2_11 
REMARK    2  A    between atoms: C6_6  and  N1_7 
REMARK       I    between atoms: N1_7  and  C7_8 
REMARK       I    between atoms: C7_8  and  N2_10 
ROOT
ATOM      1  C1  <0> d          -0.019   1.526   0.010  0.00  0.00    -0.044 C 
ATOM      2  C2  <0> d           1.417   2.055  -0.000  0.00  0.00    -0.039 C 
ATOM      3  C3  <0> d           2.133   1.562  -1.259  0.00  0.00     0.035 C 
ATOM      4  C4  <0> d           2.154   0.032  -1.268  0.00  0.00    -0.039 C 
ATOM      5  C5  <0> d           0.718  -0.497  -1.257  0.00  0.00    -0.044 C 
ATOM      6  C6  <0> d           0.002  -0.004   0.002  0.00  0.00     0.014 C 
ATOM      7  H1  <0> d          -0.529   1.877   0.907  0.00  0.00     0.036 H 
ATOM      8  H2  <0> d          -0.546   1.887  -0.873  0.00  0.00     0.036 H 
ATOM      9  H3  <0> d           1.402   3.145   0.006  0.00  0.00     0.036 H 
ATOM     10  H4  <0> d           1.944   1.694   0.883  0.00  0.00     0.036 H 
ATOM     11  H5  <0> d           1.606   1.923  -2.142  0.00  0.00     0.082 H 
ATOM     12  H6  <0> d           2.664  -0.319  -2.164  0.00  0.00     0.036 H 
ATOM     13  H7  <0> d           2.681  -0.329  -0.385  0.00  0.00     0.036 H 
ATOM     14  H8  <0> d           0.191  -0.136  -2.140  0.00  0.00     0.036 H 
ATOM     15  H9  <0> d           0.733  -1.587  -1.263  0.00  0.00     0.036 H 
ATOM     16  H10 <0> d           0.529  -0.365   0.885  0.00  0.00     0.072 H 
ENDROOT
BRANCH   6  17
ATOM     17  N1  <0> d          -1.372  -0.511   0.012  0.00  0.00    -0.339 N 
ATOM     18  C7  <0> d          -1.634  -1.740   0.502  0.00  0.00     0.314 C 
ATOM     19  O1  <0> d          -0.729  -2.427   0.934  0.00  0.00    -0.248 OA
ATOM     20  N2  <0> d          -2.898  -2.206   0.511  0.00  0.00    -0.352 N 
ATOM     21  H12 <0> d          -3.620  -1.658   0.166  0.00  0.00     0.160 HD
ATOM     22  H13 <0> d          -3.086  -3.090   0.863  0.00  0.00     0.160 HD
ATOM     23  H11 <0> d          -2.094   0.037  -0.333  0.00  0.00     0.164 HD
ENDBRANCH   6  17
BRANCH   3  24
ATOM     24  O2  <0> d           3.474   2.057  -1.269  0.00  0.00    -0.396 OA
ATOM     25  H14 <0> d           3.988   1.782  -2.041  0.00  0.00     0.210 HD
ENDBRANCH   3  24
TORSDOF 2
