REMARK  1 active torsions:
REMARK  status: ('A' for Active; 'I' for Inactive)
REMARK    1  A    between atoms: C5_6  and  O3_12 
ROOT
ATOM      1  C1  <0> d           1.154  -0.307  -0.993  0.00  0.00     0.050 C 
ATOM      2  C2  <0> d           0.002  -0.004   0.002  0.00  0.00     0.078 C 
ATOM      3  H1  <0> d          -0.950  -0.449  -0.287  0.00  0.00     0.093 H 
ATOM      4  C3  <0> d           0.478  -0.444   1.373  0.00  0.00    -0.075 C 
ATOM      5  C4  <0> d           1.386   0.281   1.995  0.00  0.00    -0.072 C 
ATOM      6  C5  <0> d           1.925   1.562   1.419  0.00  0.00     0.099 C 
ATOM      7  H2  <0> d           1.616   2.398   2.046  0.00  0.00     0.097 H 
ATOM      8  C6  <0> d           1.391   1.770  -0.002  0.00  0.00     0.159 C 
ATOM      9  H3  <0> d           1.546   2.795  -0.337  0.00  0.00     0.133 H 
ATOM     10  O1  <0> d           2.013   0.845  -0.905  0.00  0.00    -0.355 OA
ATOM     11  O2  <0> d          -0.018   1.447   0.010  0.00  0.00    -0.347 OA
ATOM     12  H4  <0> d           1.691  -1.206  -0.692  0.00  0.00     0.079 H 
ATOM     13  H5  <0> d           0.764  -0.418  -2.005  0.00  0.00     0.079 H 
ATOM     14  H6  <0> d           0.095  -1.352   1.814  0.00  0.00     0.080 H 
ATOM     15  H7  <0> d           1.743  -0.051   2.959  0.00  0.00     0.080 H 
ENDROOT
BRANCH   6  16
ATOM     16  O3  <0> d           3.352   1.499   1.383  0.00  0.00    -0.387 OA
ATOM     17  H8  <0> d           3.761   1.368   2.250  0.00  0.00     0.210 HD
ENDBRANCH   6  16
TORSDOF 1
