REMARK  3 active torsions:
REMARK  status: ('A' for Active; 'I' for Inactive)
REMARK    1  A    between atoms: C1_1  and  C2_2 
REMARK    2  A    between atoms: C1_1  and  C4_7 
REMARK    3  A    between atoms: C2_2  and  N1_3 
REMARK       I    between atoms: N1_3  and  C3_4 
REMARK       I    between atoms: C3_4  and  N2_6 
ROOT
ATOM      1  C2  <0> d          -2.479   0.930   0.019  0.00  0.00     0.006 C 
ATOM      2  H3  <0> d          -2.417   0.309  -0.875  0.00  0.00     0.064 H 
ATOM      3  H4  <0> d          -2.408   0.299   0.905  0.00  0.00     0.064 H 
ENDROOT
BRANCH   1   4
ATOM      4  C1  <0> d          -1.329   1.940   0.019  0.00  0.00     0.030 C 
ATOM      5  H1  <0> d          -1.391   2.561   0.913  0.00  0.00     0.051 H 
ATOM      6  H2  <0> d          -1.400   2.570  -0.867  0.00  0.00     0.051 H 
BRANCH   4   7
ATOM      7  C4  <0> d          -0.014   1.204   0.009  0.00  0.00     0.174 C 
ATOM      8  O2  <0> d           0.002  -0.004   0.002  0.00  0.00    -0.648 OA
ATOM      9  O3  <0> d           1.139   1.891   0.001  0.00  0.00    -0.648 OA
ENDBRANCH   4   7
ENDBRANCH   1   4
BRANCH   1  10
ATOM     10  N1  <0> d          -3.757   1.645   0.029  0.00  0.00    -0.343 N 
ATOM     11  C3  <0> d          -4.915   0.955   0.031  0.00  0.00     0.313 C 
ATOM     12  O1  <0> d          -4.899  -0.260   0.024  0.00  0.00    -0.248 OA
ATOM     13  N2  <0> d          -6.091   1.613   0.040  0.00  0.00    -0.352 N 
ATOM     14  H6  <0> d          -6.105   2.583   0.045  0.00  0.00     0.160 HD
ATOM     15  H7  <0> d          -6.925   1.117   0.041  0.00  0.00     0.160 HD
ATOM     16  H5  <0> d          -3.771   2.615   0.034  0.00  0.00     0.164 HD
ENDBRANCH   1  10
TORSDOF 3
