REMARK  2 active torsions:
REMARK  status: ('A' for Active; 'I' for Inactive)
REMARK    1  A    between atoms: C1_1  and  C2_2 
REMARK    2  A    between atoms: N1_5  and  C5_7 
ROOT
ATOM      1  C2  <0> d           2.111   0.777  -0.014  0.00  0.00     0.075 A 
ATOM      2  C3  <0> d           1.327  -0.398  -0.013  0.00  0.00     0.110 A 
ATOM      3  C4  <0> d           0.002  -0.004   0.002  0.00  0.00     0.144 A 
ATOM      4  N1  <0> d          -0.016   1.341   0.009  0.00  0.00    -0.261 N 
ATOM      5  N2  <0> d           1.305   1.802  -0.001  0.00  0.00    -0.175 NA
ATOM      6 Cl1  <0> d          -1.383  -1.051   0.009  0.00  0.00    -0.061 Cl
ATOM      7  C6  <0> d           1.813  -1.745  -0.025  0.00  0.00     0.105 C 
ATOM      8  N3  <0> d           2.199  -2.814  -0.035  0.00  0.00    -0.191 NA
ENDROOT
BRANCH   1   9
ATOM      9  C1  <0> d           3.617   0.836  -0.028  0.00  0.00    -0.032 C 
ATOM     10  H1  <0> d           3.970   0.855  -1.059  0.00  0.00     0.035 H 
ATOM     11  H2  <0> d           3.951   1.736   0.487  0.00  0.00     0.035 H 
ATOM     12  H3  <0> d           4.020  -0.042   0.477  0.00  0.00     0.035 H 
ENDBRANCH   1   9
BRANCH   4  13
ATOM     13  C5  <0> d          -1.216   2.181   0.020  0.00  0.00     0.004 C 
ATOM     14  H4  <0> d          -1.509   2.384   1.050  0.00  0.00     0.059 H 
ATOM     15  H5  <0> d          -1.006   3.121  -0.490  0.00  0.00     0.059 H 
ATOM     16  H6  <0> d          -2.027   1.663  -0.493  0.00  0.00     0.059 H 
ENDBRANCH   4  13
TORSDOF 2
