REMARK  5 active torsions:
REMARK  status: ('A' for Active; 'I' for Inactive)
REMARK    1  A    between atoms: C1_1  and  C2_2 
REMARK    2  A    between atoms: C1_1  and  N1_4 
REMARK    3  A    between atoms: C2_2  and  O1_3 
REMARK    4  A    between atoms: N1_4  and  C3_5 
REMARK    5  A    between atoms: C3_5  and  O2_6 
ROOT
ATOM      1  C1  <0> d           1.145   3.085   0.008  0.00  0.00     0.133 C 
ATOM      2  H1  <0> d           2.130   3.542  -0.089  0.00  0.00     0.083 H 
ATOM      3  H2  <0> d           0.516   3.397  -0.827  0.00  0.00     0.083 H 
ENDROOT
BRANCH   1   4
ATOM      4  C2  <0> d           1.286   1.562  -0.002  0.00  0.00     0.042 C 
ATOM      5  H3  <0> d           1.840   1.243   0.881  0.00  0.00     0.076 H 
ATOM      6  H4  <0> d           1.823   1.252  -0.899  0.00  0.00     0.076 H 
BRANCH   4   7
ATOM      7  O1  <0> d          -0.011   0.963   0.007  0.00  0.00    -0.399 OA
ATOM      8  H5  <0> d           0.002  -0.004   0.002  0.00  0.00     0.209 HD
ENDBRANCH   4   7
ENDBRANCH   1   4
BRANCH   1   9
ATOM      9  N1  <0> d           0.529   3.512   1.271  0.00  0.00     0.108 N 
ATOM     10  H6  <0> d           1.059   3.179   2.062  0.00  0.00     0.318 HD
BRANCH   9  11
ATOM     11  C3  <0> d           0.377   4.972   1.316  0.00  0.00     0.191 C 
ATOM     12  H7  <0> d           0.529   5.322   2.337  0.00  0.00     0.122 H 
ATOM     13  H8  <0> d           1.114   5.435   0.660  0.00  0.00     0.122 H 
BRANCH  11  14
ATOM     14  O2  <0> d          -0.937   5.328   0.881  0.00  0.00    -0.373 OA
ATOM     15  H9  <0> d          -1.108   6.280   0.885  0.00  0.00     0.211 HD
ENDBRANCH  11  14
ENDBRANCH   9  11
ENDBRANCH   1   9
TORSDOF 5
