REMARK  1 active torsions:
REMARK  status: ('A' for Active; 'I' for Inactive)
REMARK    1  A    between atoms: C3_3  and  O1_10 
ROOT
ATOM      1  C1  <0> d          -3.528   3.490   0.055  0.00  0.00    -0.079 A 
ATOM      2  C2  <0> d          -3.684   2.110   0.049  0.00  0.00    -0.050 A 
ATOM      3  C3  <0> d          -2.597   1.268   0.034  0.00  0.00     0.077 A 
ATOM      4  C4  <0> d          -1.279   1.794   0.018  0.00  0.00     0.015 A 
ATOM      5  C5  <0> d          -0.013   1.076   0.008  0.00  0.00    -0.063 A 
ATOM      6  C6  <0> d           1.135   1.769   0.001  0.00  0.00    -0.043 A 
ATOM      7  S1  <0> d           0.596   3.467   0.015  0.00  0.00    -0.101 SA
ATOM      8  C7  <0> d          -1.159   3.199   0.030  0.00  0.00     0.017 A 
ATOM      9  C8  <0> d          -2.259   4.032   0.045  0.00  0.00    -0.065 A 
ATOM     10  H1  <0> d          -4.394   4.134   0.066  0.00  0.00     0.083 H 
ATOM     11  H2  <0> d          -4.679   1.690   0.056  0.00  0.00     0.087 H 
ATOM     12  H3  <0> d           0.002  -0.004   0.002  0.00  0.00     0.085 H 
ATOM     13  H4  <0> d           2.146   1.388  -0.011  0.00  0.00     0.095 H 
ATOM     14  H5  <0> d          -2.127   5.104   0.050  0.00  0.00     0.085 H 
ENDROOT
BRANCH   3  15
ATOM     15  O1  <0> d          -2.787  -0.077   0.029  0.00  0.00    -0.360 OA
ATOM     16  H6  <0> d          -1.920  -0.754   0.017  0.00  0.00     0.217 HD
ENDBRANCH   3  15
TORSDOF 1
