REMARK  2 active torsions:
REMARK  status: ('A' for Active; 'I' for Inactive)
REMARK    1  A    between atoms: C2_4  and  C5_9 
REMARK    2  A    between atoms: C3_5  and  C4_7 
ROOT
ATOM      1  C1  <0> d           0.672   5.179   0.024  0.00  0.00     0.065 A 
ATOM      2  N1  <0> d           0.175   3.928   0.015  0.00  0.00    -0.343 N 
ATOM      3  H1  <0> d          -0.793   3.676   0.016  0.00  0.00     0.167 HD
ATOM      4  C2  <0> d           1.239   3.062   0.007  0.00  0.00     0.146 A 
ATOM      5  C3  <0> d           2.381   3.853   0.000  0.00  0.00     0.168 A 
ATOM      6  N2  <0> d           1.977   5.134   0.011  0.00  0.00    -0.234 NA
ATOM      7  H2  <0> d           0.082   6.083   0.034  0.00  0.00     0.143 H 
ENDROOT
BRANCH   4   8
ATOM      8  C5  <0> d           1.182   1.591  -0.001  0.00  0.00     0.229 C 
ATOM      9  O2  <0> d           2.210   0.943  -0.014  0.00  0.00    -0.643 OA
ATOM     10  O4  <0> d          -0.011   0.963   0.007  0.00  0.00    -0.643 OA
ENDBRANCH   4   8
BRANCH   5  11
ATOM     11  C4  <0> d           3.779   3.375  -0.015  0.00  0.00     0.231 C 
ATOM     12  O1  <0> d           4.013   2.183  -0.023  0.00  0.00    -0.643 OA
ATOM     13  O3  <0> d           4.794   4.261  -0.020  0.00  0.00    -0.643 OA
ENDBRANCH   5  11
TORSDOF 2
