REMARK  3 active torsions:
REMARK  status: ('A' for Active; 'I' for Inactive)
REMARK    1  A    between atoms: C1_1  and  C2_2 
REMARK    2  A    between atoms: C3_3  and  C6_8 
REMARK    3  A    between atoms: N2_6  and  C5_7 
ROOT
ATOM      1  C2  <0> d           0.002  -0.004   0.002  0.00  0.00     0.044 A 
ATOM      2  C3  <0> d           0.009  -0.812  -1.100  0.00  0.00     0.156 A 
ATOM      3  N1  <0> d           0.028  -2.099  -0.662  0.00  0.00    -0.235 NA
ATOM      4  C4  <0> d           0.033  -2.100   0.639  0.00  0.00     0.067 A 
ATOM      5  N2  <0> d           0.023  -0.815   1.083  0.00  0.00    -0.347 N 
ATOM      6  H4  <0> d           0.047  -2.980   1.265  0.00  0.00     0.143 H 
ENDROOT
BRANCH   1   7
ATOM      7  C1  <0> d          -0.018   1.503   0.010  0.00  0.00    -0.035 C 
ATOM      8  H1  <0> d           1.004   1.880   0.003  0.00  0.00     0.035 H 
ATOM      9  H2  <0> d          -0.545   1.864  -0.873  0.00  0.00     0.035 H 
ATOM     10  H3  <0> d          -0.529   1.854   0.907  0.00  0.00     0.035 H 
ENDBRANCH   1   7
BRANCH   5  11
ATOM     11  C5  <0> d           0.031  -0.387   2.484  0.00  0.00    -0.013 C 
ATOM     12  H5  <0> d          -0.994  -0.294   2.842  0.00  0.00     0.057 H 
ATOM     13  H6  <0> d           0.561  -1.125   3.087  0.00  0.00     0.057 H 
ATOM     14  H7  <0> d           0.533   0.577   2.566  0.00  0.00     0.057 H 
ENDBRANCH   5  11
BRANCH   2  15
ATOM     15  C6  <0> d          -0.003  -0.371  -2.501  0.00  0.00     0.231 C 
ATOM     16  O1  <0> d          -0.020   0.824  -2.767  0.00  0.00    -0.643 OA
ATOM     17  O2  <0> d           0.005  -1.198  -3.403  0.00  0.00    -0.643 OA
ENDBRANCH   2  15
TORSDOF 3
