REMARK  2 active torsions:
REMARK  status: ('A' for Active; 'I' for Inactive)
REMARK    1  A    between atoms: C3_3  and  C7_9 
REMARK    2  A    between atoms: C7_9  and  C8_10 
ROOT
ATOM      1  C1  <0> d          -1.301   2.996  -1.105  0.00  0.00    -0.059 C 
ATOM      2  C2  <0> d          -0.060   3.879  -0.961  0.00  0.00    -0.060 C 
ATOM      3  C3  <0> d           1.202   3.030  -1.128  0.00  0.00    -0.039 C 
ATOM      4  H1  <0> d           1.171   2.518  -2.089  0.00  0.00     0.041 H 
ATOM      5  C4  <0> d           1.274   1.997   0.001  0.00  0.00    -0.006 C 
ATOM      6  C5  <0> d          -0.014   1.203   0.009  0.00  0.00     0.127 C 
ATOM      7  O1  <0> d           0.002  -0.004   0.002  0.00  0.00    -0.298 OA
ATOM      8  C6  <0> d          -1.323   1.961   0.019  0.00  0.00    -0.010 C 
ATOM      9  H2  <0> d          -2.196   3.616  -1.048  0.00  0.00     0.033 H 
ATOM     10  H3  <0> d          -1.273   2.484  -2.067  0.00  0.00     0.033 H 
ATOM     11  H4  <0> d          -0.057   4.342   0.026  0.00  0.00     0.033 H 
ATOM     12  H5  <0> d          -0.077   4.656  -1.725  0.00  0.00     0.033 H 
ATOM     13  H6  <0> d           1.393   2.466   0.875  0.00  0.00     0.044 H 
ATOM     14  H7  <0> d           2.116   1.326  -0.170  0.00  0.00     0.044 H 
ATOM     15  H8  <0> d          -2.084   1.329  -0.126  0.00  0.00     0.044 H 
ATOM     16  H9  <0> d          -1.446   2.467   0.976  0.00  0.00     0.044 H 
ENDROOT
BRANCH   3  17
ATOM     17  C7  <0> d           2.436   3.934  -1.072  0.00  0.00     0.019 C 
ATOM     18  H10 <0> d           2.342   4.723  -1.817  0.00  0.00     0.049 H 
ATOM     19  H11 <0> d           2.516   4.378  -0.080  0.00  0.00     0.049 H 
BRANCH  17  20
ATOM     20  C8  <0> d           3.670   3.117  -1.357  0.00  0.00     0.172 C 
ATOM     21  O2  <0> d           3.572   1.934  -1.582  0.00  0.00    -0.648 OA
ATOM     22  O3  <0> d           4.877   3.704  -1.361  0.00  0.00    -0.648 OA
ENDBRANCH  17  20
ENDBRANCH   3  17
TORSDOF 2
