REMARK  1 active torsions:
REMARK  status: ('A' for Active; 'I' for Inactive)
REMARK    1  A    between atoms: C1_1  and  C2_2 
ROOT
ATOM      1  C2  <0> d           0.002  -0.004   0.002  0.00  0.00    -0.061 A 
ATOM      2  C3  <0> d           0.006  -0.686  -1.202  0.00  0.00    -0.077 A 
ATOM      3  C4  <0> d           0.024  -2.071  -1.218  0.00  0.00    -0.074 A 
ATOM      4  C5  <0> d           0.039  -2.771  -0.034  0.00  0.00    -0.025 A 
ATOM      5  C6  <0> d           0.036  -2.093   1.187  0.00  0.00     0.040 A 
ATOM      6  C7  <0> d           0.023  -0.697   1.195  0.00  0.00    -0.061 A 
ATOM      7  C8  <0> d           0.055  -3.093   2.272  0.00  0.00     0.252 A 
ATOM      8  O1  <0> d           0.057  -2.830   3.458  0.00  0.00    -0.268 OA
ATOM      9  N1  <0> d           0.069  -4.336   1.760  0.00  0.00    -0.353 N 
ATOM     10  C9  <0> d           0.060  -4.243   0.295  0.00  0.00     0.020 A 
ATOM     11  H4  <0> d          -0.006  -0.137  -2.132  0.00  0.00     0.084 H 
ATOM     12  H5  <0> d           0.026  -2.600  -2.159  0.00  0.00     0.084 H 
ATOM     13  H6  <0> d           0.025  -0.161   2.132  0.00  0.00     0.085 H 
ATOM     14  H7  <0> d           0.082  -5.158   2.273  0.00  0.00     0.163 HD
ATOM     15  H8  <0> d          -0.829  -4.729  -0.106  0.00  0.00     0.071 H 
ATOM     16  H9  <0> d           0.958  -4.706  -0.115  0.00  0.00     0.071 H 
ENDROOT
BRANCH   1  17
ATOM     17  C1  <0> d          -0.018   1.503   0.010  0.00  0.00    -0.051 C 
ATOM     18  H1  <0> d           1.004   1.880   0.003  0.00  0.00     0.033 H 
ATOM     19  H2  <0> d          -0.545   1.864  -0.873  0.00  0.00     0.033 H 
ATOM     20  H3  <0> d          -0.529   1.854   0.907  0.00  0.00     0.033 H 
ENDBRANCH   1  17
TORSDOF 1
