REMARK  3 active torsions:
REMARK  status: ('A' for Active; 'I' for Inactive)
REMARK    1  A    between atoms: C1_1  and  O1_2 
REMARK    2  A    between atoms: O1_2  and  C2_3 
REMARK    3  A    between atoms: C2_3  and  C3_4 
ROOT
ATOM      1  C2  <0> d           0.652  -0.570  -1.138  0.00  0.00     0.077 C 
ATOM      2  H5  <0> d           0.139  -0.251  -2.045  0.00  0.00     0.086 H 
ATOM      3  H6  <0> d           1.688  -0.234  -1.169  0.00  0.00     0.086 H 
ENDROOT
BRANCH   1   4
ATOM      4  O1  <0> d           0.002  -0.004   0.002  0.00  0.00    -0.388 OA
BRANCH   4   5
ATOM      5  C1  <0> d          -0.017   1.425   0.010  0.00  0.00     0.004 C 
ATOM      6  H2  <0> d           1.005   1.802   0.002  0.00  0.00     0.066 H 
ATOM      7  H3  <0> d          -0.544   1.786  -0.873  0.00  0.00     0.066 H 
ATOM      8  H4  <0> d          -0.527   1.776   0.907  0.00  0.00     0.066 H 
ENDBRANCH   4   5
ENDBRANCH   1   4
BRANCH   1   9
ATOM      9  C3  <0> d           0.614  -2.074  -1.042  0.00  0.00     0.170 A 
ATOM     10  N3  <0> d          -0.332  -2.841  -1.518  0.00  0.00    -0.156 NA
ATOM     11  N2  <0> d           0.029  -4.164  -1.214  0.00  0.00    -0.270 N 
ATOM     12  C4  <0> d           1.196  -4.096  -0.551  0.00  0.00     0.082 A 
ATOM     13  H1  <0> d          -0.468  -4.968  -1.436  0.00  0.00     0.190 HD
ATOM     14  N1  <0> d           1.535  -2.836  -0.455  0.00  0.00    -0.223 NA
ATOM     15  H7  <0> d           1.756  -4.935  -0.165  0.00  0.00     0.145 H 
ENDBRANCH   1   9
TORSDOF 3
