REMARK  2 active torsions:
REMARK  status: ('A' for Active; 'I' for Inactive)
REMARK    1  A    between atoms: C1_1  and  C2_2 
REMARK    2  A    between atoms: C6_7  and  N2_8 
ROOT
ATOM      1  C2  <0> d          -1.193   3.145   0.030  0.00  0.00    -0.015 A 
ATOM      2  C3  <0> d          -1.219   1.761   0.017  0.00  0.00    -0.072 A 
ATOM      3  C4  <0> d          -0.013   1.076   0.008  0.00  0.00    -0.065 A 
ATOM      4  C5  <0> d           1.170   1.790   0.001  0.00  0.00     0.004 A 
ATOM      5  N1  <0> d           1.163   3.109   0.008  0.00  0.00    -0.242 NA
ATOM      6  C6  <0> d           0.033   3.797   0.022  0.00  0.00     0.139 A 
ATOM      7  H4  <0> d          -2.158   1.226   0.018  0.00  0.00     0.084 H 
ATOM      8  H5  <0> d           0.002  -0.004   0.002  0.00  0.00     0.085 H 
ATOM      9  H6  <0> d           2.112   1.262  -0.011  0.00  0.00     0.114 H 
ENDROOT
BRANCH   6  10
ATOM     10  N2  <0> d           0.074   5.195   0.030  0.00  0.00    -0.317 N 
ATOM     11  C10 <0> d           1.012   5.961   0.662  0.00  0.00    -0.014 A 
ATOM     12  C9  <0> d           0.716   7.257   0.440  0.00  0.00    -0.066 A 
ATOM     13  H10 <0> d           1.847   5.592   1.240  0.00  0.00     0.112 H 
ATOM     14  C8  <0> d          -0.446   7.296  -0.358  0.00  0.00    -0.066 A 
ATOM     15  H9  <0> d           1.267   8.111   0.806  0.00  0.00     0.085 H 
ATOM     16  C7  <0> d          -0.814   6.021  -0.599  0.00  0.00    -0.014 A 
ATOM     17  H8  <0> d          -0.947   8.183  -0.714  0.00  0.00     0.085 H 
ATOM     18  H7  <0> d          -1.665   5.708  -1.185  0.00  0.00     0.112 H 
ENDBRANCH   6  10
BRANCH   1  19
ATOM     19  C1  <0> d          -2.477   3.933   0.046  0.00  0.00    -0.048 C 
ATOM     20  H1  <0> d          -2.797   4.128  -0.977  0.00  0.00     0.033 H 
ATOM     21  H2  <0> d          -3.248   3.362   0.565  0.00  0.00     0.033 H 
ATOM     22  H3  <0> d          -2.317   4.879   0.564  0.00  0.00     0.033 H 
ENDBRANCH   1  19
TORSDOF 2
