REMARK  3 active torsions:
REMARK  status: ('A' for Active; 'I' for Inactive)
REMARK    1  A    between atoms: C1_1  and  O1_2 
REMARK    2  A    between atoms: O1_2  and  C2_3 
REMARK    3  A    between atoms: C2_3  and  C3_5 
ROOT
ATOM      1  C3  <0> d           0.679  -2.115   1.088  0.00  0.00     0.035 C 
ATOM      2  C4  <0> d          -0.593  -2.761   1.665  0.00  0.00    -0.026 C 
ATOM      3  C5  <0> d           0.334  -3.742   2.401  0.00  0.00     0.074 C 
ATOM      4  C6  <0> d           1.417  -2.654   2.325  0.00  0.00    -0.026 C 
ATOM      5  O3  <0> d           0.645  -4.914   1.644  0.00  0.00    -0.235 OA
ATOM      6  H4  <0> d           1.011  -2.563   0.152  0.00  0.00     0.055 H 
ATOM      7  H5  <0> d          -1.152  -2.104   2.331  0.00  0.00     0.038 H 
ATOM      8  H6  <0> d          -1.221  -3.236   0.911  0.00  0.00     0.038 H 
ATOM      9  H7  <0> d           0.012  -3.967   3.418  0.00  0.00     0.088 H 
ATOM     10  H8  <0> d           2.412  -3.042   2.105  0.00  0.00     0.038 H 
ATOM     11  H9  <0> d           1.408  -1.968   3.172  0.00  0.00     0.038 H 
ENDROOT
BRANCH   1  12
ATOM     12  C2  <0> d           0.618  -0.611   1.029  0.00  0.00     0.262 C 
ATOM     13  O2  <0> d           1.124   0.049   1.905  0.00  0.00    -0.265 OA
BRANCH  12  14
ATOM     14  O1  <0> d           0.002  -0.004   0.002  0.00  0.00    -0.326 OA
BRANCH  14  15
ATOM     15  C1  <0> d          -0.017   1.425   0.010  0.00  0.00     0.013 C 
ATOM     16  H1  <0> d           1.005   1.802   0.002  0.00  0.00     0.067 H 
ATOM     17  H2  <0> d          -0.544   1.786  -0.873  0.00  0.00     0.067 H 
ATOM     18  H3  <0> d          -0.527   1.776   0.907  0.00  0.00     0.067 H 
ENDBRANCH  14  15
ENDBRANCH  12  14
ENDBRANCH   1  12
TORSDOF 3
