REMARK  1 active torsions:
REMARK  status: ('A' for Active; 'I' for Inactive)
REMARK    1  A    between atoms: C1_1  and  C2_2 
ROOT
ATOM      1  C2  <0> d           0.002  -0.004   0.002  0.00  0.00    -0.022 A 
ATOM      2  C3  <0> d           0.006  -0.689  -1.199  0.00  0.00    -0.053 A 
ATOM      3  C4  <0> d           0.025  -2.072  -1.206  0.00  0.00     0.034 A 
ATOM      4  C5  <0> d           0.041  -2.771  -0.012  0.00  0.00    -0.059 A 
ATOM      5  C6  <0> d           0.036  -2.087   1.189  0.00  0.00    -0.044 A 
ATOM      6  C7  <0> d           0.023  -0.703   1.197  0.00  0.00     0.122 A 
ATOM      7  F1  <0> d           0.025  -0.034   2.371  0.00  0.00    -0.206 F 
ATOM      8 Cl1  <0> d           0.029  -2.931  -2.715  0.00  0.00    -0.084 Cl
ATOM      9  H4  <0> d          -0.007  -0.144  -2.131  0.00  0.00     0.087 H 
ATOM     10  H5  <0> d           0.056  -3.851  -0.019  0.00  0.00     0.086 H 
ATOM     11  H6  <0> d           0.048  -2.633   2.121  0.00  0.00     0.088 H 
ENDROOT
BRANCH   1  12
ATOM     12  C1  <0> d          -0.018   1.503   0.010  0.00  0.00    -0.048 C 
ATOM     13  H1  <0> d           1.004   1.880   0.003  0.00  0.00     0.033 H 
ATOM     14  H2  <0> d          -0.545   1.864  -0.873  0.00  0.00     0.033 H 
ATOM     15  H3  <0> d          -0.529   1.854   0.907  0.00  0.00     0.033 H 
ENDBRANCH   1  12
TORSDOF 1
