REMARK  6 active torsions:
REMARK  status: ('A' for Active; 'I' for Inactive)
REMARK    1  A    between atoms: C1_1  and  C2_2 
REMARK    2  A    between atoms: C3_3  and  C7_10 
REMARK    3  A    between atoms: C4_4  and  C6_9 
REMARK    4  A    between atoms: N1_5  and  C5_7 
REMARK    5  A    between atoms: C5_7  and  O1_8 
REMARK    6  A    between atoms: C7_10  and  O2_11 
ROOT
ATOM      1  C2  <0> d           0.002  -0.004   0.002  0.00  0.00     0.061 A 
ATOM      2  C3  <0> d           0.008  -0.818  -1.135  0.00  0.00     0.015 A 
ATOM      3  C4  <0> d           0.028  -2.107  -0.725  0.00  0.00     0.039 A 
ATOM      4  N1  <0> d           0.034  -2.109   0.625  0.00  0.00    -0.250 N 
ATOM      5  N2  <0> d           0.023  -0.777   1.058  0.00  0.00    -0.175 NA
ENDROOT
BRANCH   2   6
ATOM      6  C7  <0> d          -0.006  -0.343  -2.566  0.00  0.00     0.044 C 
ATOM      7  H10 <0> d          -0.513  -1.080  -3.188  0.00  0.00     0.081 H 
ATOM      8  H11 <0> d          -0.534   0.609  -2.627  0.00  0.00     0.081 H 
BRANCH   6   9
ATOM      9  O2  <0> d           1.337  -0.174  -3.025  0.00  0.00    -0.396 OA
ATOM     10  H12 <0> d           1.404   0.131  -3.940  0.00  0.00     0.209 HD
ENDBRANCH   6   9
ENDBRANCH   2   6
BRANCH   1  11
ATOM     11  C1  <0> d          -0.018   1.503   0.010  0.00  0.00    -0.033 C 
ATOM     12  H1  <0> d           1.004   1.880   0.003  0.00  0.00     0.035 H 
ATOM     13  H2  <0> d          -0.545   1.864  -0.873  0.00  0.00     0.035 H 
ATOM     14  H3  <0> d          -0.529   1.854   0.907  0.00  0.00     0.035 H 
ENDBRANCH   1  11
BRANCH   3  15
ATOM     15  C6  <0> d           0.040  -3.323  -1.615  0.00  0.00    -0.035 C 
ATOM     16  H7  <0> d           1.071  -3.602  -1.835  0.00  0.00     0.035 H 
ATOM     17  H8  <0> d          -0.460  -4.149  -1.109  0.00  0.00     0.035 H 
ATOM     18  H9  <0> d          -0.482  -3.098  -2.545  0.00  0.00     0.035 H 
ENDBRANCH   3  15
BRANCH   4  19
ATOM     19  C5  <0> d           0.055  -3.295   1.485  0.00  0.00     0.097 C 
ATOM     20  H4  <0> d          -0.458  -3.073   2.421  0.00  0.00     0.109 H 
ATOM     21  H5  <0> d          -0.450  -4.119   0.980  0.00  0.00     0.109 H 
BRANCH  19  22
ATOM     22  O1  <0> d           1.409  -3.662   1.758  0.00  0.00    -0.380 OA
ATOM     23  H6  <0> d           1.498  -4.441   2.324  0.00  0.00     0.211 HD
ENDBRANCH  19  22
ENDBRANCH   4  19
TORSDOF 6
