REMARK  3 active torsions:
REMARK  status: ('A' for Active; 'I' for Inactive)
REMARK    1  A    between atoms: C1_1  and  O1_2 
REMARK    2  A    between atoms: O1_2  and  C2_3 
REMARK    3  A    between atoms: C2_3  and  C3_5 
ROOT
ATOM      1  C3  <0> d          -1.270  -0.762   0.010  0.00  0.00     0.131 A 
ATOM      2  C4  <0> d          -1.244  -2.155   0.002  0.00  0.00    -0.049 A 
ATOM      3  C5  <0> d          -2.443  -2.850   0.011  0.00  0.00    -0.079 A 
ATOM      4  C6  <0> d          -3.627  -2.128   0.026  0.00  0.00    -0.066 A 
ATOM      5  C7  <0> d          -3.577  -0.743   0.033  0.00  0.00     0.003 A 
ATOM      6  N1  <0> d          -2.425  -0.108   0.030  0.00  0.00    -0.255 NA
ATOM      7  H4  <0> d          -0.304  -2.686  -0.009  0.00  0.00     0.087 H 
ATOM      8  H5  <0> d          -2.456  -3.930   0.004  0.00  0.00     0.083 H 
ATOM      9  H6  <0> d          -4.577  -2.640   0.033  0.00  0.00     0.085 H 
ATOM     10  H7  <0> d          -4.497  -0.177   0.045  0.00  0.00     0.114 H 
ENDROOT
BRANCH   1  11
ATOM     11  C2  <0> d           0.002  -0.004   0.002  0.00  0.00     0.311 C 
ATOM     12  O2  <0> d           1.062  -0.597  -0.011  0.00  0.00    -0.258 OA
BRANCH  11  13
ATOM     13  O1  <0> d          -0.016   1.343   0.009  0.00  0.00    -0.321 OA
BRANCH  13  14
ATOM     14  C1  <0> d           1.268   2.019   0.001  0.00  0.00     0.013 C 
ATOM     15  H1  <0> d           1.838   1.729   0.884  0.00  0.00     0.067 H 
ATOM     16  H2  <0> d           1.821   1.739  -0.896  0.00  0.00     0.067 H 
ATOM     17  H3  <0> d           1.111   3.098   0.008  0.00  0.00     0.067 H 
ENDBRANCH  13  14
ENDBRANCH  11  13
ENDBRANCH   1  11
TORSDOF 3
