REMARK  6 active torsions:
REMARK  status: ('A' for Active; 'I' for Inactive)
REMARK    1  A    between atoms: C1_1  and  C2_2 
REMARK    2  A    between atoms: C2_2  and  C3_3 
REMARK    3  A    between atoms: C3_3  and  C4_4 
REMARK    4  A    between atoms: C4_4  and  C5_6 
REMARK    5  A    between atoms: C4_4  and  N1_8 
REMARK       I    between atoms: N1_8  and  C6_9 
REMARK    6  A    between atoms: C6_9  and  C7_11 
ROOT
ATOM      1  C4  <0> d          -0.013   1.086   0.008  0.00  0.00     0.096 C 
ATOM      2  H1  <0> d           0.002  -0.004   0.002  0.00  0.00     0.089 H 
ENDROOT
BRANCH   1   3
ATOM      3  C3  <0> d          -0.729   1.579   1.267  0.00  0.00    -0.037 C 
ATOM      4  H7  <0> d          -0.666   2.666   1.318  0.00  0.00     0.036 H 
ATOM      5  H8  <0> d          -1.776   1.277   1.232  0.00  0.00     0.036 H 
BRANCH   3   6
ATOM      6  C2  <0> d          -0.064   0.971   2.503  0.00  0.00    -0.066 C 
ATOM      7  H5  <0> d          -0.126  -0.116   2.452  0.00  0.00     0.032 H 
ATOM      8  H6  <0> d           0.983   1.274   2.539  0.00  0.00     0.032 H 
BRANCH   6   9
ATOM      9  C1  <0> d          -0.780   1.465   3.762  0.00  0.00    -0.076 C 
ATOM     10  H2  <0> d          -0.717   2.552   3.813  0.00  0.00     0.027 H 
ATOM     11  H3  <0> d          -1.827   1.162   3.727  0.00  0.00     0.027 H 
ATOM     12  H4  <0> d          -0.306   1.032   4.643  0.00  0.00     0.027 H 
ENDBRANCH   6   9
ENDBRANCH   3   6
ENDBRANCH   1   3
BRANCH   1  13
ATOM     13  C5  <0> d          -0.742   1.585  -1.213  0.00  0.00     0.196 C 
ATOM     14  O1  <0> d          -0.172   2.292  -2.010  0.00  0.00    -0.646 OA
ATOM     15  O3  <0> d          -2.024   1.244  -1.415  0.00  0.00    -0.646 OA
ENDBRANCH   1  13
BRANCH   1  16
ATOM     16  N1  <0> d           1.362   1.593  -0.002  0.00  0.00    -0.347 N 
ATOM     17  C6  <0> d           2.318   0.933  -0.685  0.00  0.00     0.214 C 
ATOM     18  O2  <0> d           2.042  -0.081  -1.290  0.00  0.00    -0.274 OA
ATOM     19  H9  <0> d           1.583   2.404   0.482  0.00  0.00     0.163 HD
BRANCH  17  20
ATOM     20  C7  <0> d           3.732   1.454  -0.695  0.00  0.00    -0.003 C 
ATOM     21  H10 <0> d           4.285   1.023   0.139  0.00  0.00     0.040 H 
ATOM     22  H11 <0> d           4.215   1.178  -1.633  0.00  0.00     0.040 H 
ATOM     23  H12 <0> d           3.720   2.540  -0.600  0.00  0.00     0.040 H 
ENDBRANCH  17  20
ENDBRANCH   1  16
TORSDOF 6
