REMARK  3 active torsions:
REMARK  status: ('A' for Active; 'I' for Inactive)
REMARK    1  A    between atoms: C1_1  and  C2_2 
REMARK    2  A    between atoms: C4_4  and  N2_11 
REMARK    3  A    between atoms: C7_7  and  C8_8 
REMARK       I    between atoms: C8_8  and  N1_10 
ROOT
ATOM      1  C2  <0> d          -0.230  -0.027   0.036  0.00  0.00    -0.044 A 
ATOM      2  C3  <0> d          -0.330  -0.710  -1.155  0.00  0.00    -0.051 A 
ATOM      3  C4  <0> d          -0.080  -2.079  -1.197  0.00  0.00     0.026 A 
ATOM      4  C5  <0> d           0.272  -2.761  -0.036  0.00  0.00    -0.057 A 
ATOM      5  C6  <0> d           0.373  -2.085   1.158  0.00  0.00    -0.065 A 
ATOM      6  C7  <0> d           0.129  -0.709   1.203  0.00  0.00     0.037 A 
ATOM      7  H4  <0> d          -0.603  -0.183  -2.057  0.00  0.00     0.087 H 
ATOM      8  H5  <0> d           0.465  -3.823  -0.072  0.00  0.00     0.086 H 
ATOM      9  H6  <0> d           0.645  -2.615   2.059  0.00  0.00     0.085 H 
ENDROOT
BRANCH   6  10
ATOM     10  C8  <0> d           0.242   0.021   2.479  0.00  0.00     0.249 C 
ATOM     11  O1  <0> d           0.141   1.233   2.498  0.00  0.00    -0.268 OA
ATOM     12  N1  <0> d           0.459  -0.655   3.625  0.00  0.00    -0.366 N 
ATOM     13  H7  <0> d           0.540  -1.621   3.610  0.00  0.00     0.159 HD
ATOM     14  H8  <0> d           0.533  -0.175   4.465  0.00  0.00     0.159 HD
ENDBRANCH   6  10
BRANCH   1  15
ATOM     15  C1  <0> d          -0.502   1.454   0.081  0.00  0.00    -0.050 C 
ATOM     16  H1  <0> d           0.441   1.998   0.018  0.00  0.00     0.033 H 
ATOM     17  H2  <0> d          -1.139   1.733  -0.759  0.00  0.00     0.033 H 
ATOM     18  H3  <0> d          -1.004   1.704   1.016  0.00  0.00     0.033 H 
ENDBRANCH   1  15
BRANCH   3  19
ATOM     19  N2  <0> d          -0.182  -2.766  -2.402  0.00  0.00    -0.399 N 
ATOM     20  H9  <0> d          -0.427  -2.291  -3.211  0.00  0.00     0.156 HD
ATOM     21  H10 <0> d          -0.008  -3.720  -2.432  0.00  0.00     0.156 HD
ENDBRANCH   3  19
TORSDOF 3
