REMARK  2 active torsions:
REMARK  status: ('A' for Active; 'I' for Inactive)
REMARK    1  A    between atoms: C3_3  and  C7_9 
REMARK    2  A    between atoms: C4_5  and  C5_6 
ROOT
ATOM      1  C5  <0> d           3.596   0.810  -0.028  0.00  0.00     0.059 C 
ATOM      2  C6  <0> d           4.074   0.842  -1.420  0.00  0.00     0.065 C 
ATOM      3  N1  <0> d           4.442   0.867  -2.494  0.00  0.00    -0.197 NA
ATOM      4  H3  <0> d           3.919   1.715   0.488  0.00  0.00     0.065 H 
ATOM      5  H4  <0> d           4.009  -0.063   0.478  0.00  0.00     0.065 H 
ENDROOT
BRANCH   1   6
ATOM      6  C4  <0> d           2.091   0.734  -0.014  0.00  0.00     0.066 A 
ATOM      7  C1  <0> d           1.361  -0.395  -0.013  0.00  0.00    -0.051 A 
ATOM      8  C2  <0> d           0.002  -0.004   0.002  0.00  0.00    -0.051 A 
ATOM      9  H1  <0> d           1.739  -1.407  -0.022  0.00  0.00     0.087 H 
ATOM     10  C3  <0> d          -0.016   1.341   0.009  0.00  0.00     0.066 A 
ATOM     11  H2  <0> d          -0.856  -0.659   0.007  0.00  0.00     0.087 H 
ATOM     12  O1  <0> d           1.252   1.783  -0.000  0.00  0.00    -0.318 OA
BRANCH  10  13
ATOM     13  C7  <0> d          -1.250   2.205   0.020  0.00  0.00     0.059 C 
ATOM     14  C8  <0> d          -1.645   2.479   1.411  0.00  0.00     0.065 C 
ATOM     15  N2  <0> d          -1.950   2.691   2.485  0.00  0.00    -0.197 NA
ATOM     16  H5  <0> d          -1.040   3.146  -0.490  0.00  0.00     0.065 H 
ATOM     17  H6  <0> d          -2.061   1.688  -0.492  0.00  0.00     0.065 H 
ENDBRANCH  10  13
ENDBRANCH   1   6
TORSDOF 2
