REMARK  3 active torsions:
REMARK  status: ('A' for Active; 'I' for Inactive)
REMARK    1  A    between atoms: C1_1  and  C2_2 
REMARK    2  A    between atoms: C4_4  and  C7_10 
REMARK    3  A    between atoms: C6_7  and  N2_8 
ROOT
ATOM      1  C2  <0> d           1.228  -0.662  -0.013  0.00  0.00    -0.031 A 
ATOM      2  C3  <0> d           2.385   0.101  -0.020  0.00  0.00    -0.051 A 
ATOM      3  C4  <0> d           2.286   1.479  -0.012  0.00  0.00     0.033 A 
ATOM      4  N1  <0> d           1.109   2.074   0.003  0.00  0.00    -0.239 NA
ATOM      5  C5  <0> d          -0.017   1.387   0.010  0.00  0.00     0.152 A 
ATOM      6  C6  <0> d           0.002  -0.004   0.002  0.00  0.00     0.072 A 
ATOM      7 Cl1  <0> d          -1.536   2.226   0.021  0.00  0.00    -0.060 Cl
ATOM      8  H4  <0> d           3.354  -0.377  -0.032  0.00  0.00     0.087 H 
ENDROOT
BRANCH   1   9
ATOM      9  C1  <0> d           1.296  -2.168  -0.022  0.00  0.00    -0.049 C 
ATOM     10  H1  <0> d           1.303  -2.525  -1.052  0.00  0.00     0.033 H 
ATOM     11  H2  <0> d           2.206  -2.494   0.481  0.00  0.00     0.033 H 
ATOM     12  H3  <0> d           0.428  -2.574   0.497  0.00  0.00     0.033 H 
ENDBRANCH   1   9
BRANCH   6  13
ATOM     13  N2  <0> d          -1.192  -0.730   0.009  0.00  0.00    -0.396 N 
ATOM     14  H5  <0> d          -2.043  -0.264   0.019  0.00  0.00     0.156 HD
ATOM     15  H6  <0> d          -1.171  -1.700   0.004  0.00  0.00     0.156 HD
ENDBRANCH   6  13
BRANCH   3  16
ATOM     16  C7  <0> d           3.540   2.314  -0.019  0.00  0.00    -0.035 C 
ATOM     17  H7  <0> d           3.833   2.521  -1.049  0.00  0.00     0.035 H 
ATOM     18  H8  <0> d           3.354   3.253   0.501  0.00  0.00     0.035 H 
ATOM     19  H9  <0> d           4.341   1.772   0.484  0.00  0.00     0.035 H 
ENDBRANCH   3  16
TORSDOF 3
