REMARK  2 active torsions:
REMARK  status: ('A' for Active; 'I' for Inactive)
REMARK    1  A    between atoms: C1_1  and  C2_2 
REMARK    2  A    between atoms: C2_2  and  N1_3 
ROOT
ATOM      1  N1  <0> d          -0.016   1.342   0.009  0.00  0.00    -0.325 N 
ATOM      2  C3  <0> d           1.141   2.052   0.002  0.00  0.00    -0.017 A 
ATOM      3  C4  <0> d           2.338   1.422  -0.013  0.00  0.00    -0.068 A 
ATOM      4  C5  <0> d           2.392   0.021  -0.021  0.00  0.00    -0.076 A 
ATOM      5  C6  <0> d           1.228  -0.691  -0.013  0.00  0.00    -0.017 A 
ATOM      6  C7  <0> d           0.002  -0.004   0.002  0.00  0.00     0.247 A 
ATOM      7  O1  <0> d          -1.047  -0.628   0.008  0.00  0.00    -0.268 OA
ATOM      8  H6  <0> d           1.106   3.132   0.008  0.00  0.00     0.111 H 
ATOM      9  H7  <0> d           3.252   1.997  -0.019  0.00  0.00     0.085 H 
ATOM     10  H8  <0> d           3.344  -0.489  -0.033  0.00  0.00     0.083 H 
ATOM     11  H9  <0> d           1.249  -1.770  -0.020  0.00  0.00     0.092 H 
ENDROOT
BRANCH   1  12
ATOM     12  C2  <0> d          -1.299   2.049   0.019  0.00  0.00    -0.001 C 
ATOM     13  H4  <0> d          -1.191   3.007  -0.490  0.00  0.00     0.064 H 
ATOM     14  H5  <0> d          -2.049   1.448  -0.494  0.00  0.00     0.064 H 
BRANCH  12  15
ATOM     15  C1  <0> d          -1.739   2.287   1.465  0.00  0.00    -0.061 C 
ATOM     16  H1  <0> d          -1.848   1.330   1.974  0.00  0.00     0.029 H 
ATOM     17  H2  <0> d          -0.989   2.889   1.979  0.00  0.00     0.029 H 
ATOM     18  H3  <0> d          -2.694   2.813   1.473  0.00  0.00     0.029 H 
ENDBRANCH  12  15
ENDBRANCH   1  12
TORSDOF 2
