REMARK  2 active torsions:
REMARK  status: ('A' for Active; 'I' for Inactive)
REMARK    1  A    between atoms: C3_3  and  N1_11 
REMARK    2  A    between atoms: C6_6  and  C7_7 
ROOT
ATOM      1  C1  <0> d           1.162   3.165   0.007  0.00  0.00    -0.074 A 
ATOM      2  C2  <0> d          -0.041   3.846   0.022  0.00  0.00    -0.054 A 
ATOM      3  C3  <0> d          -1.236   3.141   0.030  0.00  0.00     0.064 A 
ATOM      4  C4  <0> d          -1.219   1.750   0.017  0.00  0.00     0.143 A 
ATOM      5  C5  <0> d          -0.013   1.076   0.008  0.00  0.00    -0.037 A 
ATOM      6  C6  <0> d           1.176   1.783   0.000  0.00  0.00    -0.051 A 
ATOM      7  F1  <0> d          -2.380   1.060   0.019  0.00  0.00    -0.204 F 
ATOM      8  H1  <0> d           2.092   3.714   0.002  0.00  0.00     0.084 H 
ATOM      9  H2  <0> d          -0.050   4.926   0.027  0.00  0.00     0.087 H 
ATOM     10  H3  <0> d           0.002  -0.004   0.002  0.00  0.00     0.089 H 
ENDROOT
BRANCH   6  11
ATOM     11  C7  <0> d           2.490   1.045  -0.015  0.00  0.00    -0.028 A 
ATOM     12  C9  <0> d           3.428   1.298  -1.197  0.00  0.00    -0.057 A 
ATOM     13  C8  <0> d           3.765   1.868   0.183  0.00  0.00    -0.057 A 
ATOM     14  H7  <0> d           4.025   0.459  -1.554  0.00  0.00     0.034 H 
ATOM     15  H8  <0> d           3.095   1.998  -1.963  0.00  0.00     0.034 H 
ATOM     16  H5  <0> d           3.653   2.943   0.325  0.00  0.00     0.034 H 
ATOM     17  H6  <0> d           4.583   1.403   0.734  0.00  0.00     0.034 H 
ATOM     18  H4  <0> d           2.469   0.040   0.405  0.00  0.00     0.047 H 
ENDBRANCH   6  11
BRANCH   3  19
ATOM     19  N1  <0> d          -2.454   3.827   0.045  0.00  0.00    -0.397 N 
ATOM     20  H9  <0> d          -2.465   4.797   0.050  0.00  0.00     0.156 HD
ATOM     21  H10 <0> d          -3.289   3.333   0.050  0.00  0.00     0.156 HD
ENDBRANCH   3  19
TORSDOF 2
