REMARK  5 active torsions:
REMARK  status: ('A' for Active; 'I' for Inactive)
REMARK    1  A    between atoms: C1_1  and  C2_2 
REMARK    2  A    between atoms: C2_2  and  C3_3 
REMARK    3  A    between atoms: C3_3  and  O1_4 
REMARK    4  A    between atoms: O1_4  and  C4_5 
REMARK    5  A    between atoms: C4_5  and  C5_7 
ROOT
ATOM      1  C5  <0> d          -1.329   1.940   0.019  0.00  0.00     0.095 C 
ATOM      2  C6  <0> d          -2.435   0.968   0.019  0.00  0.00     0.069 C 
ATOM      3  N1  <0> d          -3.289   0.218   0.019  0.00  0.00    -0.197 NA
ATOM      4  H8  <0> d          -1.391   2.561   0.913  0.00  0.00     0.070 H 
ATOM      5  H9  <0> d          -1.400   2.570  -0.867  0.00  0.00     0.070 H 
ENDROOT
BRANCH   1   6
ATOM      6  C4  <0> d          -0.014   1.204   0.009  0.00  0.00     0.271 C 
ATOM      7  O2  <0> d           0.002  -0.004   0.002  0.00  0.00    -0.264 OA
BRANCH   6   8
ATOM      8  O1  <0> d           1.139   1.891   0.001  0.00  0.00    -0.321 OA
BRANCH   8   9
ATOM      9  C3  <0> d           2.367   1.117  -0.015  0.00  0.00     0.029 C 
ATOM     10  H6  <0> d           2.409   0.484   0.872  0.00  0.00     0.075 H 
ATOM     11  H7  <0> d           2.392   0.493  -0.908  0.00  0.00     0.075 H 
BRANCH   9  12
ATOM     12  C2  <0> d           3.568   2.065  -0.021  0.00  0.00    -0.048 C 
ATOM     13  H4  <0> d           3.526   2.698  -0.907  0.00  0.00     0.035 H 
ATOM     14  H5  <0> d           3.543   2.689   0.873  0.00  0.00     0.035 H 
BRANCH  12  15
ATOM     15  C1  <0> d           4.862   1.250  -0.038  0.00  0.00    -0.075 C 
ATOM     16  H1  <0> d           4.904   0.616   0.849  0.00  0.00     0.027 H 
ATOM     17  H2  <0> d           4.887   0.626  -0.931  0.00  0.00     0.027 H 
ATOM     18  H3  <0> d           5.717   1.925  -0.042  0.00  0.00     0.027 H 
ENDBRANCH  12  15
ENDBRANCH   9  12
ENDBRANCH   8   9
ENDBRANCH   6   8
ENDBRANCH   1   6
TORSDOF 5
