REMARK  2 active torsions:
REMARK  status: ('A' for Active; 'I' for Inactive)
REMARK    1  A    between atoms: N2_4  and  C3_6 
REMARK    2  A    between atoms: C3_6  and  N4_7 
ROOT
ATOM      1  C3  <0> d          -0.013   1.086   0.008  0.00  0.00     0.099 C 
ATOM      2  H3  <0> d           0.002  -0.004   0.002  0.00  0.00     0.102 H 
ATOM      3  H4  <0> d           1.010   1.463   0.000  0.00  0.00     0.102 H 
ENDROOT
BRANCH   1   4
ATOM      4  N2  <0> d          -0.721   1.571  -1.179  0.00  0.00    -0.242 N 
ATOM      5  C2  <0> d          -0.201   2.286  -2.192  0.00  0.00     0.086 A 
ATOM      6  N1  <0> d          -1.155   2.519  -3.056  0.00  0.00    -0.234 NA
ATOM      7  H2  <0> d           0.826   2.609  -2.278  0.00  0.00     0.146 H 
ATOM      8  C1  <0> d          -2.295   1.979  -2.627  0.00  0.00     0.107 A 
ATOM      9  N3  <0> d          -2.080   1.387  -1.482  0.00  0.00    -0.163 NA
ATOM     10  H1  <0> d          -3.243   2.022  -3.143  0.00  0.00     0.149 H 
ENDBRANCH   1   4
BRANCH   1  11
ATOM     11  N4  <0> d          -0.698   1.558   1.213  0.00  0.00    -0.242 N 
ATOM     12  N6  <0> d          -1.009   2.889   1.538  0.00  0.00    -0.163 NA
ATOM     13  C5  <0> d          -1.618   2.863   2.695  0.00  0.00     0.107 A 
ATOM     14  N5  <0> d          -1.705   1.600   3.109  0.00  0.00    -0.234 NA
ATOM     15  H6  <0> d          -1.989   3.726   3.228  0.00  0.00     0.149 H 
ATOM     16  C4  <0> d          -1.161   0.804   2.225  0.00  0.00     0.086 A 
ATOM     17  H5  <0> d          -1.092  -0.272   2.297  0.00  0.00     0.146 H 
ENDBRANCH   1  11
TORSDOF 2
