REMARK  3 active torsions:
REMARK  status: ('A' for Active; 'I' for Inactive)
REMARK    1  A    between atoms: C1_1  and  O1_2 
REMARK    2  A    between atoms: O1_2  and  C2_3 
REMARK    3  A    between atoms: C6_8  and  O2_10 
ROOT
ATOM      1  C2  <0> d          -1.436  -0.551   0.013  0.00  0.00     0.062 C 
ATOM      2  H1  <0> d          -2.149   0.274   0.023  0.00  0.00     0.087 H 
ATOM      3  C3  <0> d          -1.579  -1.390   1.299  0.00  0.00    -0.038 C 
ATOM      4  C4  <0> d          -0.493  -0.821   2.246  0.00  0.00    -0.060 C 
ATOM      5  C5  <0> d           0.683  -0.530   1.282  0.00  0.00    -0.039 C 
ATOM      6  C6  <0> d           0.002  -0.004   0.002  0.00  0.00     0.060 C 
ATOM      7  H2  <0> d           0.532  -0.365  -0.879  0.00  0.00     0.086 H 
ATOM      8  H6  <0> d          -2.570  -1.259   1.732  0.00  0.00     0.036 H 
ATOM      9  H7  <0> d          -1.392  -2.443   1.090  0.00  0.00     0.036 H 
ATOM     10  H8  <0> d          -0.839   0.097   2.722  0.00  0.00     0.033 H 
ATOM     11  H9  <0> d          -0.209  -1.560   2.996  0.00  0.00     0.033 H 
ATOM     12  H10 <0> d           1.238  -1.444   1.071  0.00  0.00     0.036 H 
ATOM     13  H11 <0> d           1.343   0.229   1.703  0.00  0.00     0.036 H 
ENDROOT
BRANCH   1  14
ATOM     14  O1  <0> d          -1.656  -1.373  -1.135  0.00  0.00    -0.388 OA
BRANCH  14  15
ATOM     15  C1  <0> d          -3.008  -1.375  -1.598  0.00  0.00     0.005 C 
ATOM     16  H3  <0> d          -3.662  -1.744  -0.808  0.00  0.00     0.066 H 
ATOM     17  H4  <0> d          -3.301  -0.361  -1.868  0.00  0.00     0.066 H 
ATOM     18  H5  <0> d          -3.092  -2.022  -2.471  0.00  0.00     0.066 H 
ENDBRANCH  14  15
ENDBRANCH   1  14
BRANCH   6  19
ATOM     19  O2  <0> d          -0.017   1.425   0.010  0.00  0.00    -0.393 OA
ATOM     20  H12 <0> d           0.861   1.830   0.004  0.00  0.00     0.210 HD
ENDBRANCH   6  19
TORSDOF 3
