REMARK  4 active torsions:
REMARK  status: ('A' for Active; 'I' for Inactive)
REMARK    1  A    between atoms: C1_1  and  C2_2 
REMARK    2  A    between atoms: C1_1  and  C4_9 
REMARK    3  A    between atoms: C2_2  and  C3_4 
REMARK    4  A    between atoms: C2_2  and  O1_8 
REMARK       I    between atoms: C4_9  and  N1_11 
ROOT
ATOM      1  C1  <0> d          -0.013   1.086   0.008  0.00  0.00     0.041 C 
ATOM      2  H2  <0> d           0.002  -0.004   0.002  0.00  0.00     0.051 H 
ATOM      3  H3  <0> d           1.010   1.463   0.000  0.00  0.00     0.051 H 
ENDROOT
BRANCH   1   4
ATOM      4  C2  <0> d          -0.729   1.579   1.267  0.00  0.00     0.137 C 
ATOM      5  H1  <0> d          -0.822   2.665   1.230  0.00  0.00     0.097 H 
BRANCH   4   6
ATOM      6  C3  <0> d           0.079   1.179   2.503  0.00  0.00     0.413 C 
ATOM      7  F1  <0> d           1.352   1.754   2.435  0.00  0.00    -0.168 F 
ATOM      8  F2  <0> d          -0.576   1.630   3.654  0.00  0.00    -0.168 F 
ATOM      9  F3  <0> d           0.198  -0.214   2.550  0.00  0.00    -0.168 F 
ENDBRANCH   4   6
BRANCH   4  10
ATOM     10  O1  <0> d          -2.030   0.991   1.336  0.00  0.00    -0.386 OA
ATOM     11  H4  <0> d          -2.023   0.025   1.372  0.00  0.00     0.210 HD
ENDBRANCH   4  10
ENDBRANCH   1   4
BRANCH   1  12
ATOM     12  C4  <0> d          -0.742   1.585  -1.213  0.00  0.00     0.218 C 
ATOM     13  O2  <0> d          -1.736   2.268  -1.088  0.00  0.00    -0.274 OA
ATOM     14  N1  <0> d          -0.288   1.272  -2.443  0.00  0.00    -0.370 N 
ATOM     15  H5  <0> d           0.507   0.726  -2.543  0.00  0.00     0.159 HD
ATOM     16  H6  <0> d          -0.758   1.594  -3.229  0.00  0.00     0.159 HD
ENDBRANCH   1  12
TORSDOF 4
