REMARK  3 active torsions:
REMARK  status: ('A' for Active; 'I' for Inactive)
REMARK    1  A    between atoms: C1_1  and  O1_2 
REMARK    2  A    between atoms: O1_2  and  C2_3 
REMARK    3  A    between atoms: C7_8  and  C8_9 
ROOT
ATOM      1  C2  <0> d          -0.787   2.891   1.346  0.00  0.00     0.078 A 
ATOM      2  C3  <0> d          -0.255   3.750   0.399  0.00  0.00    -0.050 A 
ATOM      3  C4  <0> d          -0.366   5.118   0.563  0.00  0.00    -0.080 A 
ATOM      4  C5  <0> d          -1.002   5.639   1.677  0.00  0.00    -0.082 A 
ATOM      5  C6  <0> d          -1.533   4.797   2.631  0.00  0.00    -0.070 A 
ATOM      6  C7  <0> d          -1.430   3.414   2.474  0.00  0.00    -0.004 A 
ATOM      7  H4  <0> d           0.246   3.350  -0.471  0.00  0.00     0.087 H 
ATOM      8  H5  <0> d           0.047   5.784  -0.180  0.00  0.00     0.083 H 
ATOM      9  H6  <0> d          -1.081   6.709   1.799  0.00  0.00     0.083 H 
ATOM     10  H7  <0> d          -2.027   5.207   3.500  0.00  0.00     0.084 H 
ENDROOT
BRANCH   1  11
ATOM     11  O1  <0> d          -0.682   1.547   1.184  0.00  0.00    -0.355 OA
BRANCH  11  12
ATOM     12  C1  <0> d          -0.013   1.086   0.008  0.00  0.00     0.010 C 
ATOM     13  H1  <0> d           0.002  -0.004   0.002  0.00  0.00     0.066 H 
ATOM     14  H2  <0> d           1.010   1.463   0.000  0.00  0.00     0.066 H 
ATOM     15  H3  <0> d          -0.540   1.447  -0.875  0.00  0.00     0.066 H 
ENDBRANCH  11  12
ENDBRANCH   1  11
BRANCH   6  16
ATOM     16  C8  <0> d          -1.996   2.507   3.494  0.00  0.00    -0.079 C 
ATOM     17  C9  <0> d          -2.604   3.006   4.561  0.00  0.00    -0.120 C 
ATOM     18  H9  <0> d          -2.686   4.076   4.685  0.00  0.00     0.066 H 
ATOM     19  H10 <0> d          -3.018   2.343   5.306  0.00  0.00     0.066 H 
ATOM     20  H8  <0> d          -1.915   1.437   3.369  0.00  0.00     0.083 H 
ENDBRANCH   6  16
TORSDOF 3
