REMARK  4 active torsions:
REMARK  status: ('A' for Active; 'I' for Inactive)
REMARK    1  A    between atoms: C1_1  and  C2_2 
REMARK    2  A    between atoms: C2_2  and  C3_4 
REMARK    3  A    between atoms: C3_4  and  C4_5 
REMARK    4  A    between atoms: C4_5  and  C5_6 
ROOT
ATOM      1  C5  <0> d          -0.037   1.099  -2.490  0.00  0.00     0.015 C 
ATOM      2  C6  <0> d          -0.749   1.587  -3.683  0.00  0.00     0.059 C 
ATOM      3  N1  <0> d          -1.298   1.963  -4.603  0.00  0.00    -0.197 NA
ATOM      4  H9  <0> d           0.986   1.476  -2.498  0.00  0.00     0.054 H 
ATOM      5  H10 <0> d          -0.022   0.009  -2.496  0.00  0.00     0.054 H 
ENDROOT
BRANCH   1   6
ATOM      6  C4  <0> d          -0.753   1.593  -1.232  0.00  0.00    -0.053 C 
ATOM      7  H7  <0> d          -1.775   1.215  -1.224  0.00  0.00     0.034 H 
ATOM      8  H8  <0> d          -0.767   2.683  -1.226  0.00  0.00     0.034 H 
BRANCH   6   9
ATOM      9  C3  <0> d          -0.013   1.086   0.008  0.00  0.00    -0.050 C 
ATOM     10  H5  <0> d           0.002  -0.004   0.002  0.00  0.00     0.035 H 
ATOM     11  H6  <0> d           1.010   1.463   0.000  0.00  0.00     0.035 H 
BRANCH   9  12
ATOM     12  C2  <0> d          -0.729   1.579   1.267  0.00  0.00     0.027 C 
ATOM     13  H1  <0> d          -1.776   1.277   1.232  0.00  0.00     0.062 H 
ATOM     14  C7  <0> d          -0.089   0.994   2.457  0.00  0.00     0.063 C 
ATOM     15  N2  <0> d           0.405   0.543   3.375  0.00  0.00    -0.197 NA
BRANCH  12  16
ATOM     16  C1  <0> d          -0.641   3.105   1.339  0.00  0.00    -0.061 C 
ATOM     17  H2  <0> d          -1.115   3.538   0.458  0.00  0.00     0.029 H 
ATOM     18  H3  <0> d          -1.151   3.457   2.235  0.00  0.00     0.029 H 
ATOM     19  H4  <0> d           0.406   3.407   1.374  0.00  0.00     0.029 H 
ENDBRANCH  12  16
ENDBRANCH   9  12
ENDBRANCH   6   9
ENDBRANCH   1   6
TORSDOF 4
