REMARK  6 active torsions:
REMARK  status: ('A' for Active; 'I' for Inactive)
REMARK    1  A    between atoms: C1_1  and  C2_2 
REMARK    2  A    between atoms: C3_3  and  C4_4 
REMARK    3  A    between atoms: C5_5  and  C6_6 
REMARK    4  A    between atoms: C6_6  and  C7_7 
REMARK    5  A    between atoms: C6_6  and  C8_8 
REMARK    6  A    between atoms: C6_6  and  O1_9 
ROOT
ATOM      1  C6  <0> d           1.286   1.562  -0.002  0.00  0.00     0.114 C 
ENDROOT
BRANCH   1   2
ATOM      2  C5  <0> d           2.011   1.144  -1.213  0.00  0.00    -0.055 C 
ATOM      3  C4  <0> d           2.589   0.811  -2.179  0.00  0.00    -0.012 C 
BRANCH   3   4
ATOM      4  C3  <0> d           3.267   0.420  -3.312  0.00  0.00    -0.015 C 
ATOM      5  C2  <0> d           3.845   0.086  -4.278  0.00  0.00    -0.097 C 
BRANCH   5   6
ATOM      6  C1  <0> d           4.570  -0.332  -5.489  0.00  0.00    -0.020 C 
ATOM      7  H1  <0> d           4.011  -0.009  -6.380  0.00  0.00     0.044 H 
ATOM      8  H2  <0> d           4.672  -1.427  -5.496  0.00  0.00     0.044 H 
ATOM      9  H3  <0> d           5.569   0.129  -5.496  0.00  0.00     0.044 H 
ENDBRANCH   5   6
ENDBRANCH   3   4
ENDBRANCH   1   2
BRANCH   1  10
ATOM     10  C7  <0> d           1.145   3.085   0.008  0.00  0.00    -0.038 C 
ATOM     11  H4  <0> d           0.603   3.397   0.913  0.00  0.00     0.033 H 
ATOM     12  H5  <0> d           0.586   3.407  -0.883  0.00  0.00     0.033 H 
ATOM     13  H6  <0> d           2.144   3.546   0.001  0.00  0.00     0.033 H 
ENDBRANCH   1  10
BRANCH   1  14
ATOM     14  C8  <0> d           2.064   1.114   1.238  0.00  0.00    -0.038 C 
ATOM     15  H7  <0> d           1.522   1.426   2.143  0.00  0.00     0.033 H 
ATOM     16  H8  <0> d           3.062   1.575   1.231  0.00  0.00     0.033 H 
ATOM     17  H9  <0> d           2.165   0.019   1.231  0.00  0.00     0.033 H 
ENDBRANCH   1  14
BRANCH   1  18
ATOM     18  O1  <0> d          -0.011   0.963   0.007  0.00  0.00    -0.378 OA
ATOM     19  H10 <0> d          -0.702   1.160   0.840  0.00  0.00     0.211 HD
ENDBRANCH   1  18
TORSDOF 6
