REMARK  2 active torsions:
REMARK  status: ('A' for Active; 'I' for Inactive)
REMARK    1  A    between atoms: C1_1  and  C2_2 
REMARK    2  A    between atoms: C5_5  and  C8_10 
ROOT
ATOM      1  C2  <0> d          -0.073   4.229   0.025  0.00  0.00    -0.022 A 
ATOM      2  C3  <0> d           1.155   3.588   0.010  0.00  0.00    -0.072 A 
ATOM      3  C4  <0> d           1.177   2.202   0.003  0.00  0.00    -0.059 A 
ATOM      4  C5  <0> d          -0.018   1.503   0.010  0.00  0.00     0.032 A 
ATOM      5  N1  <0> d          -1.172   2.136   0.019  0.00  0.00    -0.242 NA
ATOM      6  C6  <0> d          -1.238   3.462   0.032  0.00  0.00     0.142 A 
ATOM      7  C7  <0> d          -2.515   4.110   0.047  0.00  0.00     0.120 C 
ATOM      8  N2  <0> d          -3.528   4.623   0.059  0.00  0.00    -0.190 NA
ATOM      9  H4  <0> d           2.073   4.156   0.004  0.00  0.00     0.084 H 
ATOM     10  H5  <0> d           2.118   1.672  -0.009  0.00  0.00     0.086 H 
ENDROOT
BRANCH   1  11
ATOM     11  C1  <0> d          -0.150   5.734   0.032  0.00  0.00    -0.048 C 
ATOM     12  H1  <0> d          -0.178   6.102  -0.993  0.00  0.00     0.033 H 
ATOM     13  H2  <0> d          -1.052   6.050   0.556  0.00  0.00     0.033 H 
ATOM     14  H3  <0> d           0.725   6.140   0.540  0.00  0.00     0.033 H 
ENDBRANCH   1  11
BRANCH   4  15
ATOM     15  C8  <0> d           0.002  -0.004   0.002  0.00  0.00    -0.035 C 
ATOM     16  H6  <0> d           0.017  -0.373   1.028  0.00  0.00     0.035 H 
ATOM     17  H7  <0> d          -0.888  -0.377  -0.505  0.00  0.00     0.035 H 
ATOM     18  H8  <0> d           0.892  -0.352  -0.522  0.00  0.00     0.035 H 
ENDBRANCH   4  15
TORSDOF 2
