REMARK  10 active torsions:
REMARK  status: ('A' for Active; 'I' for Inactive)
REMARK    1  A    between atoms: C1_1  and  C2_2 
REMARK    2  A    between atoms: C2_2  and  C3_3 
REMARK    3  A    between atoms: C2_2  and  C4_4 
REMARK    4  A    between atoms: C2_2  and  C5_5 
REMARK    5  A    between atoms: C5_5  and  C6_6 
REMARK    6  A    between atoms: C6_6  and  C7_8 
REMARK    7  A    between atoms: C6_6  and  O1_12 
REMARK    8  A    between atoms: C7_8  and  C8_9 
REMARK    9  A    between atoms: C7_8  and  C9_10 
REMARK   10  A    between atoms: C7_8  and  C10_11 
ROOT
ATOM      1  C6  <0> d           2.074  -0.074  -1.393  0.00  0.00     0.042 C 
ATOM      2  H1  <0> d           2.623  -0.505  -0.556  0.00  0.00     0.084 H 
ENDROOT
BRANCH   1   3
ATOM      3  C5  <0> d           0.606  -0.499  -1.314  0.00  0.00    -0.034 C 
ATOM      4  H11 <0> d           0.531  -1.575  -1.470  0.00  0.00     0.037 H 
ATOM      5  H12 <0> d           0.035   0.021  -2.083  0.00  0.00     0.037 H 
BRANCH   3   6
ATOM      6  C2  <0> d           0.045  -0.142   0.065  0.00  0.00    -0.049 C 
BRANCH   6   7
ATOM      7  C1  <0> d           0.015   1.379   0.225  0.00  0.00    -0.070 C 
ATOM      8  H2  <0> d           1.035   1.758   0.286  0.00  0.00     0.028 H 
ATOM      9  H3  <0> d          -0.488   1.825  -0.633  0.00  0.00     0.028 H 
ATOM     10  H4  <0> d          -0.524   1.637   1.137  0.00  0.00     0.028 H 
ENDBRANCH   6   7
BRANCH   6  11
ATOM     11  C3  <0> d           0.935  -0.752   1.150  0.00  0.00    -0.070 C 
ATOM     12  H5  <0> d           0.536  -0.498   2.132  0.00  0.00     0.028 H 
ATOM     13  H6  <0> d           0.957  -1.836   1.036  0.00  0.00     0.028 H 
ATOM     14  H7  <0> d           1.946  -0.356   1.056  0.00  0.00     0.028 H 
ENDBRANCH   6  11
BRANCH   6  15
ATOM     15  C4  <0> d          -1.374  -0.698   0.197  0.00  0.00    -0.070 C 
ATOM     16  H8  <0> d          -2.008  -0.264  -0.576  0.00  0.00     0.028 H 
ATOM     17  H9  <0> d          -1.352  -1.782   0.083  0.00  0.00     0.028 H 
ATOM     18  H10 <0> d          -1.773  -0.444   1.179  0.00  0.00     0.028 H 
ENDBRANCH   6  15
ENDBRANCH   3   6
ENDBRANCH   1   3
BRANCH   1  19
ATOM     19  C7  <0> d           2.678  -0.568  -2.709  0.00  0.00    -0.025 C 
BRANCH  19  20
ATOM     20  C8  <0> d           1.907   0.038  -3.883  0.00  0.00    -0.067 C 
ATOM     21  H13 <0> d           1.973   1.125  -3.839  0.00  0.00     0.028 H 
ATOM     22  H14 <0> d           2.337  -0.314  -4.821  0.00  0.00     0.028 H 
ATOM     23  H15 <0> d           0.861  -0.265  -3.827  0.00  0.00     0.028 H 
ENDBRANCH  19  20
BRANCH  19  24
ATOM     24  C9  <0> d           4.145  -0.143  -2.788  0.00  0.00    -0.067 C 
ATOM     25  H16 <0> d           4.694  -0.575  -1.951  0.00  0.00     0.028 H 
ATOM     26  H17 <0> d           4.575  -0.495  -3.725  0.00  0.00     0.028 H 
ATOM     27  H18 <0> d           4.212   0.944  -2.744  0.00  0.00     0.028 H 
ENDBRANCH  19  24
BRANCH  19  28
ATOM     28  C10 <0> d           2.585  -2.094  -2.771  0.00  0.00    -0.067 C 
ATOM     29  H19 <0> d           1.539  -2.397  -2.715  0.00  0.00     0.028 H 
ATOM     30  H20 <0> d           3.015  -2.446  -3.708  0.00  0.00     0.028 H 
ATOM     31  H21 <0> d           3.134  -2.526  -1.934  0.00  0.00     0.028 H 
ENDBRANCH  19  28
ENDBRANCH   1  19
BRANCH   1  32
ATOM     32  O1  <0> d           2.160   1.352  -1.335  0.00  0.00    -0.395 OA
ATOM     33  H22 <0> d           1.694   1.804  -2.051  0.00  0.00     0.210 HD
ENDBRANCH   1  32
TORSDOF 10
