REMARK  2 active torsions:
REMARK  status: ('A' for Active; 'I' for Inactive)
REMARK    1  A    between atoms: C1_1  and  C2_2 
REMARK    2  A    between atoms: C4_7  and  C6_12 
ROOT
ATOM      1  C2  <0> d           0.002  -0.004   0.002  0.00  0.00     0.086 C 
ATOM      2  H1  <0> d           0.513  -0.349  -0.897  0.00  0.00     0.086 H 
ATOM      3  C3  <0> d          -1.407  -0.514  -0.009  0.00  0.00     0.240 C 
ATOM      4  O1  <0> d          -2.016  -0.519  -1.058  0.00  0.00    -0.271 OA
ATOM      5  N1  <0> d          -2.021  -0.964   1.090  0.00  0.00    -0.346 N 
ATOM      6  C4  <0> d          -1.378  -0.998   2.397  0.00  0.00     0.086 C 
ATOM      7  H2  <0> d          -1.653  -1.922   2.906  0.00  0.00     0.086 H 
ATOM      8  C5  <0> d           0.114  -0.932   2.271  0.00  0.00     0.240 C 
ATOM      9  O2  <0> d           0.793  -1.306   3.203  0.00  0.00    -0.271 OA
ATOM     10  N2  <0> d           0.726  -0.478   1.174  0.00  0.00    -0.346 N 
ATOM     11  H6  <0> d          -2.935  -1.282   1.014  0.00  0.00     0.163 HD
ATOM     12  H7  <0> d           1.696  -0.463   1.158  0.00  0.00     0.163 HD
ENDROOT
BRANCH   1  13
ATOM     13  C1  <0> d          -0.019   1.526   0.010  0.00  0.00    -0.049 C 
ATOM     14  H3  <0> d           1.004   1.903   0.003  0.00  0.00     0.030 H 
ATOM     15  H4  <0> d          -0.546   1.887  -0.873  0.00  0.00     0.030 H 
ATOM     16  H5  <0> d          -0.529   1.877   0.907  0.00  0.00     0.030 H 
ENDBRANCH   1  13
BRANCH   6  17
ATOM     17  C6  <0> d          -1.863   0.194   3.225  0.00  0.00    -0.049 C 
ATOM     18  H8  <0> d          -2.945   0.135   3.347  0.00  0.00     0.030 H 
ATOM     19  H9  <0> d          -1.385   0.174   4.204  0.00  0.00     0.030 H 
ATOM     20  H10 <0> d          -1.605   1.121   2.713  0.00  0.00     0.030 H 
ENDBRANCH   6  17
TORSDOF 2
