REMARK  2 active torsions:
REMARK  status: ('A' for Active; 'I' for Inactive)
REMARK    1  A    between atoms: C1_1  and  C2_2 
REMARK    2  A    between atoms: C4_4  and  C8_11 
ROOT
ATOM      1  C2  <0> d           4.019  -0.484  -0.040  0.00  0.00     0.051 A 
ATOM      2  C3  <0> d           3.277  -1.673  -0.040  0.00  0.00    -0.036 A 
ATOM      3  C4  <0> d           1.922  -1.611  -0.026  0.00  0.00     0.032 A 
ATOM      4  N1  <0> d           1.315  -0.389  -0.013  0.00  0.00    -0.157 N 
ATOM      5  C5  <0> d           0.002  -0.004   0.002  0.00  0.00     0.020 A 
ATOM      6  C6  <0> d          -0.016   1.346   0.009  0.00  0.00     0.037 A 
ATOM      7  N2  <0> d           1.244   1.790  -0.000  0.00  0.00    -0.073 NA
ATOM      8  C7  <0> d           2.072   0.755  -0.014  0.00  0.00     0.733 A 
ATOM      9  N3  <0> d           3.411   0.678  -0.028  0.00  0.00    -0.067 NA
ATOM     10  H4  <0> d           3.778  -2.630  -0.050  0.00  0.00     0.089 H 
ATOM     11  H5  <0> d          -0.858  -0.657   0.007  0.00  0.00     0.115 H 
ATOM     12  H6  <0> d          -0.902   1.964   0.017  0.00  0.00     0.117 H 
ENDROOT
BRANCH   1  13
ATOM     13  C1  <0> d           5.525  -0.541  -0.056  0.00  0.00    -0.035 C 
ATOM     14  H1  <0> d           5.878  -0.549  -1.088  0.00  0.00     0.035 H 
ATOM     15  H2  <0> d           5.927   0.331   0.459  0.00  0.00     0.035 H 
ATOM     16  H3  <0> d           5.860  -1.447   0.449  0.00  0.00     0.035 H 
ENDBRANCH   1  13
BRANCH   3  17
ATOM     17  C8  <0> d           1.099  -2.873  -0.025  0.00  0.00    -0.036 C 
ATOM     18  H7  <0> d           0.890  -3.171  -1.052  0.00  0.00     0.035 H 
ATOM     19  H8  <0> d           1.651  -3.666   0.479  0.00  0.00     0.035 H 
ATOM     20  H9  <0> d           0.160  -2.694   0.499  0.00  0.00     0.035 H 
ENDBRANCH   3  17
TORSDOF 2
