REMARK  1 active torsions:
REMARK  status: ('A' for Active; 'I' for Inactive)
REMARK    1  A    between atoms: C5_5  and  C7_7 
ROOT
ATOM      1  C1  <0> d           1.172   1.783   0.000  0.00  0.00    -0.081 A 
ATOM      2  C2  <0> d          -0.013   1.076   0.008  0.00  0.00    -0.063 A 
ATOM      3  C3  <0> d          -1.230   1.759   0.017  0.00  0.00     0.045 A 
ATOM      4  C4  <0> d          -1.240   3.155   0.031  0.00  0.00    -0.056 A 
ATOM      5  C5  <0> d          -0.048   3.850   0.024  0.00  0.00    -0.052 A 
ATOM      6  C6  <0> d           1.155   3.167   0.009  0.00  0.00    -0.076 A 
ATOM      7  C10 <0> d          -2.463   1.031   0.019  0.00  0.00     0.099 C 
ATOM      8  N1  <0> d          -3.442   0.454   0.021  0.00  0.00    -0.191 NA
ATOM      9  H1  <0> d           2.114   1.256  -0.011  0.00  0.00     0.083 H 
ATOM     10  H2  <0> d           0.002  -0.004   0.002  0.00  0.00     0.085 H 
ATOM     11  H3  <0> d          -2.178   3.690   0.043  0.00  0.00     0.086 H 
ATOM     12  H4  <0> d           2.085   3.716   0.003  0.00  0.00     0.084 H 
ENDROOT
BRANCH   5  13
ATOM     13  C7  <0> d          -0.057   5.357   0.033  0.00  0.00    -0.029 A 
ATOM     14  C9  <0> d           0.630   6.060   1.205  0.00  0.00    -0.057 A 
ATOM     15  C8  <0> d           1.279   6.072  -0.181  0.00  0.00    -0.057 A 
ATOM     16  H8  <0> d           0.189   6.991   1.563  0.00  0.00     0.034 H 
ATOM     17  H9  <0> d           1.088   5.433   1.970  0.00  0.00     0.034 H 
ATOM     18  H6  <0> d           2.163   5.453  -0.329  0.00  0.00     0.034 H 
ATOM     19  H7  <0> d           1.264   7.011  -0.736  0.00  0.00     0.034 H 
ATOM     20  H5  <0> d          -0.950   5.825  -0.381  0.00  0.00     0.047 H 
ENDBRANCH   5  13
TORSDOF 1
