REMARK  0 active torsions:
REMARK  status: ('A' for Active; 'I' for Inactive)
ROOT
ATOM      1  C1  <0> d          -1.165   5.863   0.044  0.00  0.00    -0.065 A 
ATOM      2  C2  <0> d           0.036   5.210   0.029  0.00  0.00    -0.068 A 
ATOM      3  C3  <0> d           0.022   3.804   0.022  0.00  0.00     0.010 A 
ATOM      4  C4  <0> d           1.203   3.046   0.007  0.00  0.00     0.014 A 
ATOM      5  N1  <0> d           1.138   1.735   0.001  0.00  0.00    -0.272 NA
ATOM      6  C5  <0> d          -0.013   1.076   0.008  0.00  0.00     0.004 A 
ATOM      7  C6  <0> d          -1.212   1.720   0.017  0.00  0.00    -0.037 A 
ATOM      8  C7  <0> d          -1.225   3.127   0.030  0.00  0.00     0.069 A 
ATOM      9  N2  <0> d          -2.362   3.824   0.045  0.00  0.00    -0.260 NA
ATOM     10  C8  <0> d          -2.353   5.136   0.051  0.00  0.00     0.003 A 
ATOM     11  H1  <0> d          -1.192   6.942   0.049  0.00  0.00     0.085 H 
ATOM     12  H2  <0> d           0.967   5.757   0.024  0.00  0.00     0.085 H 
ATOM     13  H3  <0> d           2.163   3.540   0.000  0.00  0.00     0.116 H 
ATOM     14  H4  <0> d           0.002  -0.004   0.002  0.00  0.00     0.114 H 
ATOM     15  H5  <0> d          -2.136   1.161   0.019  0.00  0.00     0.089 H 
ATOM     16  H6  <0> d          -3.294   5.668   0.062  0.00  0.00     0.114 H 
ENDROOT
TORSDOF 0
