REMARK  1 active torsions:
REMARK  status: ('A' for Active; 'I' for Inactive)
REMARK    1  A    between atoms: C3_3  and  C6_7 
ROOT
ATOM      1  C1  <0> d           5.530   2.081  -0.040  0.00  0.00    -0.065 A 
ATOM      2  C2  <0> d           4.146   2.059  -0.032  0.00  0.00    -0.066 A 
ATOM      3  C3  <0> d           3.503   0.816  -0.027  0.00  0.00     0.036 A 
ATOM      4  C4  <0> d           4.278  -0.344  -0.040  0.00  0.00     0.016 A 
ATOM      5  N1  <0> d           5.593  -0.272  -0.052  0.00  0.00    -0.272 NA
ATOM      6  C5  <0> d           6.226   0.886  -0.052  0.00  0.00     0.002 A 
ATOM      7  H1  <0> d           6.061   3.021  -0.041  0.00  0.00     0.085 H 
ATOM      8  H2  <0> d           3.578   2.977  -0.027  0.00  0.00     0.085 H 
ATOM      9  H3  <0> d           3.795  -1.310  -0.040  0.00  0.00     0.116 H 
ATOM     10  H4  <0> d           7.306   0.900  -0.062  0.00  0.00     0.114 H 
ENDROOT
BRANCH   3  11
ATOM     11  C6  <0> d           2.027   0.734  -0.013  0.00  0.00     0.203 A 
ATOM     12  O1  <0> d           1.288  -0.394  -0.012  0.00  0.00    -0.281 OA
ATOM     13  C7  <0> d           0.002  -0.004   0.002  0.00  0.00     0.127 A 
ATOM     14  N3  <0> d          -0.016   1.300   0.009  0.00  0.00    -0.136 NA
ATOM     15  H5  <0> d          -0.861  -0.653   0.007  0.00  0.00     0.158 H 
ATOM     16  N2  <0> d           1.191   1.746   0.000  0.00  0.00    -0.122 NA
ENDBRANCH   3  11
TORSDOF 1
