REMARK  5 active torsions:
REMARK  status: ('A' for Active; 'I' for Inactive)
REMARK    1  A    between atoms: C1_1  and  C2_2 
REMARK    2  A    between atoms: C5_6  and  C8_12 
REMARK    3  A    between atoms: C6_8  and  O1_11 
REMARK    4  A    between atoms: C8_12  and  C9_13 
REMARK    5  A    between atoms: C8_12  and  C10_14 
ROOT
ATOM      1  C2  <0> d           0.002  -0.004   0.002  0.00  0.00    -0.055 C 
ATOM      2  H1  <0> d           0.512  -0.356  -0.895  0.00  0.00     0.039 H 
ATOM      3  C3  <0> d          -1.433  -0.534   0.013  0.00  0.00    -0.061 C 
ATOM      4  C4  <0> d          -1.413  -2.063   0.004  0.00  0.00    -0.059 C 
ATOM      5  C5  <0> d          -0.673  -2.570   1.244  0.00  0.00    -0.026 C 
ATOM      6  H2  <0> d          -1.183  -2.219   2.141  0.00  0.00     0.044 H 
ATOM      7  C6  <0> d           0.763  -2.041   1.233  0.00  0.00     0.040 C 
ATOM      8  H3  <0> d           1.290  -2.402   2.116  0.00  0.00     0.083 H 
ATOM      9  C7  <0> d           0.742  -0.511   1.242  0.00  0.00    -0.038 C 
ATOM     10  H7  <0> d          -1.944  -0.182   0.910  0.00  0.00     0.033 H 
ATOM     11  H8  <0> d          -1.960  -0.173  -0.870  0.00  0.00     0.033 H 
ATOM     12  H9  <0> d          -2.435  -2.441   0.012  0.00  0.00     0.033 H 
ATOM     13  H10 <0> d          -0.902  -2.415  -0.892  0.00  0.00     0.033 H 
ATOM     14  H11 <0> d           1.765  -0.134   1.234  0.00  0.00     0.037 H 
ATOM     15  H12 <0> d           0.232  -0.159   2.138  0.00  0.00     0.037 H 
ENDROOT
BRANCH   5  16
ATOM     16  C8  <0> d          -0.652  -4.100   1.236  0.00  0.00    -0.055 C 
ATOM     17  H14 <0> d          -0.142  -4.452   0.339  0.00  0.00     0.039 H 
BRANCH  16  18
ATOM     18  C9  <0> d           0.088  -4.607   2.475  0.00  0.00    -0.073 C 
ATOM     19  H15 <0> d          -0.422  -4.255   3.372  0.00  0.00     0.028 H 
ATOM     20  H16 <0> d           0.103  -5.697   2.469  0.00  0.00     0.028 H 
ATOM     21  H17 <0> d           1.111  -4.230   2.467  0.00  0.00     0.028 H 
ENDBRANCH  16  18
BRANCH  16  22
ATOM     22  C10 <0> d          -2.087  -4.630   1.246  0.00  0.00    -0.073 C 
ATOM     23  H18 <0> d          -2.614  -4.269   0.363  0.00  0.00     0.028 H 
ATOM     24  H19 <0> d          -2.072  -5.720   1.240  0.00  0.00     0.028 H 
ATOM     25  H20 <0> d          -2.597  -4.278   2.143  0.00  0.00     0.028 H 
ENDBRANCH  16  22
ENDBRANCH   5  16
BRANCH   7  26
ATOM     26  O1  <0> d           1.432  -2.502   0.057  0.00  0.00    -0.395 OA
ATOM     27  H13 <0> d           2.349  -2.203  -0.016  0.00  0.00     0.210 HD
ENDBRANCH   7  26
BRANCH   1  28
ATOM     28  C1  <0> d          -0.019   1.526   0.010  0.00  0.00    -0.073 C 
ATOM     29  H4  <0> d           1.004   1.903   0.003  0.00  0.00     0.028 H 
ATOM     30  H5  <0> d          -0.546   1.887  -0.873  0.00  0.00     0.028 H 
ATOM     31  H6  <0> d          -0.529   1.877   0.907  0.00  0.00     0.028 H 
ENDBRANCH   1  28
TORSDOF 5
