REMARK  1 active torsions:
REMARK  status: ('A' for Active; 'I' for Inactive)
REMARK    1  A    between atoms: C6_6  and  N1_7 
ROOT
ATOM      1  C1  <0> d          -0.017   1.377   0.010  0.00  0.00    -0.055 A 
ATOM      2  C2  <0> d           0.002  -0.004   0.002  0.00  0.00    -0.044 A 
ATOM      3  C3  <0> d           1.210  -0.681  -0.013  0.00  0.00     0.116 A 
ATOM      4  C4  <0> d           2.401   0.025  -0.021  0.00  0.00    -0.044 A 
ATOM      5  C5  <0> d           2.387   1.406  -0.013  0.00  0.00    -0.055 A 
ATOM      6  C6  <0> d           1.177   2.087   0.002  0.00  0.00     0.025 A 
ATOM      7  F1  <0> d           1.226  -2.032  -0.020  0.00  0.00    -0.206 F 
ATOM      8  H1  <0> d          -0.959   1.905   0.017  0.00  0.00     0.087 H 
ATOM      9  H2  <0> d          -0.926  -0.556   0.008  0.00  0.00     0.088 H 
ATOM     10  H3  <0> d           3.342  -0.506  -0.033  0.00  0.00     0.088 H 
ATOM     11  H4  <0> d           3.317   1.955  -0.019  0.00  0.00     0.087 H 
ENDROOT
BRANCH   6  12
ATOM     12  N1  <0> d           1.161   3.485   0.009  0.00  0.00    -0.399 N 
ATOM     13  H5  <0> d           0.315   3.960   0.019  0.00  0.00     0.156 HD
ATOM     14  H6  <0> d           1.995   3.980   0.004  0.00  0.00     0.156 HD
ENDBRANCH   6  12
TORSDOF 1
