REMARK  3 active torsions:
REMARK  status: ('A' for Active; 'I' for Inactive)
REMARK    1  A    between atoms: C1_1  and  C2_2 
REMARK    2  A    between atoms: C2_2  and  C3_4 
REMARK    3  A    between atoms: C2_2  and  N1_6 
ROOT
ATOM      1  N1  <0> d           2.634   3.529  -0.004  0.00  0.00    -0.352 N 
ATOM      2  C4  <0> d           3.549   3.235  -0.971  0.00  0.00    -0.020 A 
ATOM      3  C5  <0> d           4.720   3.813  -0.633  0.00  0.00    -0.067 A 
ATOM      4  C6  <0> d           4.523   4.479   0.593  0.00  0.00    -0.067 A 
ATOM      5  C7  <0> d           3.237   4.288   0.954  0.00  0.00    -0.020 A 
ATOM      6  H5  <0> d           3.368   2.645  -1.857  0.00  0.00     0.111 H 
ATOM      7  H6  <0> d           5.641   3.769  -1.195  0.00  0.00     0.085 H 
ATOM      8  H7  <0> d           5.265   5.039   1.143  0.00  0.00     0.085 H 
ATOM      9  H8  <0> d           2.768   4.671   1.848  0.00  0.00     0.111 H 
ENDROOT
BRANCH   1  10
ATOM     10  C2  <0> d           1.235   3.094   0.007  0.00  0.00     0.096 C 
ATOM     11  H1  <0> d           0.744   3.473   0.904  0.00  0.00     0.089 H 
BRANCH  10  12
ATOM     12  C1  <0> d           0.522   3.639  -1.233  0.00  0.00    -0.048 C 
ATOM     13  H2  <0> d          -0.519   3.315  -1.224  0.00  0.00     0.030 H 
ATOM     14  H3  <0> d           0.564   4.728  -1.227  0.00  0.00     0.030 H 
ATOM     15  H4  <0> d           1.013   3.260  -2.130  0.00  0.00     0.030 H 
ENDBRANCH  10  12
BRANCH  10  16
ATOM     16  C3  <0> d           1.177   1.588  -0.001  0.00  0.00     0.196 C 
ATOM     17  O1  <0> d           2.199   0.944  -0.014  0.00  0.00    -0.646 OA
ATOM     18  O2  <0> d          -0.011   0.963   0.007  0.00  0.00    -0.646 OA
ENDBRANCH  10  16
ENDBRANCH   1  10
TORSDOF 3
