REMARK  2 active torsions:
REMARK  status: ('A' for Active; 'I' for Inactive)
REMARK    1  A    between atoms: C1_1  and  C2_2 
REMARK       I    between atoms: C2_2  and  N1_4 
REMARK    2  A    between atoms: C6_8  and  C7_10 
ROOT
ATOM      1  C2  <0> d           0.002  -0.004   0.002  0.00  0.00     0.216 C 
ATOM      2  O1  <0> d           0.020  -0.616   1.049  0.00  0.00    -0.274 OA
ATOM      3  N1  <0> d           0.000  -0.672  -1.169  0.00  0.00    -0.338 N 
ATOM      4  C3  <0> d          -0.015  -0.057  -2.509  0.00  0.00    -0.001 C 
ATOM      5  C4  <0> d           0.602  -1.127  -3.443  0.00  0.00    -0.048 C 
ATOM      6  C5  <0> d           0.033  -2.436  -2.835  0.00  0.00    -0.035 C 
ATOM      7  C6  <0> d           0.018  -2.134  -1.322  0.00  0.00     0.098 C 
ATOM      8  H1  <0> d           0.912  -2.544  -0.851  0.00  0.00     0.089 H 
ATOM      9  H5  <0> d          -1.037   0.168  -2.812  0.00  0.00     0.064 H 
ATOM     10  H6  <0> d           0.592   0.849  -2.517  0.00  0.00     0.064 H 
ATOM     11  H7  <0> d           0.260  -0.993  -4.470  0.00  0.00     0.035 H 
ATOM     12  H8  <0> d           1.690  -1.112  -3.390  0.00  0.00     0.035 H 
ATOM     13  H9  <0> d          -0.975  -2.627  -3.203  0.00  0.00     0.036 H 
ATOM     14  H10 <0> d           0.690  -3.279  -3.051  0.00  0.00     0.036 H 
ENDROOT
BRANCH   1  15
ATOM     15  C1  <0> d          -0.018   1.503   0.010  0.00  0.00    -0.003 C 
ATOM     16  H2  <0> d           1.004   1.880   0.003  0.00  0.00     0.040 H 
ATOM     17  H3  <0> d          -0.545   1.864  -0.873  0.00  0.00     0.040 H 
ATOM     18  H4  <0> d          -0.529   1.854   0.907  0.00  0.00     0.040 H 
ENDBRANCH   1  15
BRANCH   7  19
ATOM     19  C7  <0> d          -1.215  -2.730  -0.694  0.00  0.00     0.196 C 
ATOM     20  O2  <0> d          -2.113  -2.003  -0.305  0.00  0.00    -0.646 OA
ATOM     21  O3  <0> d          -1.315  -3.940  -0.576  0.00  0.00    -0.646 OA
ENDBRANCH   7  19
TORSDOF 2
