REMARK  2 active torsions:
REMARK  status: ('A' for Active; 'I' for Inactive)
REMARK    1  A    between atoms: C1_1  and  C2_2 
REMARK    2  A    between atoms: C5_5  and  N2_12 
ROOT
ATOM      1  C2  <0> d           1.165   1.761   0.000  0.00  0.00    -0.032 A 
ATOM      2  C3  <0> d          -0.013   1.076   0.008  0.00  0.00    -0.073 A 
ATOM      3  C4  <0> d          -1.233   1.742   0.017  0.00  0.00    -0.056 A 
ATOM      4  C5  <0> d          -1.281   3.121   0.031  0.00  0.00     0.038 A 
ATOM      5  C6  <0> d          -0.076   3.855   0.023  0.00  0.00     0.019 A 
ATOM      6  C7  <0> d           1.162   3.166   0.007  0.00  0.00     0.074 A 
ATOM      7  N1  <0> d           2.307   3.857  -0.001  0.00  0.00    -0.260 NA
ATOM      8  C8  <0> d           2.311   5.168   0.005  0.00  0.00     0.003 A 
ATOM      9  C9  <0> d           1.130   5.904   0.021  0.00  0.00    -0.065 A 
ATOM     10  C10 <0> d          -0.075   5.260   0.030  0.00  0.00    -0.067 A 
ATOM     11  H4  <0> d           0.002  -0.004   0.002  0.00  0.00     0.084 H 
ATOM     12  H5  <0> d          -2.152   1.175   0.019  0.00  0.00     0.086 H 
ATOM     13  H6  <0> d           3.257   5.691  -0.001  0.00  0.00     0.114 H 
ATOM     14  H7  <0> d           1.166   6.984   0.026  0.00  0.00     0.085 H 
ATOM     15  H8  <0> d          -1.002   5.815   0.042  0.00  0.00     0.085 H 
ENDROOT
BRANCH   1  16
ATOM     16  C1  <0> d           2.472   1.011  -0.016  0.00  0.00    -0.049 C 
ATOM     17  H1  <0> d           2.777   0.836  -1.048  0.00  0.00     0.033 H 
ATOM     18  H2  <0> d           3.235   1.599   0.494  0.00  0.00     0.033 H 
ATOM     19  H3  <0> d           2.349   0.055   0.494  0.00  0.00     0.033 H 
ENDBRANCH   1  16
BRANCH   4  20
ATOM     20  N2  <0> d          -2.506   3.782   0.046  0.00  0.00    -0.398 N 
ATOM     21  H9  <0> d          -2.534   4.751   0.051  0.00  0.00     0.156 HD
ATOM     22  H10 <0> d          -3.332   3.273   0.051  0.00  0.00     0.156 HD
ENDBRANCH   4  20
TORSDOF 2
