REMARK  1 active torsions:
REMARK  status: ('A' for Active; 'I' for Inactive)
REMARK    1  A    between atoms: C3_3  and  C6_7 
REMARK       I    between atoms: C6_7  and  N2_9 
ROOT
ATOM      1  C1  <0> d          -0.017   1.379   0.010  0.00  0.00    -0.065 A 
ATOM      2  C2  <0> d           1.181   2.073   0.002  0.00  0.00    -0.065 A 
ATOM      3  C3  <0> d           2.373   1.339  -0.013  0.00  0.00     0.049 A 
ATOM      4  C4  <0> d           2.306  -0.055  -0.020  0.00  0.00     0.017 A 
ATOM      5  N1  <0> d           1.141  -0.670  -0.013  0.00  0.00    -0.272 NA
ATOM      6  C5  <0> d           0.002  -0.004   0.002  0.00  0.00     0.002 A 
ATOM      7  H1  <0> d          -0.956   1.912   0.026  0.00  0.00     0.085 H 
ATOM      8  H2  <0> d           1.195   3.152   0.007  0.00  0.00     0.085 H 
ATOM      9  H3  <0> d           3.217  -0.635  -0.032  0.00  0.00     0.116 H 
ATOM     10  H4  <0> d          -0.931  -0.548   0.008  0.00  0.00     0.114 H 
ENDROOT
BRANCH   3  11
ATOM     11  C6  <0> d           3.680   2.028  -0.023  0.00  0.00     0.250 C 
ATOM     12  O1  <0> d           3.727   3.243  -0.017  0.00  0.00    -0.268 OA
ATOM     13  N2  <0> d           4.821   1.310  -0.037  0.00  0.00    -0.366 N 
ATOM     14  H5  <0> d           4.784   0.341  -0.042  0.00  0.00     0.159 HD
ATOM     15  H6  <0> d           5.679   1.763  -0.043  0.00  0.00     0.159 HD
ENDBRANCH   3  11
TORSDOF 1
