REMARK  3 active torsions:
REMARK  status: ('A' for Active; 'I' for Inactive)
REMARK    1  A    between atoms: C1_1  and  C2_2 
REMARK    2  A    between atoms: C2_2  and  C7_12 
REMARK    3  A    between atoms: C4_4  and  C6_9 
ROOT
ATOM      1  C2  <0> d          -0.019   1.526   0.010  0.00  0.00     0.036 C 
ATOM      2  C3  <0> d          -0.793   2.050   1.242  0.00  0.00    -0.022 C 
ATOM      3  C4  <0> d          -2.215   2.240   0.658  0.00  0.00     0.097 C 
ATOM      4  H1  <0> d          -2.882   1.382   0.825  0.00  0.00     0.089 H 
ATOM      5  N1  <0> d          -2.022   2.449  -0.782  0.00  0.00    -0.346 N 
ATOM      6  C5  <0> d          -0.799   2.051  -1.174  0.00  0.00     0.226 C 
ATOM      7  O1  <0> d          -0.383   2.105  -2.312  0.00  0.00    -0.273 OA
ATOM      8  H5  <0> d          -0.751   1.302   2.047  0.00  0.00     0.038 H 
ATOM      9  H6  <0> d          -0.338   2.989   1.589  0.00  0.00     0.038 H 
ATOM     10  H7  <0> d          -2.832   2.882  -1.388  0.00  0.00     0.163 HD
ENDROOT
BRANCH   1  11
ATOM     11  C1  <0> d           0.002  -0.004   0.002  0.00  0.00    -0.061 C 
ATOM     12  H2  <0> d           0.573  -0.368   0.869  0.00  0.00     0.029 H 
ATOM     13  H3  <0> d           0.476  -0.359  -0.925  0.00  0.00     0.029 H 
ATOM     14  H4  <0> d          -1.028  -0.385   0.056  0.00  0.00     0.029 H 
ENDBRANCH   1  11
BRANCH   1  15
ATOM     15  C7  <0> d           1.408   2.079  -0.000  0.00  0.00    -0.061 C 
ATOM     16  H8  <0> d           1.374   3.179   0.006  0.00  0.00     0.029 H 
ATOM     17  H9  <0> d           1.928   1.734  -0.905  0.00  0.00     0.029 H 
ATOM     18  H10 <0> d           1.946   1.724   0.891  0.00  0.00     0.029 H 
ENDBRANCH   1  15
BRANCH   3  19
ATOM     19  C6  <0> d          -2.877   3.444   1.276  0.00  0.00     0.196 C 
ATOM     20  O2  <0> d          -2.865   4.504   0.695  0.00  0.00    -0.646 OA
ATOM     21  O3  <0> d          -3.479   3.340   2.471  0.00  0.00    -0.646 OA
ENDBRANCH   3  19
TORSDOF 3
