REMARK  5 active torsions:
REMARK  status: ('A' for Active; 'I' for Inactive)
REMARK    1  A    between atoms: C1_1  and  O1_2 
REMARK    2  A    between atoms: O1_2  and  C2_3 
REMARK    3  A    between atoms: C2_3  and  C3_4 
REMARK    4  A    between atoms: C3_4  and  C4_5 
REMARK    5  A    between atoms: C7_8  and  O2_11 
ROOT
ATOM      1  C4  <0> d           1.208  -0.680  -0.013  0.00  0.00    -0.056 A 
ATOM      2  C5  <0> d           0.002  -0.004   0.002  0.00  0.00    -0.074 A 
ATOM      3  C6  <0> d          -0.017   1.377   0.010  0.00  0.00    -0.051 A 
ATOM      4  C7  <0> d           1.176   2.086   0.002  0.00  0.00     0.065 A 
ATOM      5  C8  <0> d           2.385   1.405  -0.013  0.00  0.00    -0.051 A 
ATOM      6  C9  <0> d           2.398   0.024  -0.021  0.00  0.00    -0.074 A 
ATOM      7  H8  <0> d          -0.926  -0.556   0.008  0.00  0.00     0.084 H 
ATOM      8  H9  <0> d          -0.959   1.905   0.017  0.00  0.00     0.087 H 
ATOM      9  H10 <0> d           3.314   1.955  -0.019  0.00  0.00     0.087 H 
ATOM     10  H11 <0> d           3.339  -0.506  -0.033  0.00  0.00     0.084 H 
ENDROOT
BRANCH   1  11
ATOM     11  C3  <0> d           1.226  -2.187  -0.021  0.00  0.00    -0.021 C 
ATOM     12  H6  <0> d           2.125  -2.543   0.482  0.00  0.00     0.043 H 
ATOM     13  H7  <0> d           0.345  -2.563   0.500  0.00  0.00     0.043 H 
BRANCH  11  14
ATOM     14  C2  <0> d           1.217  -2.690  -1.466  0.00  0.00     0.023 C 
ATOM     15  H4  <0> d           0.318  -2.334  -1.969  0.00  0.00     0.074 H 
ATOM     16  H5  <0> d           2.098  -2.313  -1.986  0.00  0.00     0.074 H 
BRANCH  14  17
ATOM     17  O1  <0> d           1.234  -4.119  -1.473  0.00  0.00    -0.396 OA
BRANCH  17  18
ATOM     18  C1  <0> d           1.228  -4.693  -2.782  0.00  0.00     0.004 C 
ATOM     19  H1  <0> d           0.329  -4.379  -3.312  0.00  0.00     0.066 H 
ATOM     20  H2  <0> d           2.109  -4.359  -3.329  0.00  0.00     0.066 H 
ATOM     21  H3  <0> d           1.242  -5.780  -2.701  0.00  0.00     0.066 H 
ENDBRANCH  17  18
ENDBRANCH  14  17
ENDBRANCH  11  14
ENDBRANCH   1  11
BRANCH   4  22
ATOM     22  O2  <0> d           1.160   3.445   0.009  0.00  0.00    -0.361 OA
ATOM     23  H12 <0> d           1.164   3.834   0.894  0.00  0.00     0.217 HD
ENDBRANCH   4  22
TORSDOF 5
