REMARK  1 active torsions:
REMARK  status: ('A' for Active; 'I' for Inactive)
REMARK    1  A    between atoms: C6_6  and  N1_7 
ROOT
ATOM      1  C1  <0> d          -0.017   1.387   0.010  0.00  0.00    -0.055 A 
ATOM      2  C2  <0> d           1.160   2.105   0.002  0.00  0.00    -0.048 A 
ATOM      3  C3  <0> d           2.388   1.448  -0.013  0.00  0.00     0.083 A 
ATOM      4  C4  <0> d           2.408   0.046  -0.021  0.00  0.00     0.047 A 
ATOM      5  C5  <0> d           1.211  -0.677  -0.013  0.00  0.00    -0.042 A 
ATOM      6  C6  <0> d           0.002  -0.004   0.002  0.00  0.00     0.026 A 
ATOM      7  C7  <0> d           3.814  -0.388  -0.036  0.00  0.00     0.186 A 
ATOM      8  O1  <0> d           4.241  -1.524  -0.047  0.00  0.00    -0.290 OA
ATOM      9  C8  <0> d           4.609   0.900  -0.037  0.00  0.00     0.085 A 
ATOM     10  O2  <0> d           3.644   1.953  -0.022  0.00  0.00    -0.343 OA
ATOM     11  H1  <0> d          -0.962   1.910   0.026  0.00  0.00     0.087 H 
ATOM     12  H2  <0> d           1.130   3.185   0.008  0.00  0.00     0.087 H 
ATOM     13  H3  <0> d           1.230  -1.757  -0.019  0.00  0.00     0.088 H 
ATOM     14  H6  <0> d           5.239   0.955   0.851  0.00  0.00     0.087 H 
ATOM     15  H7  <0> d           5.222   0.964  -0.937  0.00  0.00     0.087 H 
ENDROOT
BRANCH   6  16
ATOM     16  N1  <0> d          -1.200  -0.722   0.010  0.00  0.00    -0.399 N 
ATOM     17  H4  <0> d          -2.047  -0.249   0.021  0.00  0.00     0.156 HD
ATOM     18  H5  <0> d          -1.186  -1.691   0.005  0.00  0.00     0.156 HD
ENDBRANCH   6  16
TORSDOF 1
