REMARK  3 active torsions:
REMARK  status: ('A' for Active; 'I' for Inactive)
REMARK    1  A    between atoms: C1_1  and  O1_2 
REMARK    2  A    between atoms: O1_2  and  C2_3 
REMARK    3  A    between atoms: C4_5  and  N1_10 
ROOT
ATOM      1  C2  <0> d          -1.251   3.793   0.034  0.00  0.00     0.071 A 
ATOM      2  C3  <0> d          -0.062   4.505   0.026  0.00  0.00    -0.025 A 
ATOM      3  C4  <0> d           1.150   3.827   0.011  0.00  0.00     0.029 A 
ATOM      4  C5  <0> d           1.167   2.438   0.004  0.00  0.00    -0.037 A 
ATOM      5  C6  <0> d          -0.021   1.732   0.012  0.00  0.00     0.038 A 
ATOM      6  C7  <0> d          -1.229   2.406   0.021  0.00  0.00    -0.030 A 
ATOM      7 Cl1  <0> d           0.002  -0.004   0.002  0.00  0.00    -0.084 Cl
ATOM      8  H4  <0> d          -0.077   5.585   0.032  0.00  0.00     0.091 H 
ATOM      9  H5  <0> d           2.109   1.910  -0.007  0.00  0.00     0.089 H 
ATOM     10  H6  <0> d          -2.156   1.852   0.022  0.00  0.00     0.090 H 
ENDROOT
BRANCH   1  11
ATOM     11  O1  <0> d          -2.439   4.454   0.047  0.00  0.00    -0.356 OA
BRANCH  11  12
ATOM     12  C1  <0> d          -3.625   3.657   0.054  0.00  0.00     0.010 C 
ATOM     13  H1  <0> d          -4.499   4.308   0.066  0.00  0.00     0.066 H 
ATOM     14  H2  <0> d          -3.648   3.032  -0.838  0.00  0.00     0.066 H 
ATOM     15  H3  <0> d          -3.632   3.024   0.942  0.00  0.00     0.066 H 
ENDBRANCH  11  12
ENDBRANCH   1  11
BRANCH   3  16
ATOM     16  N1  <0> d           2.350   4.542   0.004  0.00  0.00    -0.399 N 
ATOM     17  H7  <0> d           3.196   4.067  -0.006  0.00  0.00     0.156 HD
ATOM     18  H8  <0> d           2.337   5.511   0.009  0.00  0.00     0.156 HD
ENDBRANCH   3  16
TORSDOF 3
