REMARK  3 active torsions:
REMARK  status: ('A' for Active; 'I' for Inactive)
REMARK    1  A    between atoms: C1_1  and  C2_2 
REMARK    2  A    between atoms: C2_2  and  C3_3 
REMARK    3  A    between atoms: C3_3  and  C5_7 
ROOT
ATOM      1  C3  <0> d           2.353   3.611  -0.971  0.00  0.00     0.036 C 
ATOM      2  H1  <0> d           2.081   3.281  -1.974  0.00  0.00     0.063 H 
ATOM      3  C4  <0> d           3.631   2.993  -0.581  0.00  0.00     0.064 C 
ATOM      4  N1  <0> d           4.617   2.516  -0.280  0.00  0.00    -0.197 NA
ENDROOT
BRANCH   1   5
ATOM      5  C2  <0> d           2.498   5.134  -0.956  0.00  0.00    -0.053 C 
ATOM      6  H6  <0> d           1.530   5.593  -1.158  0.00  0.00     0.034 H 
ATOM      7  H7  <0> d           2.855   5.455   0.022  0.00  0.00     0.034 H 
BRANCH   5   8
ATOM      8  C1  <0> d           3.499   5.561  -2.031  0.00  0.00    -0.075 C 
ATOM      9  H3  <0> d           3.141   5.240  -3.010  0.00  0.00     0.027 H 
ATOM     10  H4  <0> d           3.602   6.646  -2.021  0.00  0.00     0.027 H 
ATOM     11  H5  <0> d           4.466   5.103  -1.830  0.00  0.00     0.027 H 
ENDBRANCH   5   8
ENDBRANCH   1   5
BRANCH   1  12
ATOM     12  C5  <0> d           1.262   3.192   0.017  0.00  0.00    -0.022 C 
ATOM     13  H2  <0> d           1.538   3.518   1.020  0.00  0.00     0.048 H 
ATOM     14  C10 <0> d           1.122   1.698   0.001  0.00  0.00    -0.101 C 
ATOM     15  C9  <0> d          -0.013   1.076   0.008  0.00  0.00    -0.106 C 
ATOM     16  H15 <0> d           2.025   1.105  -0.018  0.00  0.00     0.077 H 
ATOM     17  C8  <0> d          -1.347   1.761   0.018  0.00  0.00    -0.050 C 
ATOM     18  H14 <0> d           0.002  -0.004   0.002  0.00  0.00     0.076 H 
ATOM     19  C7  <0> d          -1.185   3.221   0.453  0.00  0.00    -0.061 C 
ATOM     20  H12 <0> d          -1.780   1.725  -0.982  0.00  0.00     0.038 H 
ATOM     21  H13 <0> d          -2.011   1.250   0.716  0.00  0.00     0.038 H 
ATOM     22  C6  <0> d          -0.061   3.850  -0.381  0.00  0.00    -0.057 C 
ATOM     23  H10 <0> d          -0.925   3.266   1.511  0.00  0.00     0.033 H 
ATOM     24  H11 <0> d          -2.115   3.763   0.281  0.00  0.00     0.033 H 
ATOM     25  H8  <0> d          -0.013   4.920  -0.182  0.00  0.00     0.034 H 
ATOM     26  H9  <0> d          -0.252   3.679  -1.440  0.00  0.00     0.034 H 
ENDBRANCH   1  12
TORSDOF 3
