REMARK  4 active torsions:
REMARK  status: ('A' for Active; 'I' for Inactive)
REMARK    1  A    between atoms: C1_1  and  C2_2 
REMARK    2  A    between atoms: C4_4  and  O2_10 
REMARK    3  A    between atoms: C5_5  and  C8_9 
REMARK    4  A    between atoms: C7_7  and  O1_8 
ROOT
ATOM      1  C2  <0> d           2.380   1.418  -0.014  0.00  0.00    -0.026 A 
ATOM      2  C3  <0> d           1.175   2.092   0.002  0.00  0.00    -0.042 A 
ATOM      3  C4  <0> d          -0.017   1.383   0.010  0.00  0.00     0.072 A 
ATOM      4  C5  <0> d           0.002  -0.004   0.002  0.00  0.00    -0.026 A 
ATOM      5  C6  <0> d           1.208  -0.678  -0.014  0.00  0.00    -0.042 A 
ATOM      6  C7  <0> d           2.399   0.031  -0.021  0.00  0.00     0.072 A 
ATOM      7  H4  <0> d           1.160   3.172   0.008  0.00  0.00     0.088 H 
ATOM      8  H5  <0> d           1.222  -1.758  -0.020  0.00  0.00     0.088 H 
ENDROOT
BRANCH   1   9
ATOM      9  C1  <0> d           3.675   2.189  -0.021  0.00  0.00    -0.049 C 
ATOM     10  H1  <0> d           3.978   2.381  -1.050  0.00  0.00     0.033 H 
ATOM     11  H2  <0> d           3.536   3.137   0.499  0.00  0.00     0.033 H 
ATOM     12  H3  <0> d           4.447   1.608   0.483  0.00  0.00     0.033 H 
ENDBRANCH   1   9
BRANCH   6  13
ATOM     13  O1  <0> d           3.586  -0.632  -0.036  0.00  0.00    -0.360 OA
ATOM     14  H6  <0> d           3.921  -0.820  -0.923  0.00  0.00     0.217 HD
ENDBRANCH   6  13
BRANCH   3  15
ATOM     15  O2  <0> d          -1.204   2.047   0.019  0.00  0.00    -0.360 OA
ATOM     16  H10 <0> d          -1.542   2.234   0.905  0.00  0.00     0.217 HD
ENDBRANCH   3  15
BRANCH   4  17
ATOM     17  C8  <0> d          -1.293  -0.775   0.010  0.00  0.00    -0.049 C 
ATOM     18  H7  <0> d          -1.615  -0.956  -1.015  0.00  0.00     0.033 H 
ATOM     19  H8  <0> d          -1.145  -1.728   0.518  0.00  0.00     0.033 H 
ATOM     20  H9  <0> d          -2.055  -0.199   0.535  0.00  0.00     0.033 H 
ENDBRANCH   4  17
TORSDOF 4
