REMARK  2 active torsions:
REMARK  status: ('A' for Active; 'I' for Inactive)
REMARK    1  A    between atoms: C1_1  and  C2_2 
REMARK    2  A    between atoms: N1_7  and  C6_9 
ROOT
ATOM      1  C2  <0> d           0.056   3.906   0.023  0.00  0.00     0.051 A 
ATOM      2  C3  <0> d          -1.200   3.278   0.032  0.00  0.00    -0.053 A 
ATOM      3  C4  <0> d          -1.242   1.913   0.018  0.00  0.00    -0.014 A 
ATOM      4  C5  <0> d          -0.015   1.216   0.009  0.00  0.00     0.263 A 
ATOM      5  O1  <0> d           0.002  -0.004   0.002  0.00  0.00    -0.267 OA
ATOM      6  N1  <0> d           1.138   1.913   0.002  0.00  0.00    -0.239 N 
ATOM      7  N2  <0> d           1.150   3.196   0.008  0.00  0.00    -0.175 NA
ATOM      8  H4  <0> d          -2.110   3.860   0.043  0.00  0.00     0.086 H 
ATOM      9  H5  <0> d          -2.184   1.384   0.020  0.00  0.00     0.092 H 
ENDROOT
BRANCH   1  10
ATOM     10  C1  <0> d           0.141   5.411   0.030  0.00  0.00    -0.034 C 
ATOM     11  H1  <0> d          -0.874   5.835   0.042  0.00  0.00     0.035 H 
ATOM     12  H2  <0> d           0.671   5.753  -0.872  0.00  0.00     0.035 H 
ATOM     13  H3  <0> d           0.688   5.743   0.925  0.00  0.00     0.035 H 
ENDBRANCH   1  10
BRANCH   6  14
ATOM     14  C6  <0> d           2.411   1.187  -0.015  0.00  0.00     0.006 C 
ATOM     15  H6  <0> d           3.243   1.906  -0.019  0.00  0.00     0.059 H 
ATOM     16  H7  <0> d           2.463   0.560  -0.917  0.00  0.00     0.059 H 
ATOM     17  H8  <0> d           2.481   0.549   0.879  0.00  0.00     0.059 H 
ENDBRANCH   6  14
TORSDOF 2
