REMARK  3 active torsions:
REMARK  status: ('A' for Active; 'I' for Inactive)
REMARK    1  A    between atoms: C1_1  and  C2_2 
REMARK    2  A    between atoms: C3_3  and  C5_9 
REMARK    3  A    between atoms: C4_7  and  O1_8 
ROOT
ATOM      1  C2  <0> d           2.368   3.821   0.000  0.00  0.00     0.027 A 
ATOM      2  C3  <0> d           1.238   3.072  -0.001  0.00  0.00     0.137 A 
ATOM      3  N1  <0> d           0.153   3.919   0.024  0.00  0.00    -0.269 N 
ATOM      4  N2  <0> d           0.605   5.243   0.029  0.00  0.00    -0.148 NA
ATOM      5  H1  <0> d          -0.866   3.507   0.037  0.00  0.00     0.189 HD
ATOM      6  C4  <0> d           1.954   5.229   0.015  0.00  0.00     0.190 A 
ENDROOT
BRANCH   1   7
ATOM      7  C1  <0> d           3.784   3.305  -0.011  0.00  0.00    -0.045 C 
ATOM      8  H2  <0> d           3.772   2.205  -0.021  0.00  0.00     0.033 H 
ATOM      9  H3  <0> d           4.310   3.658   0.888  0.00  0.00     0.033 H 
ATOM     10  H4  <0> d           4.301   3.674  -0.908  0.00  0.00     0.033 H 
ENDBRANCH   1   7
BRANCH   6  11
ATOM     11  O1  <0> d           2.688   6.199   0.014  0.00  0.00    -0.343 OA
ATOM     12  H5  <0> d           2.261   7.212   0.026  0.00  0.00     0.219 HD
ENDBRANCH   6  11
BRANCH   2  13
ATOM     13  C5  <0> d           1.181   1.591  -0.014  0.00  0.00     0.229 C 
ATOM     14  O2  <0> d           2.207   0.943  -0.029  0.00  0.00    -0.643 OA
ATOM     15  O3  <0> d          -0.011   0.963  -0.008  0.00  0.00    -0.643 OA
ENDBRANCH   2  13
TORSDOF 3
