REMARK  5 active torsions:
REMARK  status: ('A' for Active; 'I' for Inactive)
REMARK    1  A    between atoms: C1_1  and  C2_2 
REMARK    2  A    between atoms: C2_2  and  N1_3 
REMARK    3  A    between atoms: N1_3  and  C3_4 
REMARK    4  A    between atoms: C7_8  and  O1_10 
REMARK    5  A    between atoms: O1_10  and  C9_11 
ROOT
ATOM      1  C3  <0> d          -0.205   1.221   2.475  0.00  0.00     0.030 A 
ATOM      2  C4  <0> d           0.934   0.432   2.589  0.00  0.00    -0.057 A 
ATOM      3  C5  <0> d           1.425   0.102   3.837  0.00  0.00    -0.078 A 
ATOM      4  C6  <0> d           0.780   0.546   4.976  0.00  0.00    -0.051 A 
ATOM      5  C7  <0> d          -0.361   1.330   4.869  0.00  0.00     0.070 A 
ATOM      6  C8  <0> d          -0.854   1.668   3.618  0.00  0.00    -0.025 A 
ATOM      7  H7  <0> d           1.437   0.080   1.701  0.00  0.00     0.086 H 
ATOM      8  H8  <0> d           2.312  -0.508   3.923  0.00  0.00     0.083 H 
ATOM      9  H9  <0> d           1.163   0.283   5.950  0.00  0.00     0.087 H 
ATOM     10  H10 <0> d          -1.741   2.278   3.533  0.00  0.00     0.091 H 
ENDROOT
BRANCH   1  11
ATOM     11  N1  <0> d          -0.698   1.558   1.213  0.00  0.00    -0.390 N 
ATOM     12  H6  <0> d          -1.495   2.106   1.135  0.00  0.00     0.159 HD
BRANCH  11  13
ATOM     13  C2  <0> d          -0.013   1.086   0.008  0.00  0.00    -0.011 C 
ATOM     14  H4  <0> d           0.002  -0.004   0.002  0.00  0.00     0.063 H 
ATOM     15  H5  <0> d           1.010   1.463   0.000  0.00  0.00     0.063 H 
BRANCH  13  16
ATOM     16  C1  <0> d          -0.753   1.593  -1.232  0.00  0.00    -0.061 C 
ATOM     17  H1  <0> d          -0.242   1.241  -2.128  0.00  0.00     0.029 H 
ATOM     18  H2  <0> d          -1.775   1.215  -1.224  0.00  0.00     0.029 H 
ATOM     19  H3  <0> d          -0.767   2.683  -1.226  0.00  0.00     0.029 H 
ENDBRANCH  13  16
ENDBRANCH  11  13
ENDBRANCH   1  11
BRANCH   5  20
ATOM     20  O1  <0> d          -0.994   1.766   5.989  0.00  0.00    -0.356 OA
BRANCH  20  21
ATOM     21  C9  <0> d          -0.430   1.380   7.245  0.00  0.00     0.010 C 
ATOM     22  H11 <0> d          -1.031   1.793   8.055  0.00  0.00     0.066 H 
ATOM     23  H12 <0> d          -0.419   0.292   7.319  0.00  0.00     0.066 H 
ATOM     24  H13 <0> d           0.589   1.759   7.318  0.00  0.00     0.066 H 
ENDBRANCH  20  21
ENDBRANCH   5  20
TORSDOF 5
