REMARK  1 active torsions:
REMARK  status: ('A' for Active; 'I' for Inactive)
REMARK    1  A    between atoms: C4_4  and  O1_11 
ROOT
ATOM      1  C1  <0> d          -2.193   1.445  -1.219  0.00  0.00    -0.064 C 
ATOM      2  C2  <0> d          -2.909   1.938   0.040  0.00  0.00    -0.063 C 
ATOM      3  C3  <0> d          -2.169   1.432   1.280  0.00  0.00    -0.040 C 
ATOM      4  C4  <0> d          -0.734   1.961   1.269  0.00  0.00     0.051 C 
ATOM      5  H1  <0> d          -0.749   3.051   1.275  0.00  0.00     0.085 H 
ATOM      6  C5  <0> d          -0.018   1.468   0.010  0.00  0.00     0.055 C 
ATOM      7  H2  <0> d           1.005   1.845   0.002  0.00  0.00     0.066 H 
ATOM      8  C6  <0> d          -0.758   1.975  -1.229  0.00  0.00    -0.048 C 
ATOM      9  C7  <0> d           0.002  -0.004   0.002  0.00  0.00     0.066 C 
ATOM     10  N1  <0> d           0.018  -1.140  -0.004  0.00  0.00    -0.197 NA
ATOM     11  H3  <0> d          -2.179   0.355  -1.224  0.00  0.00     0.033 H 
ATOM     12  H4  <0> d          -2.720   1.806  -2.102  0.00  0.00     0.033 H 
ATOM     13  H5  <0> d          -3.932   1.561   0.048  0.00  0.00     0.033 H 
ATOM     14  H6  <0> d          -2.924   3.028   0.046  0.00  0.00     0.033 H 
ATOM     15  H7  <0> d          -2.155   0.342   1.274  0.00  0.00     0.036 H 
ATOM     16  H8  <0> d          -2.680   1.783   2.177  0.00  0.00     0.036 H 
ATOM     17  H9  <0> d          -0.773   3.064  -1.223  0.00  0.00     0.035 H 
ATOM     18  H10 <0> d          -0.248   1.623  -2.126  0.00  0.00     0.035 H 
ENDROOT
BRANCH   4  19
ATOM     19  O1  <0> d          -0.043   1.488   2.427  0.00  0.00    -0.394 OA
ATOM     20  H11 <0> d          -0.442   1.763   3.263  0.00  0.00     0.210 HD
ENDBRANCH   4  19
TORSDOF 1
