REMARK  2 active torsions:
REMARK  status: ('A' for Active; 'I' for Inactive)
REMARK    1  A    between atoms: C1_1  and  C2_2 
REMARK    2  A    between atoms: C4_4  and  N4_11 
ROOT
ATOM      1  C2  <0> d          -0.018   1.457   0.010  0.00  0.00     0.076 A 
ATOM      2  C3  <0> d           0.002  -0.004   0.002  0.00  0.00     0.091 A 
ATOM      3  C4  <0> d          -0.923  -1.052   0.006  0.00  0.00     0.139 A 
ATOM      4  N1  <0> d          -0.457  -2.300  -0.006  0.00  0.00    -0.224 NA
ATOM      5  C5  <0> d           0.841  -2.539  -0.020  0.00  0.00     0.091 A 
ATOM      6  N2  <0> d           1.746  -1.581  -0.023  0.00  0.00    -0.215 NA
ATOM      7  C6  <0> d           1.380  -0.306  -0.013  0.00  0.00     0.211 A 
ATOM      8  O1  <0> d           2.002   0.882  -0.012  0.00  0.00    -0.192 OA
ATOM      9  N3  <0> d           1.234   1.817   0.000  0.00  0.00    -0.130 NA
ATOM     10  H4  <0> d           1.177  -3.566  -0.028  0.00  0.00     0.146 H 
ENDROOT
BRANCH   1  11
ATOM     11  C1  <0> d          -1.228   2.355   0.021  0.00  0.00    -0.032 C 
ATOM     12  H1  <0> d          -1.514   2.566   1.051  0.00  0.00     0.035 H 
ATOM     13  H2  <0> d          -0.991   3.289  -0.489  0.00  0.00     0.035 H 
ATOM     14  H3  <0> d          -2.053   1.860  -0.491  0.00  0.00     0.035 H 
ENDBRANCH   1  11
BRANCH   3  15
ATOM     15  N4  <0> d          -2.280  -0.801   0.020  0.00  0.00    -0.383 N 
ATOM     16  H5  <0> d          -2.604   0.114   0.028  0.00  0.00     0.157 HD
ATOM     17  H6  <0> d          -2.910  -1.538   0.022  0.00  0.00     0.157 HD
ENDBRANCH   3  15
TORSDOF 2
