REMARK  0 active torsions:
REMARK  status: ('A' for Active; 'I' for Inactive)
ROOT
ATOM      1  C1  <0> d          -0.017   1.386   0.010  0.00  0.00    -0.065 A 
ATOM      2  C2  <0> d           1.163   2.084   0.002  0.00  0.00    -0.068 A 
ATOM      3  C3  <0> d           2.358   1.355  -0.013  0.00  0.00     0.018 A 
ATOM      4  C4  <0> d           3.665   2.009  -0.022  0.00  0.00     0.034 A 
ATOM      5  N1  <0> d           4.750   1.293  -0.036  0.00  0.00    -0.183 NA
ATOM      6  N2  <0> d           4.731  -0.102  -0.043  0.00  0.00    -0.242 N 
ATOM      7  H1  <0> d           5.571  -0.585  -0.054  0.00  0.00     0.192 HD
ATOM      8  C5  <0> d           3.575  -0.796  -0.036  0.00  0.00     0.291 A 
ATOM      9  O1  <0> d           3.583  -2.014  -0.042  0.00  0.00    -0.264 OA
ATOM     10  C6  <0> d           2.302  -0.056  -0.020  0.00  0.00     0.137 A 
ATOM     11  N3  <0> d           1.131  -0.678  -0.013  0.00  0.00    -0.255 NA
ATOM     12  C7  <0> d           0.002  -0.004   0.002  0.00  0.00     0.003 A 
ATOM     13  H2  <0> d          -0.959   1.915   0.026  0.00  0.00     0.085 H 
ATOM     14  H3  <0> d           1.170   3.164   0.007  0.00  0.00     0.085 H 
ATOM     15  H4  <0> d           3.729   3.087  -0.016  0.00  0.00     0.118 H 
ATOM     16  H5  <0> d          -0.933  -0.544   0.008  0.00  0.00     0.114 H 
ENDROOT
TORSDOF 0
