REMARK  0 active torsions:
REMARK  status: ('A' for Active; 'I' for Inactive)
ROOT
ATOM      1  C1  <0> d           0.885  -0.265  -1.223  0.00  0.00    -0.073 C 
ATOM      2  C2  <0> d           1.781   0.712  -1.226  0.00  0.00    -0.073 C 
ATOM      3  C3  <0> d           1.448   1.574  -0.003  0.00  0.00     0.072 C 
ATOM      4  C4  <0> d           1.804   0.699   1.204  0.00  0.00    -0.073 C 
ATOM      5  C5  <0> d           0.909  -0.278   1.207  0.00  0.00    -0.073 C 
ATOM      6  C6  <0> d           0.002  -0.004   0.002  0.00  0.00     0.072 C 
ATOM      7  O1  <0> d          -0.018   1.466   0.010  0.00  0.00    -0.365 OA
ATOM      8  H1  <0> d           0.797  -1.074  -1.933  0.00  0.00     0.081 H 
ATOM      9  H2  <0> d           2.576   0.868  -1.940  0.00  0.00     0.081 H 
ATOM     10  H3  <0> d           1.856   2.584   0.005  0.00  0.00     0.096 H 
ATOM     11  H4  <0> d           2.613   0.847   1.904  0.00  0.00     0.081 H 
ATOM     12  H5  <0> d           0.833  -1.094   1.911  0.00  0.00     0.081 H 
ATOM     13  H6  <0> d          -0.969  -0.499   0.015  0.00  0.00     0.096 H 
ENDROOT
TORSDOF 0
