REMARK  2 active torsions:
REMARK  status: ('A' for Active; 'I' for Inactive)
REMARK    1  A    between atoms: C4_6  and  C5_8 
REMARK    2  A    between atoms: C5_8  and  C6_9 
ROOT
ATOM      1  C1  <0> d           2.777   5.090  -0.060  0.00  0.00    -0.038 C 
ATOM      2  C2  <0> d           4.020   5.372   0.815  0.00  0.00     0.011 C 
ATOM      3  C3  <0> d           4.111   4.170   1.729  0.00  0.00     0.217 C 
ATOM      4  O1  <0> d           4.768   4.120   2.747  0.00  0.00    -0.274 OA
ATOM      5  N1  <0> d           3.356   3.167   1.249  0.00  0.00    -0.356 N 
ATOM      6  C4  <0> d           2.696   3.548  -0.005  0.00  0.00     0.021 C 
ATOM      7  H1  <0> d           3.220   3.111  -0.855  0.00  0.00     0.073 H 
ATOM      8  H2  <0> d           2.933   5.436  -1.082  0.00  0.00     0.036 H 
ATOM      9  H3  <0> d           1.884   5.543   0.371  0.00  0.00     0.036 H 
ATOM     10  H4  <0> d           3.878   6.284   1.396  0.00  0.00     0.047 H 
ATOM     11  H5  <0> d           4.913   5.449   0.196  0.00  0.00     0.047 H 
ATOM     12  H6  <0> d           3.260   2.301   1.677  0.00  0.00     0.162 HD
ENDROOT
BRANCH   6  13
ATOM     13  C5  <0> d           1.235   3.094   0.007  0.00  0.00     0.034 C 
ATOM     14  H7  <0> d           0.727   3.482  -0.876  0.00  0.00     0.052 H 
ATOM     15  H8  <0> d           0.744   3.473   0.904  0.00  0.00     0.052 H 
BRANCH  13  16
ATOM     16  C6  <0> d           1.177   1.588  -0.001  0.00  0.00     0.174 C 
ATOM     17  O2  <0> d           2.199   0.944  -0.014  0.00  0.00    -0.648 OA
ATOM     18  O3  <0> d          -0.011   0.963   0.007  0.00  0.00    -0.648 OA
ENDBRANCH  13  16
ENDBRANCH   6  13
TORSDOF 2
