REMARK  3 active torsions:
REMARK  status: ('A' for Active; 'I' for Inactive)
REMARK    1  A    between atoms: C1_1  and  C2_2 
REMARK    2  A    between atoms: C2_2  and  C3_3 
REMARK    3  A    between atoms: N3_7  and  C5_8 
ROOT
ATOM      1  C3  <0> d           0.731  -0.503   1.223  0.00  0.00     0.129 A 
ATOM      2  N1  <0> d           2.011  -0.739   1.317  0.00  0.00    -0.136 NA
ATOM      3  N2  <0> d           2.289  -1.153   2.502  0.00  0.00    -0.143 NA
ATOM      4  C4  <0> d           1.199  -1.201   3.218  0.00  0.00     0.088 A 
ATOM      5  N3  <0> d           0.180  -0.785   2.428  0.00  0.00    -0.331 N 
ATOM      6  H6  <0> d           1.123  -1.511   4.250  0.00  0.00     0.146 H 
ENDROOT
BRANCH   1   7
ATOM      7  C2  <0> d           0.002  -0.004   0.002  0.00  0.00    -0.011 C 
ATOM      8  H4  <0> d          -1.020  -0.381   0.010  0.00  0.00     0.044 H 
ATOM      9  H5  <0> d           0.512  -0.356  -0.895  0.00  0.00     0.044 H 
BRANCH   7  10
ATOM     10  C1  <0> d          -0.019   1.526   0.010  0.00  0.00    -0.070 C 
ATOM     11  H1  <0> d           1.004   1.903   0.003  0.00  0.00     0.028 H 
ATOM     12  H2  <0> d          -0.546   1.887  -0.873  0.00  0.00     0.028 H 
ATOM     13  H3  <0> d          -0.529   1.877   0.907  0.00  0.00     0.028 H 
ENDBRANCH   7  10
ENDBRANCH   1   7
BRANCH   5  14
ATOM     14  C5  <0> d          -1.232  -0.667   2.800  0.00  0.00    -0.012 C 
ATOM     15  H7  <0> d          -1.743  -1.607   2.593  0.00  0.00     0.057 H 
ATOM     16  H8  <0> d          -1.310  -0.439   3.864  0.00  0.00     0.057 H 
ATOM     17  H9  <0> d          -1.695   0.133   2.222  0.00  0.00     0.057 H 
ENDBRANCH   5  14
TORSDOF 3
