REMARK  4 active torsions:
REMARK  status: ('A' for Active; 'I' for Inactive)
REMARK    1  A    between atoms: C1_1  and  C2_2 
REMARK    2  A    between atoms: C2_2  and  C3_4 
REMARK    3  A    between atoms: C5_6  and  O3_11 
REMARK    4  A    between atoms: C8_9  and  O2_10 
ROOT
ATOM      1  C3  <0> d          -0.006  -0.702  -1.216  0.00  0.00     0.045 A 
ATOM      2  C4  <0> d           0.019  -2.102  -1.212  0.00  0.00    -0.035 A 
ATOM      3  C5  <0> d           0.040  -2.785  -0.011  0.00  0.00     0.066 A 
ATOM      4  C6  <0> d           0.042  -2.086   1.191  0.00  0.00    -0.048 A 
ATOM      5  C7  <0> d           0.023  -0.706   1.198  0.00  0.00    -0.047 A 
ATOM      6  C8  <0> d           0.002  -0.004   0.002  0.00  0.00     0.079 A 
ATOM      7  H4  <0> d           0.018  -2.647  -2.144  0.00  0.00     0.089 H 
ATOM      8  H5  <0> d           0.058  -2.627   2.126  0.00  0.00     0.087 H 
ATOM      9  H6  <0> d           0.024  -0.172   2.136  0.00  0.00     0.087 H 
ENDROOT
BRANCH   1  10
ATOM     10  C2  <0> d          -0.035   0.032  -2.487  0.00  0.00     0.158 C 
ATOM     11  O1  <0> d          -0.051   1.245  -2.487  0.00  0.00    -0.293 OA
BRANCH  10  12
ATOM     12  C1  <0> d          -0.043  -0.722  -3.792  0.00  0.00    -0.017 C 
ATOM     13  H1  <0> d          -0.987  -0.902  -4.067  0.00  0.00     0.038 H 
ATOM     14  H2  <0> d           0.452  -0.126  -4.559  0.00  0.00     0.038 H 
ATOM     15  H3  <0> d           0.486  -1.667  -3.669  0.00  0.00     0.038 H 
ENDBRANCH  10  12
ENDBRANCH   1  10
BRANCH   6  16
ATOM     16  O2  <0> d          -0.016   1.353   0.009  0.00  0.00    -0.360 OA
ATOM     17  H7  <0> d           0.862   1.758   0.003  0.00  0.00     0.217 HD
ENDBRANCH   6  16
BRANCH   3  18
ATOM     18  O3  <0> d           0.058  -4.144  -0.005  0.00  0.00    -0.361 OA
ATOM     19  H8  <0> d          -0.820  -4.549   0.005  0.00  0.00     0.217 HD
ENDBRANCH   3  18
TORSDOF 4
