REMARK  1 active torsions:
REMARK  status: ('A' for Active; 'I' for Inactive)
REMARK    1  A    between atoms: C3_3  and  N1_9 
ROOT
ATOM      1  C1  <0> d          -0.017   1.380   0.010  0.00  0.00    -0.043 A 
ATOM      2  C2  <0> d           1.170   2.089   0.002  0.00  0.00    -0.052 A 
ATOM      3  C3  <0> d           2.381   1.413  -0.013  0.00  0.00     0.065 A 
ATOM      4  C4  <0> d           2.399   0.022  -0.021  0.00  0.00     0.145 A 
ATOM      5  C5  <0> d           1.210  -0.682  -0.013  0.00  0.00    -0.006 A 
ATOM      6  C6  <0> d           0.002  -0.004   0.002  0.00  0.00     0.119 A 
ATOM      7  F1  <0> d          -1.159  -0.694   0.010  0.00  0.00    -0.206 F 
ATOM      8  F2  <0> d           3.577  -0.639  -0.036  0.00  0.00    -0.204 F 
ATOM      9  H1  <0> d          -0.960   1.906   0.026  0.00  0.00     0.088 H 
ATOM     10  H2  <0> d           1.154   3.169   0.008  0.00  0.00     0.087 H 
ATOM     11  H3  <0> d           1.222  -1.762  -0.019  0.00  0.00     0.093 H 
ENDROOT
BRANCH   3  12
ATOM     12  N1  <0> d           3.584   2.129  -0.021  0.00  0.00    -0.397 N 
ATOM     13  H4  <0> d           3.571   3.099  -0.016  0.00  0.00     0.156 HD
ATOM     14  H5  <0> d           4.430   1.656  -0.032  0.00  0.00     0.156 HD
ENDBRANCH   3  12
TORSDOF 1
