REMARK  0 active torsions:
REMARK  status: ('A' for Active; 'I' for Inactive)
ROOT
ATOM      1  C1  <0> d           0.002  -0.004   0.002  0.00  0.00    -0.030 A 
ATOM      2  C2  <0> d          -0.017   1.376   0.010  0.00  0.00     0.013 A 
ATOM      3  N1  <0> d           1.108   2.068   0.003  0.00  0.00    -0.211 N 
ATOM      4  O1  <0> d           1.046   3.482   0.011  0.00  0.00    -0.082 OA
ATOM      5  C3  <0> d           2.289   1.477  -0.012  0.00  0.00     0.013 A 
ATOM      6  C4  <0> d           2.390   0.100  -0.020  0.00  0.00    -0.030 A 
ATOM      7  C5  <0> d           1.227  -0.665  -0.013  0.00  0.00     0.110 A 
ATOM      8  O2  <0> d           1.287  -2.022  -0.021  0.00  0.00    -0.192 OA
ATOM      9  H1  <0> d          -0.921  -0.564   0.007  0.00  0.00     0.090 H 
ATOM     10  H2  <0> d          -0.963   1.897   0.017  0.00  0.00     0.115 H 
ATOM     11  H3  <0> d           3.186   2.078  -0.018  0.00  0.00     0.115 H 
ATOM     12  H4  <0> d           3.359  -0.377  -0.032  0.00  0.00     0.090 H 
ENDROOT
TORSDOF 0
