REMARK  2 active torsions:
REMARK  status: ('A' for Active; 'I' for Inactive)
REMARK    1  A    between atoms: N4_5  and  C2_6 
REMARK    2  A    between atoms: C2_6  and  C3_7 
REMARK       I    between atoms: C3_7  and  N5_9 
ROOT
ATOM      1  C2  <0> d          -0.018   1.503   0.010  0.00  0.00     0.093 C 
ATOM      2  H2  <0> d           1.004   1.880   0.003  0.00  0.00     0.082 H 
ATOM      3  H3  <0> d          -0.545   1.864  -0.873  0.00  0.00     0.082 H 
ENDROOT
BRANCH   1   4
ATOM      4  N4  <0> d          -0.704   1.975   1.216  0.00  0.00    -0.233 N 
ATOM      5  C1  <0> d          -0.210   2.825   2.135  0.00  0.00     0.108 A 
ATOM      6  N1  <0> d          -1.144   2.983   3.042  0.00  0.00    -0.122 NA
ATOM      7  H1  <0> d           0.765   3.288   2.127  0.00  0.00     0.149 H 
ATOM      8  N2  <0> d          -2.155   2.261   2.701  0.00  0.00    -0.024 NA
ATOM      9  N3  <0> d          -1.893   1.651   1.598  0.00  0.00    -0.044 NA
ENDBRANCH   1   4
BRANCH   1  10
ATOM     10  C3  <0> d           0.002  -0.004   0.002  0.00  0.00     0.235 C 
ATOM     11  O1  <0> d          -0.506  -0.622   0.913  0.00  0.00    -0.272 OA
ATOM     12  N5  <0> d           0.585  -0.664  -1.018  0.00  0.00    -0.369 N 
ATOM     13  H4  <0> d           0.992  -0.170  -1.747  0.00  0.00     0.159 HD
ATOM     14  H5  <0> d           0.598  -1.634  -1.023  0.00  0.00     0.159 HD
ENDBRANCH   1  10
TORSDOF 2
