REMARK  1 active torsions:
REMARK  status: ('A' for Active; 'I' for Inactive)
REMARK    1  A    between atoms: C1_1  and  C2_2 
REMARK       I    between atoms: C2_2  and  N1_4 
ROOT
ATOM      1  C2  <0> d          -0.542   3.909  -1.994  0.00  0.00     0.215 C 
ATOM      2  O1  <0> d           0.145   3.513  -2.911  0.00  0.00    -0.274 OA
ATOM      3  N1  <0> d          -1.000   3.040  -1.071  0.00  0.00    -0.352 N 
ATOM      4  C3  <0> d          -0.774   1.598  -1.232  0.00  0.00     0.004 C 
ATOM      5  C4  <0> d          -0.017   1.077  -0.004  0.00  0.00     0.005 C 
ATOM      6  C5  <0> d          -0.724   1.570   1.239  0.00  0.00     0.130 C 
ATOM      7  O2  <0> d          -1.061   0.800   2.106  0.00  0.00    -0.298 OA
ATOM      8  C6  <0> d          -0.997   3.053   1.370  0.00  0.00     0.005 C 
ATOM      9  C7  <0> d          -1.730   3.525   0.108  0.00  0.00     0.004 C 
ATOM     10  H4  <0> d          -0.182   1.419  -2.130  0.00  0.00     0.065 H 
ATOM     11  H5  <0> d          -1.731   1.083  -1.317  0.00  0.00     0.065 H 
ATOM     12  H6  <0> d          -0.007   0.077  -0.019  0.00  0.00     0.046 H 
ATOM     13  H7  <0> d           1.006   1.451  -0.018  0.00  0.00     0.046 H 
ATOM     14  H8  <0> d          -0.132   3.544   1.469  0.00  0.00     0.046 H 
ATOM     15  H9  <0> d          -1.620   3.235   2.246  0.00  0.00     0.046 H 
ATOM     16  H10 <0> d          -1.767   4.614   0.093  0.00  0.00     0.065 H 
ATOM     17  H11 <0> d          -2.743   3.122   0.101  0.00  0.00     0.065 H 
ENDROOT
BRANCH   1  18
ATOM     18  C1  <0> d          -0.885   5.373  -1.886  0.00  0.00    -0.003 C 
ATOM     19  H1  <0> d          -1.431   5.551  -0.959  0.00  0.00     0.040 H 
ATOM     20  H2  <0> d           0.032   5.962  -1.887  0.00  0.00     0.040 H 
ATOM     21  H3  <0> d          -1.504   5.664  -2.734  0.00  0.00     0.040 H 
ENDBRANCH   1  18
TORSDOF 1
