REMARK  1 active torsions:
REMARK  status: ('A' for Active; 'I' for Inactive)
REMARK    1  A    between atoms: C5_6  and  O2_9 
ROOT
ATOM      1  C1  <0> d          -0.019   1.525   0.010  0.00  0.00    -0.062 C 
ATOM      2  C2  <0> d           0.002  -0.004   0.002  0.00  0.00    -0.059 C 
ATOM      3  C3  <0> d           0.664  -0.511   1.288  0.00  0.00    -0.007 C 
ATOM      4  C4  <0> d           2.028   0.130   1.411  0.00  0.00     0.155 C 
ATOM      5  O1  <0> d           3.013  -0.542   1.605  0.00  0.00    -0.295 OA
ATOM      6  C5  <0> d           2.128   1.634   1.285  0.00  0.00     0.092 C 
ATOM      7  H1  <0> d           1.696   2.064   2.078  0.00  0.00     0.095 H 
ATOM      8  C6  <0> d           1.413   2.063  -0.000  0.00  0.00    -0.035 C 
ATOM      9  H2  <0> d          -0.548   1.885  -0.872  0.00  0.00     0.033 H 
ATOM     10  H3  <0> d          -0.531   1.876   0.907  0.00  0.00     0.033 H 
ATOM     11  H4  <0> d          -1.019  -0.381  -0.054  0.00  0.00     0.033 H 
ATOM     12  H5  <0> d           0.568  -0.355  -0.861  0.00  0.00     0.033 H 
ATOM     13  H6  <0> d           0.098  -0.264   2.074  0.00  0.00     0.044 H 
ATOM     14  H7  <0> d           0.768  -1.595   1.242  0.00  0.00     0.044 H 
ATOM     15  H8  <0> d           1.945   1.663  -0.863  0.00  0.00     0.037 H 
ATOM     16  H9  <0> d           1.392   3.152  -0.058  0.00  0.00     0.037 H 
ENDROOT
BRANCH   6  17
ATOM     17  O2  <0> d           3.502   2.020   1.222  0.00  0.00    -0.388 OA
ATOM     18  H10 <0> d           4.019   1.766   1.999  0.00  0.00     0.210 HD
ENDBRANCH   6  17
TORSDOF 1
