REMARK  2 active torsions:
REMARK  status: ('A' for Active; 'I' for Inactive)
REMARK    1  A    between atoms: C1_1  and  C2_2 
REMARK    2  A    between atoms: C7_7  and  C8_8 
ROOT
ATOM      1  C2  <0> d           1.133   3.232   0.052  0.00  0.00    -0.042 A 
ATOM      2  C3  <0> d          -0.089   3.824   0.287  0.00  0.00    -0.039 A 
ATOM      3  C4  <0> d          -1.249   3.065   0.251  0.00  0.00     0.117 A 
ATOM      4  C5  <0> d          -1.187   1.708  -0.027  0.00  0.00    -0.045 A 
ATOM      5  C6  <0> d           0.030   1.104  -0.258  0.00  0.00    -0.063 A 
ATOM      6  C7  <0> d           1.202   1.864  -0.223  0.00  0.00     0.046 A 
ATOM      7  F1  <0> d          -2.444   3.651   0.481  0.00  0.00    -0.206 F 
ATOM      8  H4  <0> d          -0.144   4.882   0.500  0.00  0.00     0.089 H 
ATOM      9  H5  <0> d          -2.094   1.122  -0.059  0.00  0.00     0.088 H 
ATOM     10  H6  <0> d           0.077   0.046  -0.470  0.00  0.00     0.085 H 
ENDROOT
BRANCH   1  11
ATOM     11  C1  <0> d           2.393   4.058   0.093  0.00  0.00    -0.050 C 
ATOM     12  H1  <0> d           2.664   4.357  -0.920  0.00  0.00     0.033 H 
ATOM     13  H2  <0> d           2.225   4.947   0.701  0.00  0.00     0.033 H 
ATOM     14  H3  <0> d           3.200   3.468   0.526  0.00  0.00     0.033 H 
ENDBRANCH   1  11
BRANCH   6  15
ATOM     15  C8  <0> d           2.507   1.224  -0.475  0.00  0.00     0.209 C 
ATOM     16  O1  <0> d           3.511   1.903  -0.556  0.00  0.00    -0.644 OA
ATOM     17  O2  <0> d           2.586  -0.113  -0.616  0.00  0.00    -0.644 OA
ENDBRANCH   6  15
TORSDOF 2
