REMARK  2 active torsions:
REMARK  status: ('A' for Active; 'I' for Inactive)
REMARK    1  A    between atoms: C1_1  and  C2_2 
REMARK       I    between atoms: C2_2  and  N1_4 
REMARK    2  A    between atoms: N1_4  and  S1_5 
ROOT
ATOM      1  C2  <0> d          -0.014   1.211   0.009  0.00  0.00     0.247 C 
ATOM      2  O1  <0> d           0.002  -0.004   0.002  0.00  0.00    -0.271 OA
ATOM      3  N1  <0> d           1.132   1.893   0.001  0.00  0.00    -0.150 NA
ENDROOT
BRANCH   1   4
ATOM      4  C1  <0> d          -1.330   1.946   0.019  0.00  0.00    -0.000 C 
ATOM      5  H1  <0> d          -1.642   2.118   1.049  0.00  0.00     0.040 H 
ATOM      6  H2  <0> d          -1.215   2.903  -0.490  0.00  0.00     0.040 H 
ATOM      7  H3  <0> d          -2.084   1.350  -0.495  0.00  0.00     0.040 H 
ENDBRANCH   1   4
BRANCH   3   8
ATOM      8  S1  <0> d           2.493   1.132  -0.016  0.00  0.00     0.178 SA
ATOM      9  O2  <0> d           3.448   2.302  -0.018  0.00  0.00    -0.124 OA
ENDBRANCH   3   8
TORSDOF 2
