REMARK  0 active torsions:
REMARK  status: ('A' for Active; 'I' for Inactive)
ROOT
ATOM      1  C1  <0> d          -0.017   1.392   0.010  0.00  0.00    -0.062 A 
ATOM      2  C2  <0> d           1.170   2.091   0.002  0.00  0.00    -0.073 A 
ATOM      3  C3  <0> d           2.385   1.419  -0.012  0.00  0.00    -0.024 A 
ATOM      4  C4  <0> d           2.410   0.039  -0.015  0.00  0.00    -0.047 A 
ATOM      5  C5  <0> d           1.225  -0.674  -0.011  0.00  0.00    -0.056 A 
ATOM      6  C6  <0> d           0.002  -0.004   0.002  0.00  0.00     0.045 A 
ATOM      7  C7  <0> d          -1.225  -0.742   0.008  0.00  0.00     0.099 C 
ATOM      8  N1  <0> d          -2.199  -1.328   0.013  0.00  0.00    -0.191 NA
ATOM      9  C8  <0> d           3.708  -0.728  -0.018  0.00  0.00    -0.016 C 
ATOM     10  C9  <0> d           4.857   0.190  -0.436  0.00  0.00     0.115 C 
ATOM     11  N2  <0> d           4.797   1.414   0.378  0.00  0.00     0.087 N 
ATOM     12  C10 <0> d           3.652   2.236  -0.025  0.00  0.00     0.135 C 
ATOM     13  H1  <0> d          -0.958   1.922   0.026  0.00  0.00     0.085 H 
ATOM     14  H2  <0> d           1.155   3.171   0.007  0.00  0.00     0.084 H 
ATOM     15  H3  <0> d           1.247  -1.754  -0.018  0.00  0.00     0.086 H 
ATOM     16  H4  <0> d           3.901  -1.117   0.982  0.00  0.00     0.042 H 
ATOM     17  H5  <0> d           3.635  -1.559  -0.720  0.00  0.00     0.042 H 
ATOM     18  H6  <0> d           5.808  -0.315  -0.269  0.00  0.00     0.080 H 
ATOM     19  H7  <0> d           4.756   0.446  -1.491  0.00  0.00     0.080 H 
ATOM     20  H8  <0> d           4.755   1.192   1.362  0.00  0.00     0.316 HD
ATOM     21  H9  <0> d           3.821   2.620  -1.030  0.00  0.00     0.086 H 
ATOM     22  H10 <0> d           3.548   3.072   0.667  0.00  0.00     0.086 H 
ENDROOT
TORSDOF 0
