REMARK  1 active torsions:
REMARK  status: ('A' for Active; 'I' for Inactive)
REMARK    1  A    between atoms: C1_1  and  N1_2 
ROOT
ATOM      1  N1  <0> d          -2.016   2.009  -0.784  0.00  0.00    -0.356 N 
ATOM      2  C2  <0> d          -2.209   1.800   0.655  0.00  0.00    -0.002 C 
ATOM      3  C3  <0> d          -0.787   1.610   1.239  0.00  0.00    -0.042 C 
ATOM      4  C4  <0> d          -0.013   1.086   0.008  0.00  0.00     0.011 C 
ATOM      5  C5  <0> d          -0.793   1.611  -1.176  0.00  0.00     0.219 C 
ATOM      6  O1  <0> d          -0.377   1.665  -2.314  0.00  0.00    -0.273 OA
ATOM      7  H4  <0> d          -2.686   2.672   1.103  0.00  0.00     0.064 H 
ATOM      8  H5  <0> d          -2.812   0.909   0.830  0.00  0.00     0.064 H 
ATOM      9  H6  <0> d          -0.789   0.872   2.042  0.00  0.00     0.036 H 
ATOM     10  H7  <0> d          -0.376   2.559   1.584  0.00  0.00     0.036 H 
ATOM     11  H8  <0> d           0.002  -0.004   0.002  0.00  0.00     0.047 H 
ATOM     12  H9  <0> d           1.003   1.480   0.000  0.00  0.00     0.047 H 
ENDROOT
BRANCH   1  13
ATOM     13  C1  <0> d          -3.027   2.577  -1.680  0.00  0.00    -0.016 C 
ATOM     14  H1  <0> d          -2.630   2.623  -2.694  0.00  0.00     0.056 H 
ATOM     15  H2  <0> d          -3.918   1.950  -1.667  0.00  0.00     0.056 H 
ATOM     16  H3  <0> d          -3.285   3.582  -1.345  0.00  0.00     0.056 H 
ENDBRANCH   1  13
TORSDOF 1
