REMARK  3 active torsions:
REMARK  status: ('A' for Active; 'I' for Inactive)
REMARK    1  A    between atoms: C1_1  and  C2_2 
REMARK    2  A    between atoms: C2_2  and  N1_3 
REMARK    3  A    between atoms: C5_6  and  C6_8 
ROOT
ATOM      1  N1  <0> d          -0.698   1.558   1.213  0.00  0.00    -0.260 N 
ATOM      2  C3  <0> d          -0.447   2.725   1.879  0.00  0.00     0.134 A 
ATOM      3  C4  <0> d          -1.317   2.776   2.949  0.00  0.00    -0.020 A 
ATOM      4  C5  <0> d          -2.089   1.617   2.922  0.00  0.00     0.054 A 
ATOM      5  N2  <0> d          -1.725   0.892   1.894  0.00  0.00    -0.176 NA
ATOM      6  C7  <0> d           0.532   3.710   1.529  0.00  0.00     0.119 C 
ATOM      7  N3  <0> d           1.308   4.492   1.252  0.00  0.00    -0.190 NA
ATOM      8  H6  <0> d          -1.385   3.570   3.679  0.00  0.00     0.091 H 
ENDROOT
BRANCH   1   9
ATOM      9  C2  <0> d          -0.013   1.086   0.008  0.00  0.00     0.015 C 
ATOM     10  H4  <0> d           0.002  -0.004   0.002  0.00  0.00     0.066 H 
ATOM     11  H5  <0> d           1.010   1.463   0.000  0.00  0.00     0.066 H 
BRANCH   9  12
ATOM     12  C1  <0> d          -0.753   1.593  -1.232  0.00  0.00    -0.059 C 
ATOM     13  H1  <0> d          -0.242   1.241  -2.128  0.00  0.00     0.029 H 
ATOM     14  H2  <0> d          -1.775   1.215  -1.224  0.00  0.00     0.029 H 
ATOM     15  H3  <0> d          -0.767   2.683  -1.226  0.00  0.00     0.029 H 
ENDBRANCH   9  12
ENDBRANCH   1   9
BRANCH   4  16
ATOM     16  C6  <0> d          -3.165   1.256   3.913  0.00  0.00    -0.034 C 
ATOM     17  H7  <0> d          -2.727   0.691   4.736  0.00  0.00     0.035 H 
ATOM     18  H8  <0> d          -3.623   2.167   4.301  0.00  0.00     0.035 H 
ATOM     19  H9  <0> d          -3.925   0.650   3.420  0.00  0.00     0.035 H 
ENDBRANCH   4  16
TORSDOF 3
