REMARK  1 active torsions:
REMARK  status: ('A' for Active; 'I' for Inactive)
REMARK    1  A    between atoms: C1_1  and  C2_2 
ROOT
ATOM      1  C2  <0> d           1.149   3.433   0.009  0.00  0.00    -0.053 A 
ATOM      2  C3  <0> d          -0.083   4.068   0.024  0.00  0.00    -0.021 A 
ATOM      3  C4  <0> d          -1.238   3.304   0.031  0.00  0.00     0.212 A 
ATOM      4  N1  <0> d          -1.173   1.984   0.018  0.00  0.00    -0.191 NA
ATOM      5  C5  <0> d          -0.016   1.347   0.009  0.00  0.00     0.212 A 
ATOM      6  C6  <0> d           1.178   2.048   0.002  0.00  0.00    -0.021 A 
ATOM      7  F1  <0> d           0.002  -0.004   0.002  0.00  0.00    -0.184 F 
ATOM      8  F2  <0> d          -2.443   3.913   0.045  0.00  0.00    -0.184 F 
ATOM      9  H4  <0> d          -0.142   5.147   0.030  0.00  0.00     0.091 H 
ATOM     10  H5  <0> d           2.121   1.521  -0.009  0.00  0.00     0.091 H 
ENDROOT
BRANCH   1  11
ATOM     11  C1  <0> d           2.427   4.231   0.002  0.00  0.00    -0.051 C 
ATOM     12  H1  <0> d           2.726   4.429  -1.028  0.00  0.00     0.033 H 
ATOM     13  H2  <0> d           2.268   5.176   0.522  0.00  0.00     0.033 H 
ATOM     14  H3  <0> d           3.211   3.666   0.506  0.00  0.00     0.033 H 
ENDBRANCH   1  11
TORSDOF 1
