REMARK  1 active torsions:
REMARK  status: ('A' for Active; 'I' for Inactive)
REMARK    1  A    between atoms: C5_5  and  C7_7 
REMARK       I    between atoms: C7_7  and  N1_9 
ROOT
ATOM      1  C1  <0> d          -3.629  -1.228   0.013  0.00  0.00    -0.082 A 
ATOM      2  C2  <0> d          -4.837  -0.551   0.022  0.00  0.00    -0.080 A 
ATOM      3  C3  <0> d          -4.862   0.831   0.030  0.00  0.00    -0.045 A 
ATOM      4  C4  <0> d          -3.678   1.547   0.028  0.00  0.00     0.132 A 
ATOM      5  C5  <0> d          -2.456   0.868   0.018  0.00  0.00     0.070 A 
ATOM      6  C6  <0> d          -2.441  -0.528   0.005  0.00  0.00    -0.065 A 
ATOM      7  F1  <0> d          -3.703   2.898   0.035  0.00  0.00    -0.205 F 
ATOM      8  H1  <0> d          -3.618  -2.308   0.007  0.00  0.00     0.083 H 
ATOM      9  H2  <0> d          -5.764  -1.105   0.023  0.00  0.00     0.083 H 
ATOM     10  H3  <0> d          -5.808   1.353   0.037  0.00  0.00     0.088 H 
ATOM     11  H4  <0> d          -1.501  -1.059  -0.007  0.00  0.00     0.085 H 
ENDROOT
BRANCH   5  12
ATOM     12  C7  <0> d          -1.187   1.624   0.017  0.00  0.00     0.252 C 
ATOM     13  O1  <0> d          -1.204   2.839   0.023  0.00  0.00    -0.268 OA
ATOM     14  N1  <0> d          -0.011   0.966   0.007  0.00  0.00    -0.366 N 
ATOM     15  H5  <0> d           0.002  -0.004   0.002  0.00  0.00     0.159 HD
ATOM     16  H6  <0> d           0.822   1.462   0.002  0.00  0.00     0.159 HD
ENDBRANCH   5  12
TORSDOF 1
