REMARK  3 active torsions:
REMARK  status: ('A' for Active; 'I' for Inactive)
REMARK    1  A    between atoms: C2_2  and  C3_3 
REMARK    2  A    between atoms: C3_3  and  O1_4 
REMARK    3  A    between atoms: O1_4  and  C4_5 
REMARK       I    between atoms: C4_5  and  N1_7 
ROOT
ATOM      1  C3  <0> d          -1.176   3.222   0.025  0.00  0.00     0.045 C 
ATOM      2  H4  <0> d          -1.442   3.576   1.021  0.00  0.00     0.081 H 
ATOM      3  H5  <0> d          -0.190   3.600  -0.243  0.00  0.00     0.081 H 
ENDROOT
BRANCH   1   4
ATOM      4  C2  <0> d          -1.156   1.715   0.017  0.00  0.00    -0.089 C 
ATOM      5  C1  <0> d          -0.013   1.076   0.008  0.00  0.00    -0.123 C 
ATOM      6  H1  <0> d           0.002  -0.004   0.002  0.00  0.00     0.066 H 
ATOM      7  H2  <0> d           0.915   1.629   0.002  0.00  0.00     0.066 H 
ATOM      8  H3  <0> d          -2.084   1.163   0.018  0.00  0.00     0.078 H 
ENDBRANCH   1   4
BRANCH   1   9
ATOM      9  O1  <0> d          -2.155   3.698  -0.936  0.00  0.00    -0.300 OA
BRANCH   9  10
ATOM     10  C4  <0> d          -2.299   5.032  -1.052  0.00  0.00     0.358 C 
ATOM     11  O2  <0> d          -1.624   5.777  -0.370  0.00  0.00    -0.239 OA
ATOM     12  N1  <0> d          -3.191   5.540  -1.926  0.00  0.00    -0.346 N 
ATOM     13  H6  <0> d          -3.729   4.944  -2.471  0.00  0.00     0.161 HD
ATOM     14  H7  <0> d          -3.294   6.500  -2.010  0.00  0.00     0.161 HD
ENDBRANCH   9  10
ENDBRANCH   1   9
TORSDOF 3
