REMARK  3 active torsions:
REMARK  status: ('A' for Active; 'I' for Inactive)
REMARK    1  A    between atoms: C1_1  and  C2_2 
REMARK    2  A    between atoms: C4_4  and  O2_9 
REMARK    3  A    between atoms: C6_6  and  O1_8 
ROOT
ATOM      1  C2  <0> d           0.002  -0.004   0.002  0.00  0.00    -0.057 A 
ATOM      2  C3  <0> d           0.006  -0.687  -1.199  0.00  0.00    -0.045 A 
ATOM      3  C4  <0> d           0.025  -2.075  -1.209  0.00  0.00     0.068 A 
ATOM      4  C5  <0> d           0.040  -2.776  -0.013  0.00  0.00    -0.019 A 
ATOM      5  C6  <0> d           0.036  -2.088   1.190  0.00  0.00     0.068 A 
ATOM      6  C7  <0> d           0.023  -0.700   1.196  0.00  0.00    -0.045 A 
ATOM      7  H4  <0> d          -0.006  -0.141  -2.131  0.00  0.00     0.088 H 
ATOM      8  H5  <0> d           0.054  -3.855  -0.019  0.00  0.00     0.092 H 
ATOM      9  H6  <0> d           0.024  -0.164   2.133  0.00  0.00     0.088 H 
ENDROOT
BRANCH   1  10
ATOM     10  C1  <0> d          -0.018   1.503   0.010  0.00  0.00    -0.051 C 
ATOM     11  H1  <0> d           1.004   1.880   0.003  0.00  0.00     0.033 H 
ATOM     12  H2  <0> d          -0.545   1.864  -0.873  0.00  0.00     0.033 H 
ATOM     13  H3  <0> d          -0.529   1.854   0.907  0.00  0.00     0.033 H 
ENDBRANCH   1  10
BRANCH   5  14
ATOM     14  O1  <0> d           0.050  -2.772   2.365  0.00  0.00    -0.361 OA
ATOM     15  H7  <0> d           0.938  -2.958   2.700  0.00  0.00     0.217 HD
ENDBRANCH   5  14
BRANCH   3  16
ATOM     16  O2  <0> d           0.028  -2.746  -2.391  0.00  0.00    -0.361 OA
ATOM     17  H8  <0> d           0.912  -2.928  -2.737  0.00  0.00     0.217 HD
ENDBRANCH   3  16
TORSDOF 3
