REMARK  1 active torsions:
REMARK  status: ('A' for Active; 'I' for Inactive)
REMARK    1  A    between atoms: C5_6  and  C6_7 
ROOT
ATOM      1  C1  <0> d          -0.001   4.078   0.024  0.00  0.00    -0.046 A 
ATOM      2  C2  <0> d           1.160   3.332   0.009  0.00  0.00     0.006 A 
ATOM      3  N1  <0> d           1.121   2.014   0.002  0.00  0.00    -0.230 NA
ATOM      4  C3  <0> d          -0.016   1.347   0.009  0.00  0.00     0.249 A 
ATOM      5  C4  <0> d          -1.233   2.016   0.019  0.00  0.00     0.191 A 
ATOM      6  C5  <0> d          -1.234   3.416   0.032  0.00  0.00     0.085 A 
ATOM      7  F1  <0> d          -2.395   1.328   0.020  0.00  0.00    -0.200 F 
ATOM      8  F2  <0> d           0.002  -0.004   0.002  0.00  0.00    -0.181 F 
ATOM      9  H1  <0> d           0.042   5.157   0.029  0.00  0.00     0.087 H 
ATOM     10  H2  <0> d           2.116   3.836   0.003  0.00  0.00     0.114 H 
ENDROOT
BRANCH   6  11
ATOM     11  C6  <0> d          -2.504   4.175   0.047  0.00  0.00     0.212 C 
ATOM     12  O1  <0> d          -3.564   3.583   0.054  0.00  0.00    -0.644 OA
ATOM     13  O2  <0> d          -2.483   5.521   0.054  0.00  0.00    -0.644 OA
ENDBRANCH   6  11
TORSDOF 1
