REMARK  4 active torsions:
REMARK  status: ('A' for Active; 'I' for Inactive)
REMARK    1  A    between atoms: C1_1  and  C2_2 
REMARK    2  A    between atoms: C2_2  and  C3_3 
REMARK    3  A    between atoms: C3_3  and  C4_5 
REMARK    4  A    between atoms: C3_3  and  C5_6 
ROOT
ATOM      1  C5  <0> d          -0.013   1.086   0.008  0.00  0.00     0.036 C 
ATOM      2  H2  <0> d          -0.028  -0.013  -0.039  0.00  0.00     0.076 H 
ATOM      3  C6  <0> d          -0.725   1.577   1.270  0.00  0.00     0.039 C 
ATOM      4  O1  <0> d          -2.124   1.294   1.147  0.00  0.00    -0.380 OA
ATOM      5  C7  <0> d          -2.766   2.078   0.138  0.00  0.00     0.093 C 
ATOM      6  C8  <0> d          -1.978   2.007  -1.141  0.00  0.00     0.241 C 
ATOM      7  O2  <0> d          -2.506   2.360  -2.174  0.00  0.00    -0.271 OA
ATOM      8  N1  <0> d          -0.716   1.568  -1.178  0.00  0.00    -0.352 N 
ATOM      9  H11 <0> d          -0.315   1.058   2.148  0.00  0.00     0.077 H 
ATOM     10  H12 <0> d          -0.571   2.661   1.379  0.00  0.00     0.077 H 
ATOM     11  H13 <0> d          -3.780   1.691  -0.038  0.00  0.00     0.089 H 
ATOM     12  H14 <0> d          -2.826   3.125   0.470  0.00  0.00     0.089 H 
ATOM     13  H15 <0> d          -0.206   1.579  -2.153  0.00  0.00     0.163 HD
ENDROOT
BRANCH   1  14
ATOM     14  C3  <0> d           1.423   1.613  -0.003  0.00  0.00    -0.036 C 
ATOM     15  H1  <0> d           1.410   2.713   0.003  0.00  0.00     0.042 H 
BRANCH  14  16
ATOM     16  C2  <0> d           2.139   1.119  -1.262  0.00  0.00    -0.064 C 
ATOM     17  H6  <0> d           1.559   1.408  -2.151  0.00  0.00     0.033 H 
ATOM     18  H7  <0> d           2.232   0.024  -1.224  0.00  0.00     0.033 H 
BRANCH  16  19
ATOM     19  C1  <0> d           3.532   1.747  -1.336  0.00  0.00    -0.076 C 
ATOM     20  H3  <0> d           4.047   1.391  -2.241  0.00  0.00     0.027 H 
ATOM     21  H4  <0> d           4.112   1.458  -0.447  0.00  0.00     0.027 H 
ATOM     22  H5  <0> d           3.439   2.842  -1.373  0.00  0.00     0.027 H 
ENDBRANCH  16  19
ENDBRANCH  14  16
BRANCH  14  23
ATOM     23  C4  <0> d           2.163   1.106   1.237  0.00  0.00    -0.071 C 
ATOM     24  H8  <0> d           1.648   1.461   2.142  0.00  0.00     0.028 H 
ATOM     25  H9  <0> d           3.195   1.485   1.229  0.00  0.00     0.028 H 
ATOM     26  H10 <0> d           2.176   0.006   1.231  0.00  0.00     0.028 H 
ENDBRANCH  14  23
ENDBRANCH   1  14
TORSDOF 4
