REMARK  1 active torsions:
REMARK  status: ('A' for Active; 'I' for Inactive)
REMARK    1  A    between atoms: C1_1  and  C2_2 
ROOT
ATOM      1  C2  <0> d          -0.742   1.585  -1.213  0.00  0.00     0.085 A 
ATOM      2  N1  <0> d          -2.022   1.824  -1.296  0.00  0.00    -0.129 NA
ATOM      3  O1  <0> d          -2.300   2.276  -2.608  0.00  0.00    -0.183 OA
ATOM      4  C3  <0> d          -1.144   2.295  -3.291  0.00  0.00     0.266 A 
ATOM      5  O2  <0> d          -0.987   2.670  -4.584  0.00  0.00    -0.160 OA
ATOM      6  C4  <0> d          -0.160   1.879  -2.455  0.00  0.00     0.123 A 
ATOM      7 Cl1  <0> d           1.523   1.732  -2.854  0.00  0.00    -0.077 Cl
ENDROOT
BRANCH   1   8
ATOM      8  C1  <0> d          -0.013   1.086   0.008  0.00  0.00    -0.032 C 
ATOM      9  H1  <0> d           0.002  -0.004   0.002  0.00  0.00     0.035 H 
ATOM     10  H2  <0> d           1.010   1.463   0.000  0.00  0.00     0.035 H 
ATOM     11  H3  <0> d          -0.523   1.437   0.905  0.00  0.00     0.035 H 
ENDBRANCH   1   8
TORSDOF 1
