REMARK  0 active torsions:
REMARK  status: ('A' for Active; 'I' for Inactive)
ROOT
ATOM      1  C1  <0> d           2.395   0.034  -0.019  0.00  0.00    -0.081 A 
ATOM      2  C2  <0> d           2.376   1.417  -0.012  0.00  0.00    -0.081 A 
ATOM      3  C3  <0> d           1.171   2.099   0.002  0.00  0.00    -0.055 A 
ATOM      4  C4  <0> d          -0.017   1.390   0.010  0.00  0.00     0.054 A 
ATOM      5  C5  <0> d           0.002  -0.004   0.002  0.00  0.00     0.054 A 
ATOM      6  C6  <0> d           1.209  -0.680  -0.013  0.00  0.00    -0.055 A 
ATOM      7  N1  <0> d          -1.217  -0.703   0.010  0.00  0.00    -0.388 N 
ATOM      8  C7  <0> d          -2.072  -0.607   1.197  0.00  0.00    -0.006 C 
ATOM      9  C8  <0> d          -2.930   0.646   1.145  0.00  0.00    -0.036 C 
ATOM     10  C9  <0> d          -2.107   1.921   1.211  0.00  0.00    -0.006 C 
ATOM     11  N2  <0> d          -1.254   2.055   0.031  0.00  0.00    -0.388 N 
ATOM     12  H1  <0> d           3.338  -0.490  -0.031  0.00  0.00     0.083 H 
ATOM     13  H2  <0> d           3.305   1.967  -0.017  0.00  0.00     0.083 H 
ATOM     14  H3  <0> d           1.159   3.179   0.008  0.00  0.00     0.087 H 
ATOM     15  H4  <0> d           1.226  -1.760  -0.018  0.00  0.00     0.087 H 
ATOM     16  H5  <0> d          -1.486  -1.238  -0.753  0.00  0.00     0.159 HD
ATOM     17  H6  <0> d          -2.719  -1.483   1.244  0.00  0.00     0.064 H 
ATOM     18  H7  <0> d          -1.446  -0.575   2.088  0.00  0.00     0.064 H 
ATOM     19  H8  <0> d          -3.502   0.644   0.217  0.00  0.00     0.037 H 
ATOM     20  H9  <0> d          -3.624   0.633   1.985  0.00  0.00     0.037 H 
ATOM     21  H10 <0> d          -2.777   2.779   1.269  0.00  0.00     0.064 H 
ATOM     22  H11 <0> d          -1.479   1.896   2.102  0.00  0.00     0.064 H 
ATOM     23  H12 <0> d          -1.542   2.591  -0.725  0.00  0.00     0.159 HD
ENDROOT
TORSDOF 0
