REMARK  6 active torsions:
REMARK  status: ('A' for Active; 'I' for Inactive)
REMARK    1  A    between atoms: C1_1  and  C2_2 
REMARK    2  A    between atoms: C2_2  and  C3_3 
REMARK    3  A    between atoms: C4_4  and  C5_5 
REMARK    4  A    between atoms: C5_5  and  O2_7 
REMARK    5  A    between atoms: O2_7  and  C6_8 
REMARK    6  A    between atoms: C6_8  and  C7_9 
ROOT
ATOM      1  C5  <0> d          -0.017   1.428   0.010  0.00  0.00     0.339 C 
ATOM      2  O1  <0> d           1.027   2.050   0.003  0.00  0.00    -0.249 OA
ENDROOT
BRANCH   1   3
ATOM      3  C4  <0> d           0.002  -0.004   0.002  0.00  0.00     0.002 C 
ATOM      4  C3  <0> d           0.018  -1.178  -0.004  0.00  0.00    -0.096 C 
BRANCH   4   5
ATOM      5  C2  <0> d           0.038  -2.650  -0.013  0.00  0.00    -0.012 C 
ATOM      6  H4  <0> d          -0.985  -3.027  -0.005  0.00  0.00     0.051 H 
ATOM      7  H5  <0> d           0.548  -3.001  -0.909  0.00  0.00     0.051 H 
BRANCH   5   8
ATOM      8  C1  <0> d           0.778  -3.157   1.227  0.00  0.00    -0.067 C 
ATOM      9  H1  <0> d           1.800  -2.779   1.219  0.00  0.00     0.028 H 
ATOM     10  H2  <0> d           0.268  -2.805   2.124  0.00  0.00     0.028 H 
ATOM     11  H3  <0> d           0.793  -4.247   1.221  0.00  0.00     0.028 H 
ENDBRANCH   5   8
ENDBRANCH   4   5
ENDBRANCH   1   3
BRANCH   1  12
ATOM     12  O2  <0> d          -1.194   2.086   0.019  0.00  0.00    -0.311 OA
BRANCH  12  13
ATOM     13  C6  <0> d          -1.137   3.537   0.027  0.00  0.00     0.026 C 
ATOM     14  H6  <0> d          -0.606   3.875   0.916  0.00  0.00     0.074 H 
ATOM     15  H7  <0> d          -0.614   3.885  -0.864  0.00  0.00     0.074 H 
BRANCH  13  16
ATOM     16  C7  <0> d          -2.559   4.102   0.036  0.00  0.00    -0.056 C 
ATOM     17  H8  <0> d          -2.517   5.191   0.042  0.00  0.00     0.030 H 
ATOM     18  H9  <0> d          -3.091   3.764  -0.853  0.00  0.00     0.030 H 
ATOM     19  H10 <0> d          -3.082   3.754   0.927  0.00  0.00     0.030 H 
ENDBRANCH  13  16
ENDBRANCH  12  13
ENDBRANCH   1  12
TORSDOF 6
