REMARK  5 active torsions:
REMARK  status: ('A' for Active; 'I' for Inactive)
REMARK    1  A    between atoms: C1_1  and  C2_2 
REMARK    2  A    between atoms: C2_2  and  C3_4 
REMARK    3  A    between atoms: C2_2  and  C5_8 
REMARK    4  A    between atoms: C3_4  and  C4_6 
REMARK    5  A    between atoms: C3_4  and  O1_7 
ROOT
ATOM      1  C2  <0> d          -1.329   1.940   0.019  0.00  0.00     0.051 C 
ATOM      2  H1  <0> d          -1.400   2.570  -0.867  0.00  0.00     0.059 H 
ENDROOT
BRANCH   1   3
ATOM      3  C1  <0> d          -1.417   2.811   1.273  0.00  0.00    -0.061 C 
ATOM      4  H3  <0> d          -2.368   3.344   1.281  0.00  0.00     0.028 H 
ATOM      5  H4  <0> d          -1.346   2.181   2.160  0.00  0.00     0.028 H 
ATOM      6  H5  <0> d          -0.598   3.531   1.273  0.00  0.00     0.028 H 
ENDBRANCH   1   3
BRANCH   1   7
ATOM      7  C3  <0> d          -2.479   0.930   0.019  0.00  0.00     0.044 C 
ATOM      8  H2  <0> d          -3.430   1.462   0.026  0.00  0.00     0.083 H 
BRANCH   7   9
ATOM      9  C4  <0> d          -2.392   0.058  -1.236  0.00  0.00    -0.052 C 
ATOM     10  H6  <0> d          -3.211  -0.661  -1.236  0.00  0.00     0.030 H 
ATOM     11  H7  <0> d          -2.462   0.689  -2.122  0.00  0.00     0.030 H 
ATOM     12  H8  <0> d          -1.440  -0.474  -1.243  0.00  0.00     0.030 H 
ENDBRANCH   7   9
BRANCH   7  13
ATOM     13  O1  <0> d          -2.386   0.103   1.181  0.00  0.00    -0.395 OA
ATOM     14  H9  <0> d          -3.085  -0.562   1.247  0.00  0.00     0.210 HD
ENDBRANCH   7  13
ENDBRANCH   1   7
BRANCH   1  15
ATOM     15  C5  <0> d          -0.014   1.204   0.009  0.00  0.00     0.179 C 
ATOM     16  O2  <0> d           0.002  -0.004   0.002  0.00  0.00    -0.648 OA
ATOM     17  O3  <0> d           1.139   1.891   0.001  0.00  0.00    -0.648 OA
ENDBRANCH   1  15
TORSDOF 5
