REMARK  4 active torsions:
REMARK  status: ('A' for Active; 'I' for Inactive)
REMARK    1  A    between atoms: C2_2  and  C5_7 
REMARK    2  A    between atoms: C2_2  and  C6_9 
REMARK    3  A    between atoms: C5_7  and  O3_8 
REMARK    4  A    between atoms: C6_9  and  O4_10 
ROOT
ATOM      1  C1  <0> d           2.069  -0.012   1.213  0.00  0.00     0.035 C 
ATOM      2  C2  <0> d           2.068   1.521   1.220  0.00  0.00     0.045 C 
ATOM      3  C3  <0> d           1.284   2.020   0.001  0.00  0.00     0.035 C 
ATOM      4  O1  <0> d          -0.017   1.425   0.010  0.00  0.00    -0.366 OA
ATOM      5  C4  <0> d           0.002  -0.004   0.002  0.00  0.00     0.103 C 
ATOM      6  O2  <0> d           0.718  -0.477   1.146  0.00  0.00    -0.366 OA
ATOM      7  H1  <0> d           2.537  -0.380   2.127  0.00  0.00     0.076 H 
ATOM      8  H2  <0> d           2.624  -0.374   0.348  0.00  0.00     0.076 H 
ATOM      9  H3  <0> d           1.809   1.736  -0.912  0.00  0.00     0.076 H 
ATOM     10  H4  <0> d           1.190   3.105   0.047  0.00  0.00     0.076 H 
ATOM     11  H5  <0> d          -1.020  -0.382   0.031  0.00  0.00     0.117 H 
ATOM     12  H6  <0> d           0.493  -0.356  -0.905  0.00  0.00     0.117 H 
ENDROOT
BRANCH   2  13
ATOM     13  C5  <0> d           1.402   2.028   2.500  0.00  0.00     0.030 C 
ATOM     14  H7  <0> d           0.375   1.664   2.544  0.00  0.00     0.075 H 
ATOM     15  H8  <0> d           1.954   1.662   3.366  0.00  0.00     0.075 H 
BRANCH  13  16
ATOM     16  O3  <0> d           1.401   3.457   2.503  0.00  0.00    -0.400 OA
ATOM     17  H9  <0> d           0.993   3.848   3.288  0.00  0.00     0.209 HD
ENDBRANCH  13  16
ENDBRANCH   2  13
BRANCH   2  18
ATOM     18  C6  <0> d           3.507   2.035   1.153  0.00  0.00     0.030 C 
ATOM     19  H10 <0> d           4.064   1.670   2.015  0.00  0.00     0.075 H 
ATOM     20  H11 <0> d           3.979   1.677   0.237  0.00  0.00     0.075 H 
BRANCH  18  21
ATOM     21  O4  <0> d           3.503   3.464   1.158  0.00  0.00    -0.400 OA
ATOM     22  H12 <0> d           4.385   3.860   1.118  0.00  0.00     0.209 HD
ENDBRANCH  18  21
ENDBRANCH   2  18
TORSDOF 4
