REMARK  1 active torsions:
REMARK  status: ('A' for Active; 'I' for Inactive)
REMARK    1  A    between atoms: C7_9  and  C8_11 
ROOT
ATOM      1  C1  <0> d          -0.017   1.374   0.010  0.00  0.00    -0.081 A 
ATOM      2  C2  <0> d           1.170   2.094   0.002  0.00  0.00    -0.081 A 
ATOM      3  C3  <0> d           2.375   1.450  -0.013  0.00  0.00    -0.053 A 
ATOM      4  C4  <0> d           2.418   0.054  -0.021  0.00  0.00     0.085 A 
ATOM      5  C5  <0> d           1.217  -0.675  -0.013  0.00  0.00     0.062 A 
ATOM      6  C6  <0> d           0.002  -0.004   0.002  0.00  0.00    -0.055 A 
ATOM      7  N1  <0> d           1.580  -2.007  -0.024  0.00  0.00    -0.342 N 
ATOM      8  H1  <0> d           0.977  -2.767  -0.022  0.00  0.00     0.167 HD
ATOM      9  C7  <0> d           2.939  -2.056  -0.038  0.00  0.00     0.109 A 
ATOM     10  N2  <0> d           3.430  -0.852  -0.036  0.00  0.00    -0.233 NA
ATOM     11  H2  <0> d          -0.961   1.898   0.026  0.00  0.00     0.083 H 
ATOM     12  H3  <0> d           1.141   3.173   0.008  0.00  0.00     0.083 H 
ATOM     13  H4  <0> d           3.292   2.020  -0.020  0.00  0.00     0.087 H 
ATOM     14  H5  <0> d          -0.924  -0.559   0.008  0.00  0.00     0.087 H 
ENDROOT
BRANCH   9  15
ATOM     15  C8  <0> d           3.757  -3.322  -0.052  0.00  0.00     0.004 A 
ATOM     16  C10 <0> d           4.055  -3.986   1.294  0.00  0.00    -0.054 A 
ATOM     17  C9  <0> d           3.051  -4.624   0.331  0.00  0.00    -0.054 A 
ATOM     18  H9  <0> d           5.021  -4.476   1.410  0.00  0.00     0.034 H 
ATOM     19  H10 <0> d           3.659  -3.508   2.189  0.00  0.00     0.034 H 
ATOM     20  H7  <0> d           1.995  -4.565   0.594  0.00  0.00     0.034 H 
ATOM     21  H8  <0> d           3.357  -5.534  -0.186  0.00  0.00     0.034 H 
ATOM     22  H6  <0> d           4.528  -3.375  -0.821  0.00  0.00     0.052 H 
ENDBRANCH   9  15
TORSDOF 1
