REMARK  1 active torsions:
REMARK  status: ('A' for Active; 'I' for Inactive)
REMARK    1  A    between atoms: C5_6  and  N2_7 
ROOT
ATOM      1  C1  <0> d          -0.013   1.076   0.008  0.00  0.00    -0.052 A 
ATOM      2  C2  <0> d          -1.211   1.767   0.017  0.00  0.00    -0.042 A 
ATOM      3  C3  <0> d          -1.198   3.155   0.030  0.00  0.00     0.127 A 
ATOM      4  N1  <0> d          -0.066   3.825   0.023  0.00  0.00    -0.223 NA
ATOM      5  C4  <0> d           1.111   3.206   0.009  0.00  0.00     0.164 A 
ATOM      6  C5  <0> d           1.175   1.805   0.001  0.00  0.00     0.065 A 
ATOM      7  C6  <0> d           2.319   3.974   0.001  0.00  0.00     0.122 C 
ATOM      8  N3  <0> d           3.278   4.583  -0.005  0.00  0.00    -0.190 NA
ATOM      9 Cl1  <0> d          -2.702   4.022   0.049  0.00  0.00    -0.062 Cl
ATOM     10  H1  <0> d           0.002  -0.004   0.002  0.00  0.00     0.087 H 
ATOM     11  H2  <0> d          -2.148   1.231   0.018  0.00  0.00     0.088 H 
ENDROOT
BRANCH   6  12
ATOM     12  N2  <0> d           2.405   1.155  -0.014  0.00  0.00    -0.397 N 
ATOM     13  H3  <0> d           3.336   1.739  -0.020  0.00  0.00     0.156 HD
ATOM     14  H4  <0> d           2.445   0.055  -0.020  0.00  0.00     0.156 HD
ENDBRANCH   6  12
TORSDOF 1
