REMARK  5 active torsions:
REMARK  status: ('A' for Active; 'I' for Inactive)
REMARK    1  A    between atoms: C1_1  and  C2_2 
REMARK    2  A    between atoms: C2_2  and  C3_4 
REMARK    3  A    between atoms: C2_2  and  O2_9 
REMARK    4  A    between atoms: O2_9  and  C7_10 
REMARK    5  A    between atoms: C7_10  and  C8_12 
ROOT
ATOM      1  C2  <0> d           2.499   1.455  -0.015  0.00  0.00     0.090 C 
ATOM      2  H1  <0> d           2.572   0.461  -0.456  0.00  0.00     0.094 H 
ENDROOT
BRANCH   1   3
ATOM      3  C1  <0> d           3.038   1.419   1.417  0.00  0.00    -0.046 C 
ATOM      4  H2  <0> d           2.452   0.716   2.008  0.00  0.00     0.031 H 
ATOM      5  H3  <0> d           4.081   1.103   1.405  0.00  0.00     0.031 H 
ATOM      6  H4  <0> d           2.964   2.413   1.858  0.00  0.00     0.031 H 
ENDBRANCH   1   3
BRANCH   1   7
ATOM      7  C3  <0> d           1.057   1.892   0.002  0.00  0.00     0.081 A 
ATOM      8  O1  <0> d           0.621   3.162   0.013  0.00  0.00    -0.324 OA
ATOM      9  C6  <0> d          -0.722   3.175   0.026  0.00  0.00     0.019 A 
ATOM     10  C5  <0> d          -1.159   1.903   0.017  0.00  0.00    -0.059 A 
ATOM     11  H7  <0> d          -1.345   4.057   0.037  0.00  0.00     0.123 H 
ATOM     12  C4  <0> d          -0.013   1.076   0.008  0.00  0.00    -0.050 A 
ATOM     13  H6  <0> d          -2.189   1.576   0.020  0.00  0.00     0.086 H 
ATOM     14  H5  <0> d           0.002  -0.004   0.002  0.00  0.00     0.087 H 
ENDBRANCH   1   7
BRANCH   1  15
ATOM     15  O2  <0> d           3.279   2.393  -0.802  0.00  0.00    -0.310 OA
BRANCH  15  16
ATOM     16  C7  <0> d           4.357   1.906  -1.437  0.00  0.00     0.255 C 
ATOM     17  O3  <0> d           4.639   0.735  -1.338  0.00  0.00    -0.266 OA
BRANCH  16  18
ATOM     18  C8  <0> d           5.215   2.820  -2.273  0.00  0.00     0.004 C 
ATOM     19  H8  <0> d           5.617   3.616  -1.647  0.00  0.00     0.041 H 
ATOM     20  H9  <0> d           6.037   2.250  -2.707  0.00  0.00     0.041 H 
ATOM     21  H10 <0> d           4.614   3.254  -3.072  0.00  0.00     0.041 H 
ENDBRANCH  16  18
ENDBRANCH  15  16
ENDBRANCH   1  15
TORSDOF 5
