REMARK  3 active torsions:
REMARK  status: ('A' for Active; 'I' for Inactive)
REMARK    1  A    between atoms: C1_1  and  C2_2 
REMARK    2  A    between atoms: C2_2  and  C3_3 
REMARK    3  A    between atoms: C3_3  and  N1_4 
ROOT
ATOM      1  C3  <0> d           0.718  -0.497  -1.257  0.00  0.00     0.016 C 
ATOM      2  H6  <0> d           0.191  -0.136  -2.140  0.00  0.00     0.067 H 
ATOM      3  H7  <0> d           1.741  -0.120  -1.264  0.00  0.00     0.067 H 
ENDROOT
BRANCH   1   4
ATOM      4  C2  <0> d           0.002  -0.004   0.002  0.00  0.00    -0.052 C 
ATOM      5  H4  <0> d           0.529  -0.365   0.885  0.00  0.00     0.035 H 
ATOM      6  H5  <0> d          -1.020  -0.381   0.010  0.00  0.00     0.035 H 
BRANCH   4   7
ATOM      7  C1  <0> d          -0.019   1.526   0.010  0.00  0.00    -0.075 C 
ATOM      8  H1  <0> d           1.004   1.903   0.003  0.00  0.00     0.027 H 
ATOM      9  H2  <0> d          -0.546   1.887  -0.873  0.00  0.00     0.027 H 
ATOM     10  H3  <0> d          -0.529   1.877   0.907  0.00  0.00     0.027 H 
ENDBRANCH   4   7
ENDBRANCH   1   4
BRANCH   1  11
ATOM     11  N1  <0> d           0.738  -1.962  -1.265  0.00  0.00    -0.280 N 
ATOM     12  N2  <0> d           1.238  -2.785  -0.248  0.00  0.00    -0.184 NA
ATOM     13  C6  <0> d           1.079  -4.031  -0.614  0.00  0.00     0.044 A 
ATOM     14  C5  <0> d           0.482  -4.042  -1.879  0.00  0.00     0.070 A 
ATOM     15  H9  <0> d           1.364  -4.901  -0.041  0.00  0.00     0.120 H 
ATOM     16  C4  <0> d           0.283  -2.758  -2.257  0.00  0.00     0.021 A 
ATOM     17 Cl1  <0> d           0.069  -5.454  -2.802  0.00  0.00    -0.081 Cl
ATOM     18  H8  <0> d          -0.161  -2.428  -3.184  0.00  0.00     0.116 H 
ENDBRANCH   1  11
TORSDOF 3
