REMARK  0 active torsions:
REMARK  status: ('A' for Active; 'I' for Inactive)
ROOT
ATOM      1  C1  <0> d           1.343   3.061  -0.257  0.00  0.00     0.007 C 
ATOM      2  C2  <0> d           1.362   1.554  -0.003  0.00  0.00     0.007 C 
ATOM      3  N1  <0> d          -0.012   1.005   0.008  0.00  0.00    -0.383 N 
ATOM      4  C3  <0> d          -0.652   1.496  -1.110  0.00  0.00     0.114 A 
ATOM      5  C4  <0> d          -0.201   2.600  -1.893  0.00  0.00     0.114 A 
ATOM      6  C5  <0> d          -1.336   2.431  -2.777  0.00  0.00     0.252 A 
ATOM      7  O1  <0> d          -1.734   2.994  -3.779  0.00  0.00    -0.281 OA
ATOM      8  C6  <0> d          -1.814   1.285  -1.954  0.00  0.00     0.252 A 
ATOM      9  O2  <0> d          -2.757   0.517  -1.979  0.00  0.00    -0.281 OA
ATOM     10  N2  <0> d           0.923   3.351  -1.647  0.00  0.00    -0.383 N 
ATOM     11  H1  <0> d           2.352   3.463  -0.087  0.00  0.00     0.066 H 
ATOM     12  H2  <0> d           0.638   3.531   0.444  0.00  0.00     0.066 H 
ATOM     13  H3  <0> d           1.937   1.055  -0.797  0.00  0.00     0.066 H 
ATOM     14  H4  <0> d           1.831   1.352   0.972  0.00  0.00     0.066 H 
ATOM     15  H5  <0> d          -0.331   0.337   0.821  0.00  0.00     0.159 HD
ATOM     16  H6  <0> d           1.500   4.060  -2.259  0.00  0.00     0.159 HD
ENDROOT
TORSDOF 0
