REMARK  6 active torsions:
REMARK  status: ('A' for Active; 'I' for Inactive)
REMARK    1  A    between atoms: C1_1  and  C2_2 
REMARK    2  A    between atoms: C2_2  and  C3_4 
REMARK    3  A    between atoms: C2_2  and  O3_9 
REMARK    4  A    between atoms: C3_4  and  O1_5 
REMARK    5  A    between atoms: O1_5  and  C4_6 
REMARK    6  A    between atoms: C4_6  and  C5_8 
ROOT
ATOM      1  C3  <0> d           1.305  -0.646  -0.014  0.00  0.00     0.052 C 
ATOM      2  H5  <0> d           1.849  -0.340  -0.907  0.00  0.00     0.079 H 
ATOM      3  H6  <0> d           1.866  -0.350   0.872  0.00  0.00     0.079 H 
ENDROOT
BRANCH   1   4
ATOM      4  C2  <0> d           1.125  -2.165  -0.020  0.00  0.00     0.053 C 
ATOM      5  H1  <0> d           0.489  -2.452  -0.858  0.00  0.00     0.085 H 
BRANCH   4   6
ATOM      6  C1  <0> d           2.490  -2.840  -0.163  0.00  0.00    -0.050 C 
ATOM      7  H2  <0> d           3.127  -2.553   0.675  0.00  0.00     0.031 H 
ATOM      8  H3  <0> d           2.362  -3.922  -0.167  0.00  0.00     0.031 H 
ATOM      9  H4  <0> d           2.956  -2.525  -1.097  0.00  0.00     0.031 H 
ENDBRANCH   4   6
BRANCH   4  10
ATOM     10  O3  <0> d           0.515  -2.578   1.204  0.00  0.00    -0.394 OA
ATOM     11  H10 <0> d           1.027  -2.354   1.994  0.00  0.00     0.210 HD
ENDBRANCH   4  10
ENDBRANCH   1   4
BRANCH   1  12
ATOM     12  O1  <0> d           0.002  -0.004   0.002  0.00  0.00    -0.319 OA
BRANCH  12  13
ATOM     13  C4  <0> d          -0.016   1.338   0.009  0.00  0.00     0.254 C 
ATOM     14  O2  <0> d           1.022   1.956   0.003  0.00  0.00    -0.266 OA
BRANCH  13  15
ATOM     15  C5  <0> d          -1.331   2.074   0.020  0.00  0.00     0.004 C 
ATOM     16  H7  <0> d          -2.150   1.354   0.020  0.00  0.00     0.041 H 
ATOM     17  H8  <0> d          -1.393   2.695   0.913  0.00  0.00     0.041 H 
ATOM     18  H9  <0> d          -1.402   2.704  -0.867  0.00  0.00     0.041 H 
ENDBRANCH  13  15
ENDBRANCH  12  13
ENDBRANCH   1  12
TORSDOF 6
