REMARK  2 active torsions:
REMARK  status: ('A' for Active; 'I' for Inactive)
REMARK    1  A    between atoms: C3_3  and  C5_6 
REMARK    2  A    between atoms: C7_8  and  O2_12 
ROOT
ATOM      1  C5  <0> d           3.570   0.618  -0.029  0.00  0.00     0.088 A 
ATOM      2  C6  <0> d           4.361  -0.511  -0.049  0.00  0.00    -0.001 A 
ATOM      3  C7  <0> d           5.696  -0.092  -0.058  0.00  0.00     0.183 A 
ATOM      4  N1  <0> d           5.723   1.219  -0.045  0.00  0.00    -0.149 NA
ATOM      5  H1  <0> d           4.137   2.629  -0.026  0.00  0.00     0.189 HD
ATOM      6  N2  <0> d           4.406   1.697  -0.033  0.00  0.00    -0.273 N 
ATOM      7  H5  <0> d           4.014  -1.534  -0.055  0.00  0.00     0.094 H 
ENDROOT
BRANCH   1   8
ATOM      8  C3  <0> d           2.097   0.654  -0.015  0.00  0.00     0.103 A 
ATOM      9  C2  <0> d           1.325   1.775  -0.001  0.00  0.00    -0.046 A 
ATOM     10  C1  <0> d          -0.016   1.343   0.009  0.00  0.00    -0.059 A 
ATOM     11  H3  <0> d           1.673   2.797   0.001  0.00  0.00     0.087 H 
ATOM     12  C4  <0> d           0.002  -0.004   0.002  0.00  0.00     0.019 A 
ATOM     13  H2  <0> d          -0.893   1.974   0.025  0.00  0.00     0.086 H 
ATOM     14  O1  <0> d           1.280  -0.418  -0.012  0.00  0.00    -0.320 OA
ATOM     15  H4  <0> d          -0.867  -0.645   0.007  0.00  0.00     0.123 H 
ENDBRANCH   1   8
BRANCH   3  16
ATOM     16  O2  <0> d           6.783  -0.908  -0.076  0.00  0.00    -0.344 OA
ATOM     17  H6  <0> d           7.089  -1.135  -0.965  0.00  0.00     0.219 HD
ENDBRANCH   3  16
TORSDOF 2
