REMARK  0 active torsions:
REMARK  status: ('A' for Active; 'I' for Inactive)
ROOT
ATOM      1  C1  <0> d          -0.017   1.382   0.010  0.00  0.00    -0.067 A 
ATOM      2  C2  <0> d           1.190   2.064   0.002  0.00  0.00    -0.033 A 
ATOM      3  C3  <0> d           2.371   1.346  -0.013  0.00  0.00     0.041 A 
ATOM      4  N1  <0> d           2.346   0.025  -0.020  0.00  0.00    -0.257 NA
ATOM      5  C4  <0> d           1.217  -0.662  -0.013  0.00  0.00     0.041 A 
ATOM      6  C5  <0> d           0.002  -0.004   0.002  0.00  0.00    -0.033 A 
ATOM      7  C6  <0> d          -1.129  -1.008   0.007  0.00  0.00    -0.039 C 
ATOM      8  C7  <0> d          -0.489  -2.337  -0.446  0.00  0.00    -0.056 C 
ATOM      9  C8  <0> d           0.983  -2.159  -0.019  0.00  0.00    -0.024 C 
ATOM     10  C9  <0> d           3.546   2.302  -0.019  0.00  0.00    -0.024 C 
ATOM     11  C10 <0> d           2.967   3.659   0.434  0.00  0.00    -0.056 C 
ATOM     12  C11 <0> d           1.488   3.547   0.008  0.00  0.00    -0.039 C 
ATOM     13  H1  <0> d          -0.953   1.920   0.017  0.00  0.00     0.085 H 
ATOM     14  H2  <0> d          -1.541  -1.108   1.011  0.00  0.00     0.040 H 
ATOM     15  H3  <0> d          -1.907  -0.704  -0.693  0.00  0.00     0.040 H 
ATOM     16  H4  <0> d          -0.567  -2.457  -1.526  0.00  0.00     0.034 H 
ATOM     17  H5  <0> d          -0.943  -3.182   0.072  0.00  0.00     0.034 H 
ATOM     18  H6  <0> d           1.646  -2.643  -0.736  0.00  0.00     0.042 H 
ATOM     19  H7  <0> d           1.141  -2.570   0.978  0.00  0.00     0.042 H 
ATOM     20  H8  <0> d           4.312   1.964   0.679  0.00  0.00     0.042 H 
ATOM     21  H9  <0> d           3.961   2.385  -1.024  0.00  0.00     0.042 H 
ATOM     22  H10 <0> d           3.459   4.482  -0.084  0.00  0.00     0.034 H 
ATOM     23  H11 <0> d           3.052   3.774   1.514  0.00  0.00     0.034 H 
ATOM     24  H12 <0> d           1.348   3.965  -0.989  0.00  0.00     0.040 H 
ATOM     25  H13 <0> d           0.846   4.058   0.725  0.00  0.00     0.040 H 
ENDROOT
TORSDOF 0
