REMARK  3 active torsions:
REMARK  status: ('A' for Active; 'I' for Inactive)
REMARK    1  A    between atoms: C1_1  and  C2_2 
REMARK    2  A    between atoms: C2_2  and  C3_3 
REMARK    3  A    between atoms: C3_3  and  C4_4 
ROOT
ATOM      1  C4  <0> d           0.739  -2.004  -1.265  0.00  0.00    -0.031 A 
ATOM      2  C5  <0> d           1.831  -2.684  -0.770  0.00  0.00    -0.075 A 
ATOM      3  C6  <0> d           1.862  -4.071  -0.772  0.00  0.00    -0.082 A 
ATOM      4  C7  <0> d           0.808  -4.788  -1.265  0.00  0.00    -0.071 A 
ATOM      5  C8  <0> d          -0.308  -4.121  -1.771  0.00  0.00    -0.008 A 
ATOM      6  C9  <0> d          -0.347  -2.714  -1.767  0.00  0.00     0.048 A 
ATOM      7  N1  <0> d          -1.554  -2.339  -2.313  0.00  0.00    -0.365 N 
ATOM      8  H1  <0> d          -1.850  -1.424  -2.437  0.00  0.00     0.165 HD
ATOM      9  C10 <0> d          -2.276  -3.451  -2.654  0.00  0.00    -0.022 A 
ATOM     10  C11 <0> d          -1.577  -4.558  -2.360  0.00  0.00    -0.056 A 
ATOM     11  H9  <0> d           2.671  -2.131  -0.377  0.00  0.00     0.084 H 
ATOM     12  H10 <0> d           2.725  -4.588  -0.381  0.00  0.00     0.083 H 
ATOM     13  H11 <0> d           0.839  -5.868  -1.264  0.00  0.00     0.084 H 
ATOM     14  H12 <0> d          -3.259  -3.439  -3.101  0.00  0.00     0.111 H 
ATOM     15  H13 <0> d          -1.893  -5.579  -2.517  0.00  0.00     0.086 H 
ENDROOT
BRANCH   1  16
ATOM     16  C3  <0> d           0.718  -0.497  -1.257  0.00  0.00    -0.039 C 
ATOM     17  H7  <0> d           0.191  -0.136  -2.140  0.00  0.00     0.040 H 
ATOM     18  H8  <0> d           1.741  -0.120  -1.264  0.00  0.00     0.040 H 
BRANCH  16  19
ATOM     19  C2  <0> d           0.002  -0.004   0.002  0.00  0.00    -0.065 C 
ATOM     20  H5  <0> d           0.529  -0.365   0.885  0.00  0.00     0.032 H 
ATOM     21  H6  <0> d          -1.020  -0.381   0.010  0.00  0.00     0.032 H 
BRANCH  19  22
ATOM     22  C1  <0> d          -0.019   1.526   0.010  0.00  0.00    -0.076 C 
ATOM     23  H2  <0> d           1.004   1.903   0.003  0.00  0.00     0.027 H 
ATOM     24  H3  <0> d          -0.546   1.887  -0.873  0.00  0.00     0.027 H 
ATOM     25  H4  <0> d          -0.529   1.877   0.907  0.00  0.00     0.027 H 
ENDBRANCH  19  22
ENDBRANCH  16  19
ENDBRANCH   1  16
TORSDOF 3
