REMARK  7 active torsions:
REMARK  status: ('A' for Active; 'I' for Inactive)
REMARK    1  A    between atoms: C1_1  and  C2_2 
REMARK       I    between atoms: C2_2  and  N1_4 
REMARK    2  A    between atoms: N1_4  and  C3_5 
REMARK    3  A    between atoms: C3_5  and  C4_6 
REMARK    4  A    between atoms: C4_6  and  O2_7 
REMARK    5  A    between atoms: C4_6  and  O3_9 
REMARK    6  A    between atoms: O2_7  and  C5_8 
REMARK    7  A    between atoms: O3_9  and  C6_10 
ROOT
ATOM      1  C4  <0> d          -2.217  -3.170   0.460  0.00  0.00     0.144 C 
ATOM      2  H7  <0> d          -2.206  -4.245   0.639  0.00  0.00     0.131 H 
ENDROOT
BRANCH   1   3
ATOM      3  C3  <0> d          -0.781  -2.644   0.425  0.00  0.00     0.041 C 
ATOM      4  H5  <0> d          -0.232  -3.140  -0.376  0.00  0.00     0.071 H 
ATOM      5  H6  <0> d          -0.296  -2.848   1.379  0.00  0.00     0.071 H 
BRANCH   3   6
ATOM      6  N1  <0> d          -0.796  -1.199   0.183  0.00  0.00    -0.357 N 
ATOM      7  C2  <0> d           0.363  -0.515   0.112  0.00  0.00     0.213 C 
ATOM      8  O1  <0> d           1.419  -1.096   0.247  0.00  0.00    -0.274 OA
ATOM      9  H4  <0> d          -1.641  -0.734   0.075  0.00  0.00     0.162 HD
BRANCH   7  10
ATOM     10  C1  <0> d           0.347   0.971  -0.136  0.00  0.00    -0.003 C 
ATOM     11  H1  <0> d           1.370   1.346  -0.161  0.00  0.00     0.040 H 
ATOM     12  H2  <0> d          -0.138   1.175  -1.091  0.00  0.00     0.040 H 
ATOM     13  H3  <0> d          -0.202   1.467   0.664  0.00  0.00     0.040 H 
ENDBRANCH   7  10
ENDBRANCH   3   6
ENDBRANCH   1   3
BRANCH   1  14
ATOM     14  O2  <0> d          -2.937  -2.520   1.509  0.00  0.00    -0.364 OA
BRANCH  14  15
ATOM     15  C5  <0> d          -4.187  -3.136   1.824  0.00  0.00     0.007 C 
ATOM     16  H8  <0> d          -4.512  -2.814   2.814  0.00  0.00     0.066 H 
ATOM     17  H9  <0> d          -4.933  -2.844   1.085  0.00  0.00     0.066 H 
ATOM     18  H10 <0> d          -4.071  -4.220   1.815  0.00  0.00     0.066 H 
ENDBRANCH  14  15
ENDBRANCH   1  14
BRANCH   1  19
ATOM     19  O3  <0> d          -2.853  -2.903  -0.791  0.00  0.00    -0.364 OA
BRANCH  19  20
ATOM     20  C6  <0> d          -3.945  -3.777  -1.087  0.00  0.00     0.007 C 
ATOM     21  H11 <0> d          -4.306  -3.578  -2.096  0.00  0.00     0.066 H 
ATOM     22  H12 <0> d          -3.610  -4.812  -1.019  0.00  0.00     0.066 H 
ATOM     23  H13 <0> d          -4.750  -3.607  -0.373  0.00  0.00     0.066 H 
ENDBRANCH  19  20
ENDBRANCH   1  19
TORSDOF 7
