REMARK  1 active torsions:
REMARK  status: ('A' for Active; 'I' for Inactive)
REMARK    1  A    between atoms: C3_8  and  N5_10 
ROOT
ATOM      1  C1  <0> d          -0.018   1.474   0.010  0.00  0.00     0.193 A 
ATOM      2  N1  <0> d          -1.307   1.862   0.029  0.00  0.00    -0.219 N 
ATOM      3  H1  <0> d          -1.632   2.775   0.038  0.00  0.00     0.198 HD
ATOM      4  O1  <0> d          -2.101   0.687   0.033  0.00  0.00    -0.128 OA
ATOM      5  N2  <0> d          -1.232  -0.430   0.016  0.00  0.00    -0.082 NA
ATOM      6  C2  <0> d           0.002  -0.004   0.002  0.00  0.00     0.243 A 
ATOM      7  N3  <0> d           1.319  -0.343  -0.012  0.00  0.00    -0.039 NA
ATOM      8  C3  <0> d           2.033   0.768  -0.013  0.00  0.00     0.702 A 
ATOM      9  N4  <0> d           1.253   1.851   0.000  0.00  0.00    -0.169 N 
ATOM     10  H4  <0> d           1.567   2.768   0.002  0.00  0.00     0.186 HD
ENDROOT
BRANCH   8  11
ATOM     11  N5  <0> d           3.416   0.804  -0.026  0.00  0.00    -0.233 N 
ATOM     12  H2  <0> d           3.923  -0.023  -0.036  0.00  0.00     0.174 HD
ATOM     13  H3  <0> d           3.879   1.656  -0.026  0.00  0.00     0.174 HD
ENDBRANCH   8  11
TORSDOF 1
