REMARK  2 active torsions:
REMARK  status: ('A' for Active; 'I' for Inactive)
REMARK    1  A    between atoms: C1_1  and  C2_2 
REMARK    2  A    between atoms: C7_7  and  N1_12 
ROOT
ATOM      1  C2  <0> d           0.087  -2.777  -0.015  0.00  0.00    -0.061 A 
ATOM      2  C3  <0> d          -1.136  -2.108   0.001  0.00  0.00    -0.076 A 
ATOM      3  C4  <0> d          -1.191  -0.748   0.009  0.00  0.00    -0.072 A 
ATOM      4  C5  <0> d           0.002  -0.004   0.002  0.00  0.00    -0.024 A 
ATOM      5  C6  <0> d          -0.017   1.400   0.010  0.00  0.00    -0.047 A 
ATOM      6  C7  <0> d           1.173   2.095   0.002  0.00  0.00     0.026 A 
ATOM      7  C8  <0> d           2.397   1.415  -0.013  0.00  0.00    -0.057 A 
ATOM      8  C9  <0> d           2.441   0.057  -0.021  0.00  0.00    -0.070 A 
ATOM      9  C10 <0> d           1.246  -0.684  -0.013  0.00  0.00    -0.025 A 
ATOM     10  C11 <0> d           1.261  -2.089  -0.022  0.00  0.00    -0.067 A 
ATOM     11  H4  <0> d          -2.054  -2.678   0.006  0.00  0.00     0.084 H 
ATOM     12  H5  <0> d          -2.145  -0.243   0.021  0.00  0.00     0.084 H 
ATOM     13  H6  <0> d          -0.957   1.931   0.017  0.00  0.00     0.088 H 
ATOM     14  H7  <0> d           3.318   1.978  -0.019  0.00  0.00     0.086 H 
ATOM     15  H8  <0> d           3.393  -0.453  -0.033  0.00  0.00     0.084 H 
ATOM     16  H9  <0> d           2.201  -2.621  -0.033  0.00  0.00     0.085 H 
ENDROOT
BRANCH   1  17
ATOM     17  C1  <0> d           0.109  -4.283  -0.023  0.00  0.00    -0.051 C 
ATOM     18  H1  <0> d           0.123  -4.652   1.003  0.00  0.00     0.033 H 
ATOM     19  H2  <0> d          -0.781  -4.657  -0.531  0.00  0.00     0.033 H 
ATOM     20  H3  <0> d           0.999  -4.631  -0.547  0.00  0.00     0.033 H 
ENDBRANCH   1  17
BRANCH   6  21
ATOM     21  N1  <0> d           1.158   3.491   0.010  0.00  0.00    -0.399 N 
ATOM     22  H10 <0> d           0.312   3.967   0.020  0.00  0.00     0.156 HD
ATOM     23  H11 <0> d           1.992   3.985   0.004  0.00  0.00     0.156 HD
ENDBRANCH   6  21
TORSDOF 2
