REMARK  8 active torsions:
REMARK  status: ('A' for Active; 'I' for Inactive)
REMARK    1  A    between atoms: C1_1  and  C2_2 
REMARK    2  A    between atoms: C2_2  and  C3_3 
REMARK    3  A    between atoms: C3_3  and  C4_4 
REMARK    4  A    between atoms: C3_3  and  C5_5 
REMARK    5  A    between atoms: C3_3  and  O3_10 
REMARK    6  A    between atoms: C5_5  and  O2_7 
REMARK    7  A    between atoms: O2_7  and  C6_8 
REMARK    8  A    between atoms: C6_8  and  C7_9 
ROOT
ATOM      1  C3  <0> d           0.002  -0.004   0.002  0.00  0.00     0.141 C 
ENDROOT
BRANCH   1   2
ATOM      2  C2  <0> d           0.718  -0.497  -1.257  0.00  0.00    -0.031 C 
ATOM      3  H4  <0> d           0.733  -1.587  -1.263  0.00  0.00     0.037 H 
ATOM      4  H5  <0> d           0.191  -0.136  -2.140  0.00  0.00     0.037 H 
BRANCH   2   5
ATOM      5  C1  <0> d           2.154   0.032  -1.268  0.00  0.00    -0.073 C 
ATOM      6  H1  <0> d           2.664  -0.319  -2.164  0.00  0.00     0.027 H 
ATOM      7  H2  <0> d           2.139   1.122  -1.262  0.00  0.00     0.027 H 
ATOM      8  H3  <0> d           2.681  -0.329  -0.385  0.00  0.00     0.027 H 
ENDBRANCH   2   5
ENDBRANCH   1   2
BRANCH   1   9
ATOM      9  C4  <0> d          -0.019   1.526   0.010  0.00  0.00    -0.039 C 
ATOM     10  H6  <0> d           1.004   1.903   0.003  0.00  0.00     0.032 H 
ATOM     11  H7  <0> d          -0.546   1.887  -0.873  0.00  0.00     0.032 H 
ATOM     12  H8  <0> d          -0.529   1.877   0.907  0.00  0.00     0.032 H 
ENDBRANCH   1   9
BRANCH   1  13
ATOM     13  C5  <0> d          -1.412  -0.526   0.013  0.00  0.00     0.293 C 
ATOM     14  O1  <0> d          -1.957  -0.815  -1.026  0.00  0.00    -0.262 OA
BRANCH  13  15
ATOM     15  O2  <0> d          -2.065  -0.669   1.176  0.00  0.00    -0.320 OA
BRANCH  15  16
ATOM     16  C6  <0> d          -3.424  -1.177   1.111  0.00  0.00     0.026 C 
ATOM     17  H9  <0> d          -4.036  -0.502   0.513  0.00  0.00     0.074 H 
ATOM     18  H10 <0> d          -3.421  -2.166   0.653  0.00  0.00     0.074 H 
BRANCH  16  19
ATOM     19  C7  <0> d          -4.002  -1.271   2.524  0.00  0.00    -0.056 C 
ATOM     20  H11 <0> d          -5.022  -1.652   2.475  0.00  0.00     0.030 H 
ATOM     21  H12 <0> d          -3.390  -1.946   3.123  0.00  0.00     0.030 H 
ATOM     22  H13 <0> d          -4.005  -0.282   2.982  0.00  0.00     0.030 H 
ENDBRANCH  16  19
ENDBRANCH  15  16
ENDBRANCH  13  15
ENDBRANCH   1  13
BRANCH   1  23
ATOM     23  O3  <0> d           0.693  -0.477   1.160  0.00  0.00    -0.380 OA
ATOM     24  H14 <0> d           0.745  -1.441   1.220  0.00  0.00     0.211 HD
ENDBRANCH   1  23
TORSDOF 8
