REMARK  2 active torsions:
REMARK  status: ('A' for Active; 'I' for Inactive)
REMARK    1  A    between atoms: C2_2  and  C4_7 
REMARK    2  A    between atoms: C4_7  and  O1_8 
ROOT
ATOM      1  C1  <0> d          -0.125   1.303  -2.596  0.00  0.00    -0.024 A 
ATOM      2  C2  <0> d          -0.753   1.593  -1.232  0.00  0.00     0.003 A 
ATOM      3  H1  <0> d          -1.280   2.539  -1.110  0.00  0.00     0.048 H 
ATOM      4  C3  <0> d          -1.380   0.548  -2.156  0.00  0.00     0.119 A 
ATOM      5 Cl1  <0> d          -1.191  -1.187  -1.702  0.00  0.00    -0.101 Cl
ATOM      6 Cl2  <0> d          -2.935   0.976  -2.962  0.00  0.00    -0.101 Cl
ATOM      7  H2  <0> d          -0.239   2.059  -3.373  0.00  0.00     0.038 H 
ATOM      8  H3  <0> d           0.815   0.752  -2.611  0.00  0.00     0.038 H 
ENDROOT
BRANCH   2   9
ATOM      9  C4  <0> d          -0.013   1.086   0.008  0.00  0.00     0.023 C 
ATOM     10  H4  <0> d           0.002  -0.004   0.002  0.00  0.00     0.074 H 
ATOM     11  H5  <0> d           1.010   1.463   0.000  0.00  0.00     0.074 H 
BRANCH   9  12
ATOM     12  O1  <0> d          -0.682   1.547   1.184  0.00  0.00    -0.400 OA
ATOM     13  H6  <0> d          -0.266   1.262   2.009  0.00  0.00     0.209 HD
ENDBRANCH   9  12
ENDBRANCH   2   9
TORSDOF 2
