REMARK  4 active torsions:
REMARK  status: ('A' for Active; 'I' for Inactive)
REMARK    1  A    between atoms: C1_1  and  O1_2 
REMARK    2  A    between atoms: O1_2  and  C2_3 
REMARK    3  A    between atoms: C2_3  and  C3_5 
REMARK    4  A    between atoms: C3_5  and  C4_6 
ROOT
ATOM      1  C4  <0> d          -1.231   3.129   0.030  0.00  0.00    -0.046 A 
ATOM      2  C5  <0> d          -1.223   1.742   0.017  0.00  0.00    -0.059 A 
ATOM      3  C6  <0> d          -0.013   1.076   0.008  0.00  0.00     0.002 A 
ATOM      4  N1  <0> d           1.125   1.743   0.001  0.00  0.00    -0.273 NA
ATOM      5  C7  <0> d           1.155   3.061   0.007  0.00  0.00     0.002 A 
ATOM      6  C8  <0> d          -0.015   3.796   0.022  0.00  0.00    -0.059 A 
ATOM      7  H6  <0> d          -2.151   1.190   0.018  0.00  0.00     0.086 H 
ATOM      8  H7  <0> d           0.002  -0.004   0.002  0.00  0.00     0.114 H 
ATOM      9  H8  <0> d           2.107   3.573   0.001  0.00  0.00     0.114 H 
ATOM     10  H9  <0> d           0.016   4.875   0.027  0.00  0.00     0.086 H 
ENDROOT
BRANCH   1  11
ATOM     11  C3  <0> d          -2.530   3.893   0.046  0.00  0.00     0.040 C 
ATOM     12  H4  <0> d          -3.289   3.308   0.564  0.00  0.00     0.055 H 
ATOM     13  H5  <0> d          -2.387   4.842   0.563  0.00  0.00     0.055 H 
BRANCH  11  14
ATOM     14  C2  <0> d          -2.976   4.154  -1.370  0.00  0.00     0.262 C 
ATOM     15  O2  <0> d          -2.308   3.761  -2.296  0.00  0.00    -0.265 OA
BRANCH  14  16
ATOM     16  O1  <0> d          -4.115   4.825  -1.601  0.00  0.00    -0.326 OA
BRANCH  16  17
ATOM     17  C1  <0> d          -4.483   5.040  -2.990  0.00  0.00     0.013 C 
ATOM     18  H1  <0> d          -3.700   5.612  -3.488  0.00  0.00     0.067 H 
ATOM     19  H2  <0> d          -4.603   4.077  -3.487  0.00  0.00     0.067 H 
ATOM     20  H3  <0> d          -5.422   5.592  -3.035  0.00  0.00     0.067 H 
ENDBRANCH  16  17
ENDBRANCH  14  16
ENDBRANCH  11  14
ENDBRANCH   1  11
TORSDOF 4
