REMARK  1 active torsions:
REMARK  status: ('A' for Active; 'I' for Inactive)
REMARK    1  A    between atoms: C1_1  and  N1_2 
ROOT
ATOM      1  N1  <0> d           0.002  -0.004   0.002  0.00  0.00    -0.339 N 
ATOM      2  C2  <0> d          -1.264  -0.738   0.004  0.00  0.00     0.000 C 
ATOM      3  C3  <0> d          -1.068  -2.081  -0.707  0.00  0.00    -0.035 C 
ATOM      4  C4  <0> d           0.082  -2.831  -0.026  0.00  0.00    -0.002 C 
ATOM      5  N2  <0> d           1.275  -1.983  -0.026  0.00  0.00    -0.343 N 
ATOM      6  C5  <0> d           1.180  -0.645  -0.013  0.00  0.00     0.317 C 
ATOM      7  O1  <0> d           2.203   0.013  -0.008  0.00  0.00    -0.247 OA
ATOM      8  H4  <0> d          -1.582  -0.914   1.032  0.00  0.00     0.064 H 
ATOM      9  H5  <0> d          -2.023  -0.157  -0.519  0.00  0.00     0.064 H 
ATOM     10  H6  <0> d          -1.982  -2.671  -0.636  0.00  0.00     0.037 H 
ATOM     11  H7  <0> d          -0.822  -1.908  -1.755  0.00  0.00     0.037 H 
ATOM     12  H8  <0> d          -0.196  -3.068   1.001  0.00  0.00     0.064 H 
ATOM     13  H9  <0> d           0.289  -3.752  -0.570  0.00  0.00     0.064 H 
ATOM     14  H10 <0> d           2.152  -2.397  -0.041  0.00  0.00     0.164 HD
ENDROOT
BRANCH   1  15
ATOM     15  C1  <0> d          -0.018   1.461   0.010  0.00  0.00    -0.015 C 
ATOM     16  H1  <0> d           1.005   1.838   0.002  0.00  0.00     0.056 H 
ATOM     17  H2  <0> d          -0.545   1.822  -0.873  0.00  0.00     0.056 H 
ATOM     18  H3  <0> d          -0.528   1.812   0.907  0.00  0.00     0.056 H 
ENDBRANCH   1  15
TORSDOF 1
