REMARK  1 active torsions:
REMARK  status: ('A' for Active; 'I' for Inactive)
REMARK    1  A    between atoms: C6_11  and  N4_13 
ROOT
ATOM      1  C1  <0> d          -0.018   1.458   0.010  0.00  0.00    -0.049 A 
ATOM      2  C2  <0> d           1.264   1.861  -0.000  0.00  0.00    -0.020 A 
ATOM      3  N1  <0> d           2.092   0.767  -0.014  0.00  0.00    -0.349 N 
ATOM      4  H1  <0> d           3.061   0.804  -0.022  0.00  0.00     0.166 HD
ATOM      5  C3  <0> d           1.353  -0.380  -0.013  0.00  0.00     0.162 A 
ATOM      6  C4  <0> d           0.002  -0.004   0.002  0.00  0.00     0.080 A 
ATOM      7  C5  <0> d          -0.990  -1.009   0.005  0.00  0.00     0.273 A 
ATOM      8  O1  <0> d          -2.174  -0.720   0.018  0.00  0.00    -0.267 OA
ATOM      9  N2  <0> d          -0.591  -2.301  -0.006  0.00  0.00    -0.154 N 
ATOM     10  H2  <0> d          -1.252  -3.011  -0.004  0.00  0.00     0.187 HD
ATOM     11  C6  <0> d           0.737  -2.609  -0.021  0.00  0.00     0.702 A 
ATOM     12  N3  <0> d           1.669  -1.683  -0.024  0.00  0.00    -0.046 NA
ATOM     13  H3  <0> d          -0.893   2.091   0.026  0.00  0.00     0.087 H 
ATOM     14  H4  <0> d           1.592   2.890   0.002  0.00  0.00     0.111 H 
ENDROOT
BRANCH  11  15
ATOM     15  N4  <0> d           1.113  -3.929  -0.032  0.00  0.00    -0.233 N 
ATOM     16  H5  <0> d           0.438  -4.625  -0.029  0.00  0.00     0.174 HD
ATOM     17  H6  <0> d           2.054  -4.165  -0.043  0.00  0.00     0.174 HD
ENDBRANCH  11  15
TORSDOF 1
