REMARK  3 active torsions:
REMARK  status: ('A' for Active; 'I' for Inactive)
REMARK    1  A    between atoms: C1_1  and  O1_2 
REMARK    2  A    between atoms: O1_2  and  C2_3 
REMARK    3  A    between atoms: C2_3  and  C3_5 
ROOT
ATOM      1  C3  <0> d           0.657  -2.104  -1.120  0.00  0.00     0.231 C 
ATOM      2  H1  <0> d          -0.349  -2.521  -1.117  0.00  0.00     0.111 H 
ATOM      3  C4  <0> d           1.456  -2.656   0.038  0.00  0.00    -0.064 C 
ATOM      4  C5  <0> d           2.267  -3.587  -0.396  0.00  0.00    -0.077 C 
ATOM      5  C6  <0> d           2.093  -3.751  -1.888  0.00  0.00     0.128 C 
ATOM      6  N1  <0> d           1.386  -2.527  -2.339  0.00  0.00     0.104 N 
ATOM      7  H5  <0> d           1.370  -2.333   1.065  0.00  0.00     0.080 H 
ATOM      8  H6  <0> d           2.955  -4.151   0.217  0.00  0.00     0.079 H 
ATOM      9  H7  <0> d           3.065  -3.828  -2.376  0.00  0.00     0.085 H 
ATOM     10  H8  <0> d           1.491  -4.634  -2.103  0.00  0.00     0.085 H 
ATOM     11  H9  <0> d           0.745  -2.734  -3.090  0.00  0.00     0.317 HD
ENDROOT
BRANCH   1  12
ATOM     12  C2  <0> d           0.598  -0.600  -1.043  0.00  0.00     0.295 C 
ATOM     13  O2  <0> d           1.088   0.070  -1.921  0.00  0.00    -0.262 OA
BRANCH  12  14
ATOM     14  O1  <0> d           0.002  -0.004   0.002  0.00  0.00    -0.325 OA
BRANCH  14  15
ATOM     15  C1  <0> d          -0.017   1.425   0.010  0.00  0.00     0.013 C 
ATOM     16  H2  <0> d           1.005   1.802   0.002  0.00  0.00     0.067 H 
ATOM     17  H3  <0> d          -0.544   1.786  -0.873  0.00  0.00     0.067 H 
ATOM     18  H4  <0> d          -0.527   1.776   0.907  0.00  0.00     0.067 H 
ENDBRANCH  14  15
ENDBRANCH  12  14
ENDBRANCH   1  12
TORSDOF 3
