REMARK  4 active torsions:
REMARK  status: ('A' for Active; 'I' for Inactive)
REMARK    1  A    between atoms: C1_1  and  N1_2 
REMARK    2  A    between atoms: N1_2  and  C2_3 
REMARK    3  A    between atoms: N1_2  and  C3_4 
REMARK    4  A    between atoms: C4_5  and  C5_6 
ROOT
ATOM      1  C5  <0> d          -3.585  -0.790   0.032  0.00  0.00    -0.088 C 
ATOM      2  C6  <0> d          -4.593  -1.390   0.038  0.00  0.00    -0.150 C 
ATOM      3  H9  <0> d          -5.496  -1.928   0.044  0.00  0.00     0.166 H 
ENDROOT
BRANCH   1   4
ATOM      4  C4  <0> d          -2.355  -0.057   0.024  0.00  0.00    -0.019 C 
ATOM      5  C3  <0> d          -1.185  -0.711   0.010  0.00  0.00    -0.018 C 
ATOM      6  H7  <0> d          -1.170  -1.791   0.004  0.00  0.00     0.111 H 
ATOM      7  H8  <0> d          -2.369   1.023   0.030  0.00  0.00     0.099 H 
BRANCH   5   8
ATOM      8  N1  <0> d           0.002  -0.004   0.002  0.00  0.00    -0.398 N 
BRANCH   8   9
ATOM      9  C1  <0> d          -0.018   1.461   0.010  0.00  0.00    -0.020 C 
ATOM     10  H1  <0> d           1.005   1.838   0.002  0.00  0.00     0.056 H 
ATOM     11  H2  <0> d          -0.545   1.822  -0.873  0.00  0.00     0.056 H 
ATOM     12  H3  <0> d          -0.528   1.812   0.907  0.00  0.00     0.056 H 
ENDBRANCH   8   9
BRANCH   8  13
ATOM     13  C2  <0> d           1.281  -0.719  -0.014  0.00  0.00    -0.020 C 
ATOM     14  H4  <0> d           1.607  -0.902   1.010  0.00  0.00     0.056 H 
ATOM     15  H5  <0> d           1.158  -1.671  -0.532  0.00  0.00     0.056 H 
ATOM     16  H6  <0> d           2.027  -0.117  -0.532  0.00  0.00     0.056 H 
ENDBRANCH   8  13
ENDBRANCH   5   8
ENDBRANCH   1   4
TORSDOF 4
