REMARK  2 active torsions:
REMARK  status: ('A' for Active; 'I' for Inactive)
REMARK    1  A    between atoms: C1_1  and  C2_2 
REMARK    2  A    between atoms: C4_4  and  O1_12 
ROOT
ATOM      1  C2  <0> d          -0.990  -0.987   0.007  0.00  0.00    -0.047 A 
ATOM      2  C3  <0> d          -0.639  -2.307  -0.003  0.00  0.00    -0.044 A 
ATOM      3  C4  <0> d           0.702  -2.681  -0.018  0.00  0.00     0.068 A 
ATOM      4  C5  <0> d           1.699  -1.723  -0.023  0.00  0.00    -0.025 A 
ATOM      5  C6  <0> d           1.359  -0.374  -0.013  0.00  0.00     0.045 A 
ATOM      6  C7  <0> d           0.002  -0.004   0.002  0.00  0.00    -0.002 A 
ATOM      7  C8  <0> d          -0.018   1.461   0.010  0.00  0.00    -0.056 A 
ATOM      8  C9  <0> d           1.260   1.871   0.000  0.00  0.00    -0.022 A 
ATOM      9  N1  <0> d           2.098   0.788  -0.014  0.00  0.00    -0.365 N 
ATOM     10  H1  <0> d           3.067   0.833  -0.023  0.00  0.00     0.165 HD
ATOM     11  H5  <0> d          -1.407  -3.066   0.001  0.00  0.00     0.088 H 
ATOM     12  H6  <0> d           2.737  -2.021  -0.034  0.00  0.00     0.091 H 
ATOM     13  H7  <0> d          -0.895   2.092   0.018  0.00  0.00     0.087 H 
ATOM     14  H8  <0> d           1.580   2.903   0.002  0.00  0.00     0.111 H 
ENDROOT
BRANCH   1  15
ATOM     15  C1  <0> d          -2.444  -0.591   0.023  0.00  0.00    -0.050 C 
ATOM     16  H2  <0> d          -2.805  -0.491  -1.000  0.00  0.00     0.033 H 
ATOM     17  H3  <0> d          -3.023  -1.358   0.539  0.00  0.00     0.033 H 
ATOM     18  H4  <0> d          -2.556   0.360   0.543  0.00  0.00     0.033 H 
ENDBRANCH   1  15
BRANCH   3  19
ATOM     19  O1  <0> d           1.034  -3.999  -0.028  0.00  0.00    -0.361 OA
ATOM     20  H9  <0> d           1.138  -4.385   0.852  0.00  0.00     0.217 HD
ENDBRANCH   3  19
TORSDOF 2
