REMARK  0 active torsions:
REMARK  status: ('A' for Active; 'I' for Inactive)
ROOT
ATOM      1  C1  <0> d          -0.017   1.370   0.010  0.00  0.00    -0.081 A 
ATOM      2  C2  <0> d           1.157   2.105   0.002  0.00  0.00    -0.082 A 
ATOM      3  C3  <0> d           2.369   1.437  -0.013  0.00  0.00    -0.064 A 
ATOM      4  C4  <0> d           2.388   0.064  -0.020  0.00  0.00     0.036 A 
ATOM      5  C5  <0> d           1.217  -0.709  -0.013  0.00  0.00     0.052 A 
ATOM      6  C6  <0> d           0.002  -0.004   0.002  0.00  0.00    -0.056 A 
ATOM      7  N1  <0> d           1.400  -2.081  -0.022  0.00  0.00    -0.316 N 
ATOM      8  H1  <0> d           0.628  -2.668  -0.018  0.00  0.00     0.170 HD
ATOM      9  C7  <0> d           2.640  -2.610  -0.037  0.00  0.00     0.289 A 
ATOM     10  O1  <0> d           2.968  -3.782  -0.046  0.00  0.00    -0.260 OA
ATOM     11  S1  <0> d           3.678  -1.157  -0.039  0.00  0.00    -0.027 SA
ATOM     12  H2  <0> d          -0.965   1.887   0.026  0.00  0.00     0.083 H 
ATOM     13  H3  <0> d           1.127   3.184   0.008  0.00  0.00     0.083 H 
ATOM     14  H4  <0> d           3.296   1.993  -0.019  0.00  0.00     0.085 H 
ATOM     15  H5  <0> d          -0.930  -0.550   0.008  0.00  0.00     0.087 H 
ENDROOT
TORSDOF 0
