REMARK  2 active torsions:
REMARK  status: ('A' for Active; 'I' for Inactive)
REMARK    1  A    between atoms: C5_5  and  C8_8 
REMARK    2  A    between atoms: C8_8  and  C9_9 
REMARK       I    between atoms: C9_9  and  N1_11 
ROOT
ATOM      1  C1  <0> d           0.282   6.496  -1.525  0.00  0.00    -0.065 C 
ATOM      2  C2  <0> d           1.781   6.398  -1.180  0.00  0.00    -0.065 C 
ATOM      3  C3  <0> d           2.019   5.871   0.209  0.00  0.00    -0.065 C 
ATOM      4  C4  <0> d           2.232   4.346   0.124  0.00  0.00    -0.061 C 
ATOM      5  C5  <0> d           0.979   3.615   0.012  0.00  0.00    -0.046 C 
ATOM      6  C6  <0> d           0.199   3.978  -1.268  0.00  0.00    -0.061 C 
ATOM      7  C7  <0> d          -0.524   5.277  -1.036  0.00  0.00    -0.065 C 
ATOM      8  H1  <0> d          -0.127   7.395  -1.064  0.00  0.00     0.033 H 
ATOM      9  H2  <0> d           0.175   6.577  -2.606  0.00  0.00     0.033 H 
ATOM     10  H3  <0> d           2.227   7.389  -1.262  0.00  0.00     0.033 H 
ATOM     11  H4  <0> d           2.264   5.734  -1.897  0.00  0.00     0.033 H 
ATOM     12  H5  <0> d           1.153   6.085   0.836  0.00  0.00     0.033 H 
ATOM     13  H6  <0> d           2.904   6.341   0.636  0.00  0.00     0.033 H 
ATOM     14  H7  <0> d           2.756   4.012   1.020  0.00  0.00     0.033 H 
ATOM     15  H8  <0> d           2.849   4.124  -0.747  0.00  0.00     0.033 H 
ATOM     16  H9  <0> d           0.358   3.844   0.878  0.00  0.00     0.040 H 
ATOM     17  H10 <0> d           0.894   4.089  -2.101  0.00  0.00     0.033 H 
ATOM     18  H11 <0> d          -0.522   3.192  -1.493  0.00  0.00     0.033 H 
ATOM     19  H12 <0> d          -0.717   5.387   0.031  0.00  0.00     0.033 H 
ATOM     20  H13 <0> d          -1.477   5.250  -1.565  0.00  0.00     0.033 H 
ENDROOT
BRANCH   5  21
ATOM     21  C8  <0> d           1.278   2.115   0.001  0.00  0.00     0.012 C 
ATOM     22  H14 <0> d           1.862   1.854   0.884  0.00  0.00     0.047 H 
ATOM     23  H15 <0> d           1.845   1.864  -0.896  0.00  0.00     0.047 H 
BRANCH  21  24
ATOM     24  C9  <0> d          -0.016   1.344   0.009  0.00  0.00     0.215 C 
ATOM     25  O1  <0> d          -1.075   1.936   0.018  0.00  0.00    -0.274 OA
ATOM     26  N1  <0> d           0.002  -0.004   0.002  0.00  0.00    -0.370 N 
ATOM     27  H16 <0> d           0.849  -0.478  -0.009  0.00  0.00     0.159 HD
ATOM     28  H17 <0> d          -0.831  -0.500   0.007  0.00  0.00     0.159 HD
ENDBRANCH  21  24
ENDBRANCH   5  21
TORSDOF 2
