REMARK  8 active torsions:
REMARK  status: ('A' for Active; 'I' for Inactive)
REMARK    1  A    between atoms: C1_1  and  C2_2 
REMARK    2  A    between atoms: C2_2  and  C3_3 
REMARK    3  A    between atoms: C3_3  and  C4_4 
REMARK    4  A    between atoms: C4_4  and  C5_5 
REMARK    5  A    between atoms: C5_5  and  C6_7 
REMARK    6  A    between atoms: C5_5  and  O1_10 
REMARK    7  A    between atoms: C6_7  and  C7_8 
REMARK    8  A    between atoms: C7_8  and  C8_9 
ROOT
ATOM      1  C5  <0> d           0.739  -2.027  -1.265  0.00  0.00     0.035 C 
ATOM      2  H1  <0> d           1.187  -2.390  -0.340  0.00  0.00     0.082 H 
ENDROOT
BRANCH   1   3
ATOM      3  C4  <0> d           0.718  -0.497  -1.257  0.00  0.00    -0.041 C 
ATOM      4  H9  <0> d           0.191  -0.136  -2.140  0.00  0.00     0.036 H 
ATOM      5  H10 <0> d           1.741  -0.120  -1.264  0.00  0.00     0.036 H 
BRANCH   3   6
ATOM      6  C3  <0> d           0.002  -0.004   0.002  0.00  0.00    -0.063 C 
ATOM      7  H7  <0> d           0.529  -0.365   0.885  0.00  0.00     0.033 H 
ATOM      8  H8  <0> d          -1.020  -0.381   0.010  0.00  0.00     0.033 H 
BRANCH   6   9
ATOM      9  C2  <0> d          -0.019   1.526   0.010  0.00  0.00    -0.068 C 
ATOM     10  H5  <0> d           1.004   1.903   0.003  0.00  0.00     0.032 H 
ATOM     11  H6  <0> d          -0.546   1.887  -0.873  0.00  0.00     0.032 H 
BRANCH   9  12
ATOM     12  C1  <0> d          -0.735   2.019   1.269  0.00  0.00    -0.077 C 
ATOM     13  H2  <0> d          -0.208   1.658   2.152  0.00  0.00     0.027 H 
ATOM     14  H3  <0> d          -0.750   3.109   1.275  0.00  0.00     0.027 H 
ATOM     15  H4  <0> d          -1.757   1.642   1.277  0.00  0.00     0.027 H 
ENDBRANCH   9  12
ENDBRANCH   6   9
ENDBRANCH   3   6
ENDBRANCH   1   3
BRANCH   1  16
ATOM     16  C6  <0> d           1.562  -2.520  -2.457  0.00  0.00    -0.041 C 
ATOM     17  H11 <0> d           1.066  -2.233  -3.385  0.00  0.00     0.036 H 
ATOM     18  H12 <0> d           2.555  -2.072  -2.423  0.00  0.00     0.036 H 
BRANCH  16  19
ATOM     19  C7  <0> d           1.687  -4.043  -2.396  0.00  0.00    -0.066 C 
ATOM     20  H13 <0> d           2.183  -4.330  -1.469  0.00  0.00     0.032 H 
ATOM     21  H14 <0> d           0.694  -4.491  -2.430  0.00  0.00     0.032 H 
BRANCH  19  22
ATOM     22  C8  <0> d           2.510  -4.536  -3.588  0.00  0.00    -0.076 C 
ATOM     23  H15 <0> d           2.599  -5.621  -3.545  0.00  0.00     0.027 H 
ATOM     24  H16 <0> d           2.014  -4.249  -4.516  0.00  0.00     0.027 H 
ATOM     25  H17 <0> d           3.503  -4.088  -3.554  0.00  0.00     0.027 H 
ENDBRANCH  19  22
ENDBRANCH  16  19
ENDBRANCH   1  16
BRANCH   1  26
ATOM     26  O1  <0> d          -0.598  -2.521  -1.373  0.00  0.00    -0.396 OA
ATOM     27  H18 <0> d          -1.059  -2.238  -2.174  0.00  0.00     0.210 HD
ENDBRANCH   1  26
TORSDOF 8
