REMARK  5 active torsions:
REMARK  status: ('A' for Active; 'I' for Inactive)
REMARK    1  A    between atoms: C1_1  and  C2_2 
REMARK    2  A    between atoms: C2_2  and  O1_3 
REMARK    3  A    between atoms: O1_3  and  C3_4 
REMARK    4  A    between atoms: C3_4  and  C4_5 
REMARK    5  A    between atoms: C4_5  and  C5_6 
ROOT
ATOM      1  C4  <0> d          -0.217   5.298   0.032  0.00  0.00    -0.005 C 
ATOM      2  H8  <0> d          -0.662   5.631   0.970  0.00  0.00     0.045 H 
ATOM      3  H9  <0> d           0.784   5.719  -0.065  0.00  0.00     0.045 H 
ENDROOT
BRANCH   1   4
ATOM      4  C3  <0> d          -1.083   5.766  -1.139  0.00  0.00     0.024 C 
ATOM      5  H6  <0> d          -0.638   5.433  -2.076  0.00  0.00     0.074 H 
ATOM      6  H7  <0> d          -2.084   5.345  -1.042  0.00  0.00     0.074 H 
BRANCH   4   7
ATOM      7  O1  <0> d          -1.163   7.193  -1.131  0.00  0.00    -0.391 OA
BRANCH   7   8
ATOM      8  C2  <0> d          -1.954   7.736  -2.190  0.00  0.00     0.016 C 
ATOM      9  H4  <0> d          -1.527   7.444  -3.149  0.00  0.00     0.073 H 
ATOM     10  H5  <0> d          -2.973   7.356  -2.114  0.00  0.00     0.073 H 
BRANCH   8  11
ATOM     11  C1  <0> d          -1.970   9.262  -2.083  0.00  0.00    -0.056 C 
ATOM     12  H1  <0> d          -2.573   9.677  -2.891  0.00  0.00     0.030 H 
ATOM     13  H2  <0> d          -2.397   9.555  -1.123  0.00  0.00     0.030 H 
ATOM     14  H3  <0> d          -0.951   9.643  -2.158  0.00  0.00     0.030 H 
ENDBRANCH   8  11
ENDBRANCH   7   8
ENDBRANCH   4   7
ENDBRANCH   1   4
BRANCH   1  15
ATOM     15  C5  <0> d          -0.132   3.793   0.024  0.00  0.00     0.036 A 
ATOM     16  N1  <0> d          -1.239   3.078   0.030  0.00  0.00    -0.266 NA
ATOM     17  C9  <0> d          -1.214   1.759   0.017  0.00  0.00     0.002 A 
ATOM     18  C8  <0> d          -0.013   1.076   0.008  0.00  0.00    -0.066 A 
ATOM     19  H13 <0> d          -2.142   1.207   0.018  0.00  0.00     0.114 H 
ATOM     20  C7  <0> d           1.174   1.794   0.001  0.00  0.00    -0.080 A 
ATOM     21  H12 <0> d           0.002  -0.004   0.002  0.00  0.00     0.085 H 
ATOM     22  C6  <0> d           1.107   3.179   0.009  0.00  0.00    -0.059 A 
ATOM     23  H11 <0> d           2.127   1.287  -0.011  0.00  0.00     0.083 H 
ATOM     24  H10 <0> d           2.010   3.770   0.004  0.00  0.00     0.086 H 
ENDBRANCH   1  15
TORSDOF 5
