REMARK  0 active torsions:
REMARK  status: ('A' for Active; 'I' for Inactive)
ROOT
ATOM      1  C1  <0> d           0.501  -2.735  -0.018  0.00  0.00    -0.082 A 
ATOM      2  C2  <0> d          -0.804  -2.274  -0.003  0.00  0.00    -0.082 A 
ATOM      3  C3  <0> d          -1.061  -0.921   0.008  0.00  0.00    -0.069 A 
ATOM      4  C4  <0> d           0.002  -0.004   0.002  0.00  0.00     0.017 A 
ATOM      5  C5  <0> d           1.313  -0.478  -0.013  0.00  0.00    -0.043 A 
ATOM      6  C6  <0> d           1.554  -1.839  -0.023  0.00  0.00    -0.076 A 
ATOM      7  C7  <0> d           2.273   0.688  -0.016  0.00  0.00    -0.018 A 
ATOM      8  C8  <0> d           1.410   1.957  -0.001  0.00  0.00     0.096 A 
ATOM      9  H1  <0> d           1.627   2.624   0.846  0.00  0.00     0.075 H 
ATOM     10  C9  <0> d          -0.018   1.468   0.010  0.00  0.00     0.177 A 
ATOM     11  O1  <0> d          -1.009   2.167   0.019  0.00  0.00    -0.291 OA
ATOM     12  C10 <0> d           1.665   2.761  -1.207  0.00  0.00     0.072 C 
ATOM     13  N1  <0> d           1.861   3.381  -2.138  0.00  0.00    -0.196 NA
ATOM     14  H2  <0> d           0.697  -3.797  -0.026  0.00  0.00     0.083 H 
ATOM     15  H3  <0> d          -1.624  -2.978   0.002  0.00  0.00     0.083 H 
ATOM     16  H4  <0> d          -2.080  -0.565   0.020  0.00  0.00     0.085 H 
ATOM     17  H5  <0> d           2.571  -2.205  -0.034  0.00  0.00     0.084 H 
ATOM     18  H6  <0> d           2.915   0.636   0.876  0.00  0.00     0.042 H 
ATOM     19  H7  <0> d           2.898   0.646  -0.920  0.00  0.00     0.042 H 
ENDROOT
TORSDOF 0
