REMARK  2 active torsions:
REMARK  status: ('A' for Active; 'I' for Inactive)
REMARK    1  A    between atoms: C1_1  and  N1_2 
REMARK    2  A    between atoms: C5_6  and  O2_9 
ROOT
ATOM      1  N1  <0> d           1.140   2.095   0.002  0.00  0.00    -0.327 N 
ATOM      2  C2  <0> d           2.335   1.446  -0.012  0.00  0.00    -0.018 A 
ATOM      3  C3  <0> d           2.389   0.095  -0.020  0.00  0.00    -0.065 A 
ATOM      4  C4  <0> d           1.203  -0.655  -0.013  0.00  0.00    -0.044 A 
ATOM      5  C5  <0> d           0.002  -0.004   0.002  0.00  0.00     0.134 A 
ATOM      6  C6  <0> d          -0.017   1.406   0.010  0.00  0.00     0.280 A 
ATOM      7  O1  <0> d          -1.082   2.003   0.018  0.00  0.00    -0.265 OA
ATOM      8  H4  <0> d           3.252   2.016  -0.017  0.00  0.00     0.111 H 
ATOM      9  H5  <0> d           3.345  -0.407  -0.032  0.00  0.00     0.085 H 
ATOM     10  H6  <0> d           1.240  -1.734  -0.019  0.00  0.00     0.088 H 
ENDROOT
BRANCH   1  11
ATOM     11  C1  <0> d           1.112   3.559   0.011  0.00  0.00    -0.011 C 
ATOM     12  H1  <0> d           1.115   3.917   1.040  0.00  0.00     0.057 H 
ATOM     13  H2  <0> d           1.990   3.943  -0.510  0.00  0.00     0.057 H 
ATOM     14  H3  <0> d           0.210   3.908  -0.493  0.00  0.00     0.057 H 
ENDBRANCH   1  11
BRANCH   5  15
ATOM     15  O2  <0> d          -1.162  -0.708   0.010  0.00  0.00    -0.356 OA
ATOM     16  H7  <0> d          -1.041  -1.667   0.004  0.00  0.00     0.218 HD
ENDBRANCH   5  15
TORSDOF 2
