REMARK  3 active torsions:
REMARK  status: ('A' for Active; 'I' for Inactive)
REMARK    1  A    between atoms: C1_1  and  C2_2 
REMARK    2  A    between atoms: C5_5  and  C8_9 
REMARK    3  A    between atoms: C8_9  and  C9_11 
ROOT
ATOM      1  C2  <0> d          -1.030   5.515   2.818  0.00  0.00    -0.087 C 
ATOM      2  C3  <0> d           0.144   4.990   2.669  0.00  0.00    -0.100 C 
ATOM      3  C4  <0> d           0.384   3.592   2.179  0.00  0.00    -0.040 C 
ATOM      4  C5  <0> d          -0.874   3.050   1.496  0.00  0.00     0.007 C 
ATOM      5  H1  <0> d          -1.010   3.522   0.625  0.00  0.00     0.052 H 
ATOM      6  C6  <0> d          -2.072   3.295   2.421  0.00  0.00    -0.052 C 
ATOM      7  C7  <0> d          -2.314   4.803   2.512  0.00  0.00    -0.044 C 
ATOM      8  H5  <0> d           1.004   5.596   2.913  0.00  0.00     0.077 H 
ATOM      9  H6  <0> d           0.640   2.953   3.023  0.00  0.00     0.040 H 
ATOM     10  H7  <0> d           1.208   3.598   1.466  0.00  0.00     0.040 H 
ATOM     11  H8  <0> d          -2.956   2.805   2.013  0.00  0.00     0.034 H 
ATOM     12  H9  <0> d          -1.856   2.898   3.413  0.00  0.00     0.034 H 
ATOM     13  H10 <0> d          -3.037   5.006   3.302  0.00  0.00     0.039 H 
ATOM     14  H11 <0> d          -2.710   5.162   1.562  0.00  0.00     0.039 H 
ENDROOT
BRANCH   4  15
ATOM     15  C8  <0> d          -0.718   1.572   1.248  0.00  0.00     0.127 C 
ATOM     16  O1  <0> d          -1.159   0.777   2.043  0.00  0.00    -0.298 OA
BRANCH  15  17
ATOM     17  C9  <0> d          -0.013   1.086   0.008  0.00  0.00    -0.021 C 
ATOM     18  H12 <0> d           0.001   0.086   0.003  0.00  0.00     0.037 H 
ATOM     19  H13 <0> d           1.010   1.463   0.000  0.00  0.00     0.037 H 
ATOM     20  H14 <0> d          -0.540   1.447  -0.875  0.00  0.00     0.037 H 
ENDBRANCH  15  17
ENDBRANCH   4  15
BRANCH   1  21
ATOM     21  C1  <0> d          -1.111   6.930   3.330  0.00  0.00    -0.055 C 
ATOM     22  H2  <0> d          -0.105   7.311   3.506  0.00  0.00     0.033 H 
ATOM     23  H3  <0> d          -1.613   7.556   2.592  0.00  0.00     0.033 H 
ATOM     24  H4  <0> d          -1.674   6.947   4.263  0.00  0.00     0.033 H 
ENDBRANCH   1  21
TORSDOF 3
