REMARK  2 active torsions:
REMARK  status: ('A' for Active; 'I' for Inactive)
REMARK    1  A    between atoms: C1_1  and  C2_2 
REMARK    2  A    between atoms: C10_11  and  O1_12 
ROOT
ATOM      1  C2  <0> d           3.631  -0.656  -0.038  0.00  0.00    -0.048 A 
ATOM      2  C3  <0> d           4.772   0.095  -0.045  0.00  0.00    -0.059 A 
ATOM      3  C4  <0> d           4.690   1.485  -0.036  0.00  0.00     0.004 A 
ATOM      4  N1  <0> d           3.536   2.107  -0.021  0.00  0.00    -0.257 NA
ATOM      5  C5  <0> d           2.383   1.433  -0.013  0.00  0.00     0.100 A 
ATOM      6  C6  <0> d           2.394   0.016  -0.021  0.00  0.00     0.001 A 
ATOM      7  C7  <0> d           1.179  -0.688  -0.013  0.00  0.00    -0.070 A 
ATOM      8  C8  <0> d           0.002  -0.004   0.002  0.00  0.00    -0.079 A 
ATOM      9  C9  <0> d          -0.017   1.388   0.010  0.00  0.00    -0.049 A 
ATOM     10  C10 <0> d           1.144   2.108   0.003  0.00  0.00     0.095 A 
ATOM     11  H4  <0> d           5.737  -0.389  -0.058  0.00  0.00     0.086 H 
ATOM     12  H5  <0> d           5.600   2.066  -0.042  0.00  0.00     0.114 H 
ATOM     13  H6  <0> d           1.179  -1.768  -0.019  0.00  0.00     0.084 H 
ATOM     14  H7  <0> d          -0.930  -0.549   0.008  0.00  0.00     0.083 H 
ATOM     15  H8  <0> d          -0.964   1.907   0.017  0.00  0.00     0.087 H 
ENDROOT
BRANCH   1  16
ATOM     16  C1  <0> d           3.694  -2.161  -0.048  0.00  0.00    -0.050 C 
ATOM     17  H1  <0> d           3.699  -2.518  -1.077  0.00  0.00     0.033 H 
ATOM     18  H2  <0> d           4.603  -2.490   0.455  0.00  0.00     0.033 H 
ATOM     19  H3  <0> d           2.825  -2.565   0.473  0.00  0.00     0.033 H 
ENDBRANCH   1  16
BRANCH  10  20
ATOM     20  O1  <0> d           1.106   3.466   0.010  0.00  0.00    -0.358 OA
ATOM     21  H9  <0> d           1.103   3.854   0.895  0.00  0.00     0.217 HD
ENDBRANCH  10  20
TORSDOF 2
