REMARK  3 active torsions:
REMARK  status: ('A' for Active; 'I' for Inactive)
REMARK    1  A    between atoms: C1_1  and  C2_2 
REMARK       I    between atoms: C2_2  and  N1_4 
REMARK    2  A    between atoms: N1_4  and  C3_5 
REMARK    3  A    between atoms: C4_7  and  N5_11 
ROOT
ATOM      1  C3  <0> d          -2.392   1.151   0.020  0.00  0.00     0.762 A 
ATOM      2  N2  <0> d          -3.617   1.689   0.028  0.00  0.00     0.131 NA
ATOM      3  C4  <0> d          -4.520   0.732   0.027  0.00  0.00     0.730 A 
ATOM      4  N3  <0> d          -3.873  -0.452   0.017  0.00  0.00    -0.091 N 
ATOM      5  H1  <0> d          -4.276  -1.334   0.014  0.00  0.00     0.208 HD
ATOM      6  N4  <0> d          -2.500  -0.155   0.007  0.00  0.00     0.034 NA
ENDROOT
BRANCH   1   7
ATOM      7  N1  <0> d          -1.191   1.867   0.018  0.00  0.00    -0.154 N 
ATOM      8  C2  <0> d          -0.014   1.209   0.009  0.00  0.00     0.232 C 
ATOM      9  O1  <0> d           0.002  -0.004   0.002  0.00  0.00    -0.273 OA
ATOM     10  H5  <0> d          -1.204   2.837   0.023  0.00  0.00     0.187 HD
BRANCH   8  11
ATOM     11  C1  <0> d           1.280   1.980   0.001  0.00  0.00    -0.002 C 
ATOM     12  H2  <0> d           1.583   2.171  -1.029  0.00  0.00     0.040 H 
ATOM     13  H3  <0> d           1.142   2.928   0.521  0.00  0.00     0.040 H 
ATOM     14  H4  <0> d           2.053   1.398   0.504  0.00  0.00     0.040 H 
ENDBRANCH   8  11
ENDBRANCH   1   7
BRANCH   3  15
ATOM     15  N5  <0> d          -5.892   0.909   0.035  0.00  0.00    -0.231 N 
ATOM     16  H6  <0> d          -6.265   1.804   0.042  0.00  0.00     0.174 HD
ATOM     17  H7  <0> d          -6.480   0.138   0.034  0.00  0.00     0.174 HD
ENDBRANCH   3  15
TORSDOF 3
