REMARK  4 active torsions:
REMARK  status: ('A' for Active; 'I' for Inactive)
REMARK    1  A    between atoms: C1_1  and  C2_2 
REMARK    2  A    between atoms: C4_4  and  C7_9 
REMARK    3  A    between atoms: C5_7  and  C6_8 
REMARK    4  A    between atoms: C7_9  and  C8_11 
ROOT
ATOM      1  C2  <0> d           0.002  -0.004   0.002  0.00  0.00    -0.037 A 
ATOM      2  C3  <0> d           0.009  -0.819  -1.131  0.00  0.00    -0.046 A 
ATOM      3  C4  <0> d           0.028  -2.130  -0.685  0.00  0.00     0.079 A 
ATOM      4  N1  <0> d           0.033  -2.096   0.693  0.00  0.00    -0.357 N 
ATOM      5  H1  <0> d           0.046  -2.870   1.278  0.00  0.00     0.166 HD
ATOM      6  C5  <0> d           0.023  -0.808   1.094  0.00  0.00     0.011 A 
ATOM      7  H5  <0> d          -0.001  -0.490  -2.160  0.00  0.00     0.088 H 
ENDROOT
BRANCH   3   8
ATOM      8  C7  <0> d           0.040  -3.289  -1.494  0.00  0.00     0.172 C 
ATOM      9  O1  <0> d           0.033  -3.185  -2.704  0.00  0.00    -0.291 OA
BRANCH   8  10
ATOM     10  C8  <0> d           0.061  -4.653  -0.855  0.00  0.00    -0.015 C 
ATOM     11  H9  <0> d           0.065  -4.546   0.230  0.00  0.00     0.038 H 
ATOM     12  H10 <0> d          -0.823  -5.212  -1.162  0.00  0.00     0.038 H 
ATOM     13  H11 <0> d           0.957  -5.188  -1.170  0.00  0.00     0.038 H 
ENDBRANCH   8  10
ENDBRANCH   3   8
BRANCH   1  14
ATOM     14  C1  <0> d          -0.018   1.503   0.010  0.00  0.00    -0.049 C 
ATOM     15  H2  <0> d           1.004   1.880   0.003  0.00  0.00     0.033 H 
ATOM     16  H3  <0> d          -0.545   1.864  -0.873  0.00  0.00     0.033 H 
ATOM     17  H4  <0> d          -0.529   1.854   0.907  0.00  0.00     0.033 H 
ENDBRANCH   1  14
BRANCH   6  18
ATOM     18  C6  <0> d           0.031  -0.338   2.526  0.00  0.00    -0.037 C 
ATOM     19  H6  <0> d          -0.995  -0.238   2.881  0.00  0.00     0.035 H 
ATOM     20  H7  <0> d           0.560  -1.063   3.144  0.00  0.00     0.035 H 
ATOM     21  H8  <0> d           0.533   0.628   2.589  0.00  0.00     0.035 H 
ENDBRANCH   6  18
TORSDOF 4
