REMARK  2 active torsions:
REMARK  status: ('A' for Active; 'I' for Inactive)
REMARK    1  A    between atoms: C1_1  and  N1_2 
REMARK    2  A    between atoms: N1_2  and  C2_3 
ROOT
ATOM      1  C2  <0> d          -1.192  -0.716   0.010  0.00  0.00     0.145 A 
ATOM      2  C3  <0> d          -2.412  -0.038   0.019  0.00  0.00    -0.036 A 
ATOM      3  C4  <0> d          -3.573  -0.793   0.026  0.00  0.00    -0.061 A 
ATOM      4  C5  <0> d          -3.453  -2.176   0.023  0.00  0.00     0.024 A 
ATOM      5  N2  <0> d          -2.258  -2.734   0.014  0.00  0.00    -0.161 NA
ATOM      6  N3  <0> d          -1.178  -2.040   0.002  0.00  0.00    -0.133 NA
ATOM      7  H5  <0> d          -2.449   1.041   0.021  0.00  0.00     0.089 H 
ATOM      8  H6  <0> d          -4.544  -0.320   0.034  0.00  0.00     0.086 H 
ATOM      9  H7  <0> d          -4.337  -2.796   0.028  0.00  0.00     0.117 H 
ENDROOT
BRANCH   1  10
ATOM     10  N1  <0> d           0.002  -0.004   0.002  0.00  0.00    -0.378 N 
ATOM     11  H4  <0> d           0.849  -0.478  -0.009  0.00  0.00     0.160 HD
BRANCH  10  12
ATOM     12  C1  <0> d          -0.018   1.461   0.010  0.00  0.00    -0.020 C 
ATOM     13  H1  <0> d           1.005   1.838   0.002  0.00  0.00     0.056 H 
ATOM     14  H2  <0> d          -0.545   1.822  -0.873  0.00  0.00     0.056 H 
ATOM     15  H3  <0> d          -0.528   1.812   0.907  0.00  0.00     0.056 H 
ENDBRANCH  10  12
ENDBRANCH   1  10
TORSDOF 2
