REMARK  2 active torsions:
REMARK  status: ('A' for Active; 'I' for Inactive)
REMARK    1  A    between atoms: C1_1  and  C2_2 
REMARK    2  A    between atoms: C2_2  and  C8_11 
ROOT
ATOM      1  C2  <0> d           0.002  -0.004   0.002  0.00  0.00    -0.033 C 
ATOM      2  C3  <0> d          -1.366  -0.663   0.317  0.00  0.00    -0.040 C 
ATOM      3  H1  <0> d          -2.274  -0.324  -0.180  0.00  0.00     0.041 H 
ATOM      4  C4  <0> d          -1.022  -0.144   1.747  0.00  0.00    -0.050 C 
ATOM      5  C5  <0> d           0.401  -0.645   1.355  0.00  0.00     0.011 C 
ATOM      6  H2  <0> d           1.269  -0.277   1.903  0.00  0.00     0.052 H 
ATOM      7  C6  <0> d           0.305  -2.157   1.066  0.00  0.00     0.132 C 
ATOM      8  O1  <0> d           1.054  -3.055   1.367  0.00  0.00    -0.298 OA
ATOM      9  C7  <0> d          -1.022  -2.191   0.268  0.00  0.00    -0.005 C 
ATOM     10  H6  <0> d          -1.103   0.936   1.866  0.00  0.00     0.034 H 
ATOM     11  H7  <0> d          -1.491  -0.706   2.555  0.00  0.00     0.034 H 
ATOM     12  H8  <0> d          -1.774  -2.786   0.785  0.00  0.00     0.044 H 
ATOM     13  H9  <0> d          -0.881  -2.535  -0.757  0.00  0.00     0.044 H 
ENDROOT
BRANCH   1  14
ATOM     14  C1  <0> d          -0.019   1.526   0.010  0.00  0.00    -0.068 C 
ATOM     15  H3  <0> d           0.921   1.900   0.417  0.00  0.00     0.028 H 
ATOM     16  H4  <0> d          -0.146   1.893  -1.008  0.00  0.00     0.028 H 
ATOM     17  H5  <0> d          -0.846   1.875   0.628  0.00  0.00     0.028 H 
ENDBRANCH   1  14
BRANCH   1  18
ATOM     18  C8  <0> d           0.723  -0.595  -1.212  0.00  0.00    -0.068 C 
ATOM     19  H10 <0> d           1.699  -0.123  -1.319  0.00  0.00     0.028 H 
ATOM     20  H11 <0> d           0.851  -1.668  -1.071  0.00  0.00     0.028 H 
ATOM     21  H12 <0> d           0.131  -0.414  -2.109  0.00  0.00     0.028 H 
ENDBRANCH   1  18
TORSDOF 2
