REMARK  0 active torsions:
REMARK  status: ('A' for Active; 'I' for Inactive)
ROOT
ATOM      1  C1  <0> d           0.002  -0.004   0.002  0.00  0.00     0.012 C 
ATOM      2  C2  <0> d           1.504  -0.366  -0.005  0.00  0.00     0.026 C 
ATOM      3  O1  <0> d           2.155   0.795   0.558  0.00  0.00    -0.383 OA
ATOM      4  C3  <0> d           1.447   1.923  -0.001  0.00  0.00     0.074 C 
ATOM      5  C4  <0> d          -0.018   1.517   0.010  0.00  0.00     0.152 C 
ATOM      6  O2  <0> d          -0.985   2.241   0.019  0.00  0.00    -0.296 OA
ATOM      7  H1  <0> d          -0.471  -0.348   0.813  0.00  0.00     0.047 H 
ATOM      8  H2  <0> d          -0.486  -0.387  -0.894  0.00  0.00     0.047 H 
ATOM      9  H3  <0> d           1.687  -1.243   0.615  0.00  0.00     0.074 H 
ATOM     10  H4  <0> d           1.849  -0.539  -1.024  0.00  0.00     0.074 H 
ATOM     11  H5  <0> d           1.780   2.100  -0.927  0.00  0.00     0.086 H 
ATOM     12  H6  <0> d           1.599   2.809   0.615  0.00  0.00     0.086 H 
ENDROOT
TORSDOF 0
