REMARK  0 active torsions:
REMARK  status: ('A' for Active; 'I' for Inactive)
ROOT
ATOM      1  C1  <0> d          -0.017   1.374   0.010  0.00  0.00    -0.081 A 
ATOM      2  C2  <0> d           1.165   2.096   0.002  0.00  0.00    -0.082 A 
ATOM      3  C3  <0> d           2.380   1.437  -0.011  0.00  0.00    -0.064 A 
ATOM      4  C4  <0> d           2.411   0.054  -0.018  0.00  0.00     0.029 A 
ATOM      5  C5  <0> d           1.221  -0.689  -0.014  0.00  0.00     0.072 A 
ATOM      6  C6  <0> d           0.002  -0.004   0.002  0.00  0.00    -0.054 A 
ATOM      7  N1  <0> d           1.231  -2.050  -0.031  0.00  0.00    -0.263 NA
ATOM      8  C7  <0> d           2.176  -2.827   0.309  0.00  0.00    -0.008 C 
ATOM      9  C8  <0> d           3.517  -2.366   0.815  0.00  0.00     0.012 C 
ATOM     10  S1  <0> d           3.950  -0.813  -0.030  0.00  0.00    -0.122 SA
ATOM     11  H1  <0> d          -0.962   1.896   0.026  0.00  0.00     0.083 H 
ATOM     12  H2  <0> d           1.137   3.176   0.007  0.00  0.00     0.083 H 
ATOM     13  H3  <0> d           3.302   1.999  -0.017  0.00  0.00     0.085 H 
ATOM     14  H4  <0> d          -0.926  -0.556   0.009  0.00  0.00     0.087 H 
ATOM     15  H5  <0> d           2.006  -3.891   0.230  0.00  0.00     0.109 H 
ATOM     16  H6  <0> d           3.464  -2.196   1.890  0.00  0.00     0.057 H 
ATOM     17  H7  <0> d           4.270  -3.124   0.598  0.00  0.00     0.057 H 
ENDROOT
TORSDOF 0
