REMARK  1 active torsions:
REMARK  status: ('A' for Active; 'I' for Inactive)
REMARK    1  A    between atoms: C1_1  and  N3_9 
REMARK       I    between atoms: N3_9  and  C4_10 
REMARK       I    between atoms: C4_10  and  N4_12 
ROOT
ATOM      1  C1  <0> d          -0.013   1.086   0.008  0.00  0.00     0.161 A 
ATOM      2  H1  <0> d           0.002  -0.004   0.002  0.00  0.00     0.122 H 
ATOM      3  C2  <0> d          -0.589   1.604   1.311  0.00  0.00     0.268 A 
ATOM      4  O1  <0> d          -1.703   1.412   1.747  0.00  0.00    -0.269 OA
ATOM      5  N1  <0> d           0.397   2.323   1.884  0.00  0.00    -0.276 N 
ATOM      6  C3  <0> d           1.504   2.330   1.133  0.00  0.00     0.324 A 
ATOM      7  O2  <0> d           2.526   2.912   1.441  0.00  0.00    -0.247 OA
ATOM      8  N2  <0> d           1.359   1.623  -0.002  0.00  0.00    -0.313 N 
ATOM      9  H2  <0> d           0.314   2.779   2.737  0.00  0.00     0.173 HD
ATOM     10  H3  <0> d           2.028   1.492  -0.693  0.00  0.00     0.166 HD
ENDROOT
BRANCH   1  11
ATOM     11  N3  <0> d          -0.774   1.596  -1.135  0.00  0.00    -0.314 N 
ATOM     12  C4  <0> d          -1.063   0.781  -2.169  0.00  0.00     0.315 C 
ATOM     13  O3  <0> d          -0.692  -0.376  -2.154  0.00  0.00    -0.248 OA
ATOM     14  N4  <0> d          -1.764   1.251  -3.221  0.00  0.00    -0.352 N 
ATOM     15  H5  <0> d          -2.060   2.174  -3.233  0.00  0.00     0.160 HD
ATOM     16  H6  <0> d          -1.972   0.665  -3.965  0.00  0.00     0.160 HD
ATOM     17  H4  <0> d          -1.071   2.519  -1.147  0.00  0.00     0.166 HD
ENDBRANCH   1  11
TORSDOF 1
