REMARK  3 active torsions:
REMARK  status: ('A' for Active; 'I' for Inactive)
REMARK    1  A    between atoms: C1_1  and  C2_2 
REMARK    2  A    between atoms: C2_2  and  C7_8 
REMARK    3  A    between atoms: C7_8  and  O2_9 
ROOT
ATOM      1  C2  <0> d           1.193   2.117   0.002  0.00  0.00     0.038 C 
ATOM      2  C3  <0> d           0.659   3.565   0.005  0.00  0.00    -0.050 C 
ATOM      3  C4  <0> d          -0.771   3.431  -0.578  0.00  0.00    -0.058 C 
ATOM      4  C5  <0> d          -1.250   2.087   0.018  0.00  0.00    -0.009 C 
ATOM      5  C6  <0> d          -0.014   1.203   0.009  0.00  0.00     0.137 C 
ATOM      6  O1  <0> d           0.002  -0.004   0.002  0.00  0.00    -0.297 OA
ATOM      7  H4  <0> d           0.623   3.957   1.021  0.00  0.00     0.034 H 
ATOM      8  H5  <0> d           1.275   4.202  -0.629  0.00  0.00     0.034 H 
ATOM      9  H6  <0> d          -1.404   4.253  -0.244  0.00  0.00     0.033 H 
ATOM     10  H7  <0> d          -0.743   3.383  -1.667  0.00  0.00     0.033 H 
ATOM     11  H8  <0> d          -1.988   1.716  -0.545  0.00  0.00     0.044 H 
ATOM     12  H9  <0> d          -1.606   2.231   1.038  0.00  0.00     0.044 H 
ENDROOT
BRANCH   1  13
ATOM     13  C1  <0> d           2.029   1.871  -1.256  0.00  0.00    -0.060 C 
ATOM     14  H1  <0> d           1.415   2.046  -2.140  0.00  0.00     0.029 H 
ATOM     15  H2  <0> d           2.881   2.551  -1.265  0.00  0.00     0.029 H 
ATOM     16  H3  <0> d           2.385   0.841  -1.260  0.00  0.00     0.029 H 
ENDBRANCH   1  13
BRANCH   1  17
ATOM     17  C7  <0> d           2.042   1.871   1.251  0.00  0.00     0.030 C 
ATOM     18  H10 <0> d           2.895   2.550   1.250  0.00  0.00     0.075 H 
ATOM     19  H11 <0> d           1.439   2.046   2.141  0.00  0.00     0.075 H 
BRANCH  17  20
ATOM     20  O2  <0> d           2.510   0.520   1.250  0.00  0.00    -0.400 OA
ATOM     21  H12 <0> d           3.056   0.293   2.014  0.00  0.00     0.209 HD
ENDBRANCH  17  20
ENDBRANCH   1  17
TORSDOF 3
