REMARK  2 active torsions:
REMARK  status: ('A' for Active; 'I' for Inactive)
REMARK    1  A    between atoms: C1_1  and  C2_2 
REMARK    2  A    between atoms: C4_4  and  C6_8 
ROOT
ATOM      1  C2  <0> d          -0.693   3.621   0.027  0.00  0.00    -0.045 A 
ATOM      2  C3  <0> d          -1.121   2.278   0.019  0.00  0.00    -0.055 A 
ATOM      3  C4  <0> d          -0.018   1.503   0.010  0.00  0.00     0.005 A 
ATOM      4  N1  <0> d           1.075   2.317   0.004  0.00  0.00    -0.369 N 
ATOM      5  H1  <0> d           1.999   2.022  -0.006  0.00  0.00     0.165 HD
ATOM      6  C5  <0> d           0.655   3.614   0.015  0.00  0.00    -0.017 A 
ATOM      7  H5  <0> d          -2.145   1.934   0.022  0.00  0.00     0.087 H 
ATOM      8  H6  <0> d           1.293   4.486   0.013  0.00  0.00     0.112 H 
ENDROOT
BRANCH   1   9
ATOM      9  C1  <0> d          -1.579   4.840   0.041  0.00  0.00    -0.050 C 
ATOM     10  H2  <0> d          -1.802   5.138  -0.983  0.00  0.00     0.033 H 
ATOM     11  H3  <0> d          -2.508   4.608   0.562  0.00  0.00     0.033 H 
ATOM     12  H4  <0> d          -1.068   5.654   0.555  0.00  0.00     0.033 H 
ENDBRANCH   1   9
BRANCH   3  13
ATOM     13  C6  <0> d           0.002  -0.004   0.002  0.00  0.00    -0.037 C 
ATOM     14  H7  <0> d           0.016  -0.373   1.028  0.00  0.00     0.035 H 
ATOM     15  H8  <0> d          -0.887  -0.377  -0.506  0.00  0.00     0.035 H 
ATOM     16  H9  <0> d           0.892  -0.352  -0.522  0.00  0.00     0.035 H 
ENDBRANCH   3  13
TORSDOF 2
