REMARK  2 active torsions:
REMARK  status: ('A' for Active; 'I' for Inactive)
REMARK    1  A    between atoms: C3_3  and  C6_8 
REMARK    2  A    between atoms: C4_4  and  N2_7 
REMARK       I    between atoms: C6_8  and  N3_10 
ROOT
ATOM      1  C1  <0> d          -0.073   1.078  -0.005  0.00  0.00    -0.065 A 
ATOM      2  C2  <0> d          -1.246   1.812   0.007  0.00  0.00    -0.063 A 
ATOM      3  C3  <0> d          -1.156   3.208   0.033  0.00  0.00     0.077 A 
ATOM      4  C4  <0> d           0.117   3.805   0.035  0.00  0.00     0.136 A 
ATOM      5  N1  <0> d           1.207   3.054   0.018  0.00  0.00    -0.243 NA
ATOM      6  C5  <0> d           1.143   1.737  -0.001  0.00  0.00     0.004 A 
ATOM      7  H1  <0> d          -0.107  -0.001  -0.021  0.00  0.00     0.085 H 
ATOM      8  H2  <0> d          -2.207   1.320  -0.000  0.00  0.00     0.085 H 
ATOM      9  H3  <0> d           2.057   1.162  -0.015  0.00  0.00     0.114 H 
ENDROOT
BRANCH   3  10
ATOM     10  C6  <0> d          -2.374   4.039   0.051  0.00  0.00     0.253 C 
ATOM     11  O1  <0> d          -2.286   5.249  -0.035  0.00  0.00    -0.268 OA
ATOM     12  N3  <0> d          -3.585   3.458   0.163  0.00  0.00    -0.366 N 
ATOM     13  H6  <0> d          -4.493   4.077   0.176  0.00  0.00     0.159 HD
ATOM     14  H7  <0> d          -3.664   2.363   0.241  0.00  0.00     0.159 HD
ENDBRANCH   3  10
BRANCH   4  15
ATOM     15  N2  <0> d           0.231   5.183   0.055  0.00  0.00    -0.383 N 
ATOM     16  H4  <0> d           1.226   5.652   0.057  0.00  0.00     0.157 HD
ATOM     17  H5  <0> d          -0.673   5.809   0.069  0.00  0.00     0.157 HD
ENDBRANCH   4  15
TORSDOF 2
