REMARK  2 active torsions:
REMARK  status: ('A' for Active; 'I' for Inactive)
REMARK    1  A    between atoms: C1_1  and  O1_2 
REMARK    2  A    between atoms: O1_2  and  C2_3 
ROOT
ATOM      1  C2  <0> d           1.181   1.785   0.000  0.00  0.00     0.106 A 
ATOM      2  C3  <0> d          -0.013   1.076   0.008  0.00  0.00    -0.046 A 
ATOM      3  C4  <0> d          -1.216   1.747   0.017  0.00  0.00    -0.060 A 
ATOM      4  C5  <0> d          -1.235   3.144   0.029  0.00  0.00     0.047 A 
ATOM      5  C6  <0> d          -0.032   3.856   0.022  0.00  0.00    -0.023 A 
ATOM      6  C7  <0> d           1.168   3.177   0.007  0.00  0.00     0.151 A 
ATOM      7  F1  <0> d           2.332   3.863   0.000  0.00  0.00    -0.203 F 
ATOM      8  C8  <0> d          -2.483   3.845   0.044  0.00  0.00     0.099 C 
ATOM      9  N1  <0> d          -3.474   4.401   0.055  0.00  0.00    -0.191 NA
ATOM     10  H4  <0> d           0.002  -0.004   0.002  0.00  0.00     0.087 H 
ATOM     11  H5  <0> d          -2.143   1.194   0.019  0.00  0.00     0.086 H 
ATOM     12  H6  <0> d          -0.042   4.936   0.026  0.00  0.00     0.090 H 
ENDROOT
BRANCH   1  13
ATOM     13  O1  <0> d           2.365   1.119  -0.015  0.00  0.00    -0.353 OA
BRANCH  13  14
ATOM     14  C1  <0> d           2.306  -0.308  -0.022  0.00  0.00     0.011 C 
ATOM     15  H1  <0> d           1.786  -0.655   0.872  0.00  0.00     0.066 H 
ATOM     16  H2  <0> d           1.769  -0.645  -0.908  0.00  0.00     0.066 H 
ATOM     17  H3  <0> d           3.317  -0.714  -0.034  0.00  0.00     0.066 H 
ENDBRANCH  13  14
ENDBRANCH   1  13
TORSDOF 2
