REMARK  4 active torsions:
REMARK  status: ('A' for Active; 'I' for Inactive)
REMARK    1  A    between atoms: C2_2  and  O4_12 
REMARK    2  A    between atoms: C3_4  and  O3_11 
REMARK    3  A    between atoms: C4_6  and  C5_9 
REMARK    4  A    between atoms: C5_9  and  O2_10 
ROOT
ATOM      1  C1  <0> d           3.140   2.626  -1.363  0.00  0.00     0.046 C 
ATOM      2  C2  <0> d           2.583   3.945  -0.783  0.00  0.00     0.083 C 
ATOM      3  H1  <0> d           3.349   4.461  -0.204  0.00  0.00     0.090 H 
ATOM      4  C3  <0> d           1.425   3.493   0.133  0.00  0.00     0.089 C 
ATOM      5  H2  <0> d           0.479   3.911  -0.212  0.00  0.00     0.091 H 
ATOM      6  C4  <0> d           1.418   1.954  -0.001  0.00  0.00     0.086 C 
ATOM      7  H3  <0> d           1.995   1.501   0.805  0.00  0.00     0.090 H 
ATOM      8  O1  <0> d           2.041   1.693  -1.278  0.00  0.00    -0.378 OA
ATOM      9  H4  <0> d           3.440   2.765  -2.402  0.00  0.00     0.078 H 
ATOM     10  H5  <0> d           3.984   2.276  -0.769  0.00  0.00     0.078 H 
ENDROOT
BRANCH   6  11
ATOM     11  C5  <0> d          -0.017   1.425   0.010  0.00  0.00     0.043 C 
ATOM     12  H6  <0> d          -0.544   1.786  -0.873  0.00  0.00     0.078 H 
ATOM     13  H7  <0> d          -0.527   1.776   0.907  0.00  0.00     0.078 H 
BRANCH  11  14
ATOM     14  O2  <0> d           0.002  -0.004   0.002  0.00  0.00    -0.398 OA
ATOM     15  H8  <0> d          -0.876  -0.409   0.008  0.00  0.00     0.209 HD
ENDBRANCH  11  14
ENDBRANCH   6  11
BRANCH   4  16
ATOM     16  O3  <0> d           1.675   3.877   1.487  0.00  0.00    -0.390 OA
ATOM     17  H9  <0> d           1.690   4.833   1.629  0.00  0.00     0.210 HD
ENDBRANCH   4  16
BRANCH   2  18
ATOM     18  O4  <0> d           2.095   4.788  -1.829  0.00  0.00    -0.391 OA
ATOM     19  H10 <0> d           2.781   5.101  -2.434  0.00  0.00     0.210 HD
ENDBRANCH   2  18
TORSDOF 4
