REMARK  1 active torsions:
REMARK  status: ('A' for Active; 'I' for Inactive)
REMARK    1  A    between atoms: C6_6  and  N1_7 
ROOT
ATOM      1  C1  <0> d           2.388   1.429  -0.014  0.00  0.00    -0.019 A 
ATOM      2  C2  <0> d           1.167   2.094   0.002  0.00  0.00     0.120 A 
ATOM      3  C3  <0> d          -0.017   1.389   0.010  0.00  0.00    -0.018 A 
ATOM      4  C4  <0> d           0.002  -0.004   0.002  0.00  0.00     0.067 A 
ATOM      5  C5  <0> d           1.232  -0.686  -0.013  0.00  0.00     0.037 A 
ATOM      6  C6  <0> d           2.433   0.049  -0.021  0.00  0.00     0.042 A 
ATOM      7  C7  <0> d           0.936  -2.069  -0.018  0.00  0.00     0.036 A 
ATOM      8  N2  <0> d          -0.356  -2.219  -0.006  0.00  0.00    -0.186 NA
ATOM      9  N3  <0> d          -0.977  -0.964   0.007  0.00  0.00    -0.278 N 
ATOM     10  H1  <0> d          -1.963  -0.797   0.017  0.00  0.00     0.189 HD
ATOM     11  F1  <0> d           1.142   3.445   0.009  0.00  0.00    -0.206 F 
ATOM     12  H2  <0> d           3.308   1.995  -0.020  0.00  0.00     0.091 H 
ATOM     13  H3  <0> d          -0.959   1.916   0.017  0.00  0.00     0.091 H 
ATOM     14  H6  <0> d           1.663  -2.869  -0.028  0.00  0.00     0.118 H 
ENDROOT
BRANCH   6  15
ATOM     15  N1  <0> d           3.659  -0.613  -0.037  0.00  0.00    -0.398 N 
ATOM     16  H4  <0> d           3.687  -1.583  -0.043  0.00  0.00     0.156 HD
ATOM     17  H5  <0> d           4.485  -0.104  -0.042  0.00  0.00     0.156 HD
ENDBRANCH   6  15
TORSDOF 1
