REMARK  1 active torsions:
REMARK  status: ('A' for Active; 'I' for Inactive)
REMARK    1  A    between atoms: C3_4  and  C4_6 
ROOT
ATOM      1  C1  <0> d          -0.116   3.377  -1.325  0.00  0.00     0.043 C 
ATOM      2  C2  <0> d           1.194   3.390  -0.511  0.00  0.00     0.043 C 
ATOM      3  O1  <0> d           1.328   2.047   0.000  0.00  0.00    -0.351 OA
ATOM      4  C3  <0> d          -0.019   1.526   0.010  0.00  0.00     0.226 C 
ATOM      5  O2  <0> d          -0.614   2.028  -1.206  0.00  0.00    -0.351 OA
ATOM      6  H1  <0> d          -0.831   4.083  -0.903  0.00  0.00     0.077 H 
ATOM      7  H2  <0> d           0.085   3.616  -2.369  0.00  0.00     0.077 H 
ATOM      8  H3  <0> d           1.123   4.103   0.310  0.00  0.00     0.077 H 
ATOM      9  H4  <0> d           2.038   3.636  -1.156  0.00  0.00     0.077 H 
ATOM     10  H5  <0> d          -0.562   1.893   0.881  0.00  0.00     0.143 H 
ENDROOT
BRANCH   4  11
ATOM     11  C4  <0> d           0.002  -0.004   0.002  0.00  0.00     0.437 C 
ATOM     12  F1  <0> d           0.679  -0.468   1.135  0.00  0.00    -0.166 F 
ATOM     13  F2  <0> d          -1.310  -0.488   0.012  0.00  0.00    -0.166 F 
ATOM     14  F3  <0> d           0.657  -0.455  -1.149  0.00  0.00    -0.166 F 
ENDBRANCH   4  11
TORSDOF 1
