REMARK  1 active torsions:
REMARK  status: ('A' for Active; 'I' for Inactive)
REMARK    1  A    between atoms: C1_1  and  C2_2 
ROOT
ATOM      1  C2  <0> d           0.002  -0.004   0.002  0.00  0.00    -0.015 A 
ATOM      2  H1  <0> d           0.499  -0.369  -0.897  0.00  0.00     0.053 H 
ATOM      3  C3  <0> d          -1.406  -0.546   0.078  0.00  0.00    -0.094 A 
ATOM      4  C4  <0> d          -1.514  -1.268   1.179  0.00  0.00    -0.075 A 
ATOM      5  C5  <0> d          -0.243  -1.286   1.928  0.00  0.00    -0.029 A 
ATOM      6  C6  <0> d           0.702  -0.524   1.234  0.00  0.00    -0.041 A 
ATOM      7  C7  <0> d           1.980  -0.379   1.722  0.00  0.00    -0.075 A 
ATOM      8  C8  <0> d           2.339  -0.992   2.911  0.00  0.00    -0.082 A 
ATOM      9  C9  <0> d           1.415  -1.749   3.608  0.00  0.00    -0.082 A 
ATOM     10  C10 <0> d           0.126  -1.900   3.127  0.00  0.00    -0.072 A 
ATOM     11  H5  <0> d          -2.190  -0.374  -0.645  0.00  0.00     0.077 H 
ATOM     12  H6  <0> d          -2.413  -1.778   1.491  0.00  0.00     0.084 H 
ATOM     13  H7  <0> d           2.702   0.211   1.179  0.00  0.00     0.084 H 
ATOM     14  H8  <0> d           3.342  -0.879   3.295  0.00  0.00     0.083 H 
ATOM     15  H9  <0> d           1.700  -2.225   4.535  0.00  0.00     0.083 H 
ATOM     16  H10 <0> d          -0.593  -2.493   3.674  0.00  0.00     0.084 H 
ENDROOT
BRANCH   1  17
ATOM     17  C1  <0> d          -0.019   1.526   0.010  0.00  0.00    -0.066 C 
ATOM     18  H2  <0> d           1.004   1.903   0.003  0.00  0.00     0.028 H 
ATOM     19  H3  <0> d          -0.546   1.887  -0.873  0.00  0.00     0.028 H 
ATOM     20  H4  <0> d          -0.529   1.877   0.907  0.00  0.00     0.028 H 
ENDBRANCH   1  17
TORSDOF 1
