REMARK  8 active torsions:
REMARK  status: ('A' for Active; 'I' for Inactive)
REMARK    1  A    between atoms: C1_1  and  C2_2 
REMARK    2  A    between atoms: C2_2  and  C3_4 
REMARK    3  A    between atoms: C2_2  and  O3_11 
REMARK    4  A    between atoms: C3_4  and  O2_6 
REMARK    5  A    between atoms: O2_6  and  C4_7 
REMARK    6  A    between atoms: C4_7  and  C5_8 
REMARK    7  A    between atoms: C5_8  and  C6_9 
REMARK    8  A    between atoms: C5_8  and  C7_10 
ROOT
ATOM      1  C4  <0> d           0.969  -0.779   3.558  0.00  0.00     0.032 C 
ATOM      2  H5  <0> d           1.061  -1.862   3.475  0.00  0.00     0.075 H 
ATOM      3  H6  <0> d           1.962  -0.329   3.564  0.00  0.00     0.075 H 
ENDROOT
BRANCH   1   4
ATOM      4  O2  <0> d           0.225  -0.277   2.446  0.00  0.00    -0.319 OA
BRANCH   4   5
ATOM      5  C3  <0> d           0.731  -0.503   1.223  0.00  0.00     0.287 C 
ATOM      6  O1  <0> d           1.770  -1.107   1.101  0.00  0.00    -0.262 OA
BRANCH   5   7
ATOM      7  C2  <0> d           0.002  -0.004   0.002  0.00  0.00     0.115 C 
ATOM      8  H1  <0> d          -1.020  -0.381   0.010  0.00  0.00     0.098 H 
BRANCH   7   9
ATOM      9  C1  <0> d          -0.019   1.526   0.010  0.00  0.00    -0.044 C 
ATOM     10  H2  <0> d           1.004   1.903   0.003  0.00  0.00     0.031 H 
ATOM     11  H3  <0> d          -0.546   1.887  -0.873  0.00  0.00     0.031 H 
ATOM     12  H4  <0> d          -0.529   1.877   0.907  0.00  0.00     0.031 H 
ENDBRANCH   7   9
BRANCH   7  13
ATOM     13  O3  <0> d           0.671  -0.465  -1.174  0.00  0.00    -0.386 OA
ATOM     14  H14 <0> d           0.256  -0.181  -1.999  0.00  0.00     0.210 HD
ENDBRANCH   7  13
ENDBRANCH   5   7
ENDBRANCH   4   5
ENDBRANCH   1   4
BRANCH   1  15
ATOM     15  C5  <0> d           0.242  -0.427   4.858  0.00  0.00    -0.040 C 
ATOM     16  H7  <0> d           0.071   0.648   4.899  0.00  0.00     0.042 H 
BRANCH  15  17
ATOM     17  C6  <0> d          -1.101  -1.160   4.905  0.00  0.00    -0.071 C 
ATOM     18  H8  <0> d          -1.710  -0.856   4.054  0.00  0.00     0.028 H 
ATOM     19  H9  <0> d          -0.930  -2.235   4.864  0.00  0.00     0.028 H 
ATOM     20  H10 <0> d          -1.619  -0.909   5.831  0.00  0.00     0.028 H 
ENDBRANCH  15  17
BRANCH  15  21
ATOM     21  C7  <0> d           1.098  -0.854   6.052  0.00  0.00    -0.071 C 
ATOM     22  H11 <0> d           2.054  -0.332   6.018  0.00  0.00     0.028 H 
ATOM     23  H12 <0> d           0.580  -0.603   6.978  0.00  0.00     0.028 H 
ATOM     24  H13 <0> d           1.269  -1.929   6.011  0.00  0.00     0.028 H 
ENDBRANCH  15  21
ENDBRANCH   1  15
TORSDOF 8
