REMARK  1 active torsions:
REMARK  status: ('A' for Active; 'I' for Inactive)
REMARK    1  A    between atoms: C4_5  and  C5_6 
ROOT
ATOM      1  C1  <0> d           1.295   2.096   0.001  0.00  0.00    -0.058 A 
ATOM      2  C2  <0> d          -0.022   1.780   0.012  0.00  0.00    -0.043 A 
ATOM      3  S1  <0> d           0.002  -0.004   0.002  0.00  0.00    -0.090 SA
ATOM      4  C3  <0> d           1.771  -0.241  -0.016  0.00  0.00     0.102 A 
ATOM      5  C4  <0> d           2.238   1.079  -0.013  0.00  0.00     0.068 A 
ATOM      6  C6  <0> d           2.518  -1.463  -0.029  0.00  0.00     0.108 C 
ATOM      7  N1  <0> d           3.111  -2.432  -0.040  0.00  0.00    -0.191 NA
ATOM      8  H1  <0> d           1.607   3.130   0.003  0.00  0.00     0.086 H 
ATOM      9  H2  <0> d          -0.875   2.443   0.020  0.00  0.00     0.095 H 
ENDROOT
BRANCH   5  10
ATOM     10  C5  <0> d           3.680   1.378  -0.026  0.00  0.00     0.211 C 
ATOM     11  O1  <0> d           4.488   0.470  -0.038  0.00  0.00    -0.644 OA
ATOM     12  O2  <0> d           4.103   2.657  -0.023  0.00  0.00    -0.644 OA
ENDBRANCH   5  10
TORSDOF 1
