REMARK  1 active torsions:
REMARK  status: ('A' for Active; 'I' for Inactive)
REMARK    1  A    between atoms: C1_1  and  C2_2 
ROOT
ATOM      1  C2  <0> d           0.002  -0.004   0.002  0.00  0.00    -0.044 A 
ATOM      2  C3  <0> d          -0.017   1.383   0.010  0.00  0.00    -0.071 A 
ATOM      3  C4  <0> d           1.192   2.060   0.002  0.00  0.00    -0.026 A 
ATOM      4  C5  <0> d           2.372   1.333  -0.013  0.00  0.00     0.209 A 
ATOM      5  N1  <0> d           2.350   0.013  -0.020  0.00  0.00    -0.232 NA
ATOM      6  C6  <0> d           1.216  -0.662  -0.013  0.00  0.00     0.011 A 
ATOM      7  F1  <0> d           3.556   1.982  -0.021  0.00  0.00    -0.184 F 
ATOM      8  H4  <0> d          -0.952   1.923   0.017  0.00  0.00     0.084 H 
ATOM      9  H5  <0> d           1.215   3.139   0.007  0.00  0.00     0.090 H 
ATOM     10  H6  <0> d           1.238  -1.742  -0.019  0.00  0.00     0.115 H 
ENDROOT
BRANCH   1  11
ATOM     11  C1  <0> d          -1.287  -0.784   0.010  0.00  0.00    -0.050 C 
ATOM     12  H1  <0> d          -1.608  -0.967  -1.016  0.00  0.00     0.033 H 
ATOM     13  H2  <0> d          -1.133  -1.736   0.517  0.00  0.00     0.033 H 
ATOM     14  H3  <0> d          -2.054  -0.213   0.534  0.00  0.00     0.033 H 
ENDBRANCH   1  11
TORSDOF 1
