REMARK  5 active torsions:
REMARK  status: ('A' for Active; 'I' for Inactive)
REMARK    1  A    between atoms: C1_1  and  N1_2 
REMARK    2  A    between atoms: N1_2  and  C2_3 
REMARK    3  A    between atoms: C5_6  and  N2_9 
REMARK    4  A    between atoms: N2_9  and  C8_10 
REMARK    5  A    between atoms: N2_9  and  C9_11 
ROOT
ATOM      1  C2  <0> d           1.214  -0.682  -0.010  0.00  0.00     0.027 A 
ATOM      2  C3  <0> d           0.002  -0.004   0.019  0.00  0.00    -0.055 A 
ATOM      3  C4  <0> d          -0.017   1.377   0.026  0.00  0.00    -0.055 A 
ATOM      4  C5  <0> d           1.176   2.087   0.003  0.00  0.00     0.029 A 
ATOM      5  C6  <0> d           2.388   1.409  -0.026  0.00  0.00    -0.055 A 
ATOM      6  C7  <0> d           2.406   0.029  -0.033  0.00  0.00    -0.055 A 
ATOM      7  H5  <0> d          -0.926  -0.557   0.037  0.00  0.00     0.087 H 
ATOM      8  H6  <0> d          -0.959   1.904   0.044  0.00  0.00     0.087 H 
ATOM      9  H7  <0> d           3.316   1.962  -0.044  0.00  0.00     0.087 H 
ATOM     10  H8  <0> d           3.349  -0.499  -0.055  0.00  0.00     0.087 H 
ENDROOT
BRANCH   4  11
ATOM     11  N2  <0> d           1.157   3.487   0.009  0.00  0.00    -0.390 N 
BRANCH  11  12
ATOM     12  C8  <0> d          -0.117   4.203  -0.087  0.00  0.00    -0.019 C 
ATOM     13  H9  <0> d           0.068   5.287  -0.066  0.00  0.00     0.056 H 
ATOM     14  H10 <0> d          -0.759   3.925   0.762  0.00  0.00     0.056 H 
ATOM     15  H11 <0> d          -0.618   3.934  -1.029  0.00  0.00     0.056 H 
ENDBRANCH  11  12
BRANCH  11  16
ATOM     16  C9  <0> d           2.412   4.236   0.112  0.00  0.00    -0.019 C 
ATOM     17  H12 <0> d           2.197   5.315   0.101  0.00  0.00     0.056 H 
ATOM     18  H13 <0> d           3.061   3.983  -0.740  0.00  0.00     0.056 H 
ATOM     19  H14 <0> d           2.920   3.973   1.051  0.00  0.00     0.056 H 
ENDBRANCH  11  16
ENDBRANCH   4  11
BRANCH   1  20
ATOM     20  N1  <0> d           1.232  -2.082  -0.016  0.00  0.00    -0.394 N 
ATOM     21  H4  <0> d           0.288  -2.645   0.002  0.00  0.00     0.159 HD
BRANCH  20  22
ATOM     22  C1  <0> d           2.511  -2.797  -0.047  0.00  0.00    -0.021 C 
ATOM     23  H1  <0> d           2.324  -3.881  -0.047  0.00  0.00     0.056 H 
ATOM     24  H2  <0> d           3.103  -2.527   0.840  0.00  0.00     0.056 H 
ATOM     25  H3  <0> d           3.064  -2.520  -0.956  0.00  0.00     0.056 H 
ENDBRANCH  20  22
ENDBRANCH   1  20
TORSDOF 5
