REMARK  4 active torsions:
REMARK  status: ('A' for Active; 'I' for Inactive)
REMARK    1  A    between atoms: C1_1  and  C2_2 
REMARK    2  A    between atoms: C3_3  and  C8_10 
REMARK    3  A    between atoms: C4_4  and  O2_9 
REMARK    4  A    between atoms: C7_7  and  O1_8 
ROOT
ATOM      1  C2  <0> d          -0.718   1.572   1.248  0.00  0.00    -0.020 A 
ATOM      2  C3  <0> d           0.000   1.806   2.405  0.00  0.00    -0.020 A 
ATOM      3  C4  <0> d          -0.649   2.253   3.546  0.00  0.00     0.072 A 
ATOM      4  C5  <0> d          -2.019   2.465   3.525  0.00  0.00    -0.048 A 
ATOM      5  C6  <0> d          -2.737   2.233   2.369  0.00  0.00    -0.048 A 
ATOM      6  C7  <0> d          -2.087   1.790   1.226  0.00  0.00     0.072 A 
ATOM      7  H4  <0> d          -2.525   2.813   4.414  0.00  0.00     0.087 H 
ATOM      8  H5  <0> d          -3.804   2.398   2.353  0.00  0.00     0.087 H 
ENDROOT
BRANCH   1   9
ATOM      9  C1  <0> d          -0.013   1.086   0.008  0.00  0.00    -0.048 C 
ATOM     10  H1  <0> d           0.002  -0.004   0.002  0.00  0.00     0.033 H 
ATOM     11  H2  <0> d           1.010   1.463   0.000  0.00  0.00     0.033 H 
ATOM     12  H3  <0> d          -0.540   1.447  -0.875  0.00  0.00     0.033 H 
ENDBRANCH   1   9
BRANCH   6  13
ATOM     13  O1  <0> d          -2.794   1.565   0.086  0.00  0.00    -0.360 OA
ATOM     14  H6  <0> d          -3.135   0.664   0.006  0.00  0.00     0.217 HD
ENDBRANCH   6  13
BRANCH   2  15
ATOM     15  C8  <0> d           1.489   1.575   2.426  0.00  0.00    -0.048 C 
ATOM     16  H8  <0> d           2.003   2.492   2.139  0.00  0.00     0.033 H 
ATOM     17  H9  <0> d           1.798   1.285   3.431  0.00  0.00     0.033 H 
ATOM     18  H10 <0> d           1.744   0.780   1.725  0.00  0.00     0.033 H 
ENDBRANCH   2  15
BRANCH   3  19
ATOM     19  O2  <0> d           0.058   2.482   4.684  0.00  0.00    -0.360 OA
ATOM     20  H7  <0> d           0.397   3.385   4.762  0.00  0.00     0.217 HD
ENDBRANCH   3  19
TORSDOF 4
