REMARK  2 active torsions:
REMARK  status: ('A' for Active; 'I' for Inactive)
REMARK    1  A    between atoms: C1_1  and  C2_2 
REMARK    2  A    between atoms: N1_5  and  C5_7 
ROOT
ATOM      1  C2  <0> d          -1.155   1.883   0.017  0.00  0.00     0.052 A 
ATOM      2  C3  <0> d          -0.013   1.076   0.008  0.00  0.00    -0.041 A 
ATOM      3  C4  <0> d           1.071   1.887   0.002  0.00  0.00     0.006 A 
ATOM      4  N1  <0> d           0.630   3.162   0.013  0.00  0.00    -0.220 N 
ATOM      5  N2  <0> d          -0.771   3.134   0.026  0.00  0.00    -0.173 NA
ATOM      6  H4  <0> d           0.002  -0.004   0.002  0.00  0.00     0.088 H 
ATOM      7  H5  <0> d           2.103   1.570  -0.010  0.00  0.00     0.114 H 
ENDROOT
BRANCH   1   8
ATOM      8  C1  <0> d          -2.581   1.397   0.020  0.00  0.00    -0.034 C 
ATOM      9  H1  <0> d          -2.921   1.274   1.049  0.00  0.00     0.035 H 
ATOM     10  H2  <0> d          -3.214   2.124  -0.487  0.00  0.00     0.035 H 
ATOM     11  H3  <0> d          -2.639   0.440  -0.498  0.00  0.00     0.035 H 
ENDBRANCH   1   8
BRANCH   4  12
ATOM     12  C5  <0> d           1.468   4.364   0.012  0.00  0.00     0.295 C 
ATOM     13  F1  <0> d           0.804   5.396   0.683  0.00  0.00    -0.189 F 
ATOM     14  F2  <0> d           2.678   4.089   0.659  0.00  0.00    -0.189 F 
ATOM     15  H6  <0> d           1.666   4.668  -1.016  0.00  0.00     0.185 H 
ENDBRANCH   4  12
TORSDOF 2
