REMARK  5 active torsions:
REMARK  status: ('A' for Active; 'I' for Inactive)
REMARK    1  A    between atoms: C1_1  and  C2_2 
REMARK    2  A    between atoms: C2_2  and  C3_4 
REMARK    3  A    between atoms: C2_2  and  O1_8 
REMARK    4  A    between atoms: O1_8  and  C4_9 
REMARK    5  A    between atoms: C4_9  and  C5_11 
ROOT
ATOM      1  C2  <0> d           0.021  -2.119  -1.096  0.00  0.00     0.138 C 
ATOM      2  H1  <0> d          -0.480  -2.447  -0.185  0.00  0.00     0.097 H 
ENDROOT
BRANCH   1   3
ATOM      3  C1  <0> d           1.470  -2.609  -1.086  0.00  0.00    -0.043 C 
ATOM      4  H2  <0> d           1.971  -2.281  -1.997  0.00  0.00     0.031 H 
ATOM      5  H3  <0> d           1.986  -2.197  -0.219  0.00  0.00     0.031 H 
ATOM      6  H4  <0> d           1.485  -3.698  -1.035  0.00  0.00     0.031 H 
ENDBRANCH   1   3
BRANCH   1   7
ATOM      7  C3  <0> d          -0.705  -2.697  -2.313  0.00  0.00     0.413 C 
ATOM      8  F1  <0> d          -0.062  -2.276  -3.482  0.00  0.00    -0.168 F 
ATOM      9  F2  <0> d          -0.685  -4.094  -2.248  0.00  0.00    -0.168 F 
ATOM     10  F3  <0> d          -2.030  -2.249  -2.322  0.00  0.00    -0.168 F 
ENDBRANCH   1   7
BRANCH   1  11
ATOM     11  O1  <0> d           0.000  -0.669  -1.164  0.00  0.00    -0.308 OA
BRANCH  11  12
ATOM     12  C4  <0> d           0.002  -0.004   0.002  0.00  0.00     0.255 C 
ATOM     13  O2  <0> d           0.020  -0.614   1.045  0.00  0.00    -0.266 OA
BRANCH  12  14
ATOM     14  C5  <0> d          -0.018   1.503   0.010  0.00  0.00     0.004 C 
ATOM     15  H5  <0> d           1.004   1.880   0.003  0.00  0.00     0.041 H 
ATOM     16  H6  <0> d          -0.545   1.864  -0.873  0.00  0.00     0.041 H 
ATOM     17  H7  <0> d          -0.529   1.854   0.907  0.00  0.00     0.041 H 
ENDBRANCH  12  14
ENDBRANCH  11  12
ENDBRANCH   1  11
TORSDOF 5
