REMARK  3 active torsions:
REMARK  status: ('A' for Active; 'I' for Inactive)
REMARK    1  A    between atoms: C1_1  and  O1_2 
REMARK    2  A    between atoms: O1_2  and  C2_3 
REMARK    3  A    between atoms: C6_7  and  O2_10 
ROOT
ATOM      1  C2  <0> d           1.175   2.089   0.002  0.00  0.00     0.092 A 
ATOM      2  C3  <0> d          -0.017   1.377   0.010  0.00  0.00    -0.049 A 
ATOM      3  C4  <0> d           0.002  -0.004   0.002  0.00  0.00    -0.078 A 
ATOM      4  C5  <0> d           1.207  -0.681  -0.013  0.00  0.00    -0.049 A 
ATOM      5  C6  <0> d           2.401   0.025  -0.020  0.00  0.00     0.090 A 
ATOM      6  C7  <0> d           2.385   1.412  -0.013  0.00  0.00     0.100 A 
ATOM      7 Cl1  <0> d           3.877   2.299  -0.022  0.00  0.00    -0.078 Cl
ATOM      8  H4  <0> d          -0.960   1.904   0.017  0.00  0.00     0.087 H 
ATOM      9  H5  <0> d          -0.926  -0.556   0.008  0.00  0.00     0.083 H 
ATOM     10  H6  <0> d           1.218  -1.761  -0.019  0.00  0.00     0.087 H 
ENDROOT
BRANCH   1  11
ATOM     11  O1  <0> d           1.156   3.448   0.009  0.00  0.00    -0.354 OA
BRANCH  11  12
ATOM     12  C1  <0> d          -0.127   4.079   0.024  0.00  0.00     0.010 C 
ATOM     13  H1  <0> d          -0.688   3.782  -0.862  0.00  0.00     0.066 H 
ATOM     14  H2  <0> d          -0.671   3.773   0.918  0.00  0.00     0.066 H 
ATOM     15  H3  <0> d           0.001   5.161   0.029  0.00  0.00     0.066 H 
ENDBRANCH  11  12
ENDBRANCH   1  11
BRANCH   5  16
ATOM     16  O2  <0> d           3.585  -0.642  -0.035  0.00  0.00    -0.359 OA
ATOM     17  H7  <0> d           3.920  -0.830  -0.923  0.00  0.00     0.217 HD
ENDBRANCH   5  16
TORSDOF 3
