REMARK  1 active torsions:
REMARK  status: ('A' for Active; 'I' for Inactive)
REMARK    1  A    between atoms: C1_1  and  C2_2 
ROOT
ATOM      1  C2  <0> d          -0.018   1.504   0.010  0.00  0.00    -0.015 C 
ATOM      2  H1  <0> d          -0.541   1.869  -0.874  0.00  0.00     0.049 H 
ATOM      3  C3  <0> d           1.430   2.007  -0.001  0.00  0.00    -0.057 C 
ATOM      4  C4  <0> d           2.207   1.304  -1.117  0.00  0.00    -0.061 C 
ATOM      5  C5  <0> d           2.417  -0.169  -0.745  0.00  0.00    -0.038 C 
ATOM      6  C6  <0> d           1.087  -0.749  -0.332  0.00  0.00    -0.015 A 
ATOM      7  C7  <0> d           0.002  -0.004   0.002  0.00  0.00     0.039 A 
ATOM      8  N1  <0> d          -0.998  -0.847   0.309  0.00  0.00    -0.282 N 
ATOM      9  H2  <0> d          -1.921  -0.588   0.592  0.00  0.00     0.189 HD
ATOM     10  N2  <0> d          -0.516  -2.156   0.162  0.00  0.00    -0.186 NA
ATOM     11  C8  <0> d           0.736  -2.093  -0.223  0.00  0.00     0.029 A 
ATOM     12  H6  <0> d           1.440   3.083  -0.174  0.00  0.00     0.034 H 
ATOM     13  H7  <0> d           1.897   1.791   0.960  0.00  0.00     0.034 H 
ATOM     14  H8  <0> d           3.176   1.787  -1.246  0.00  0.00     0.033 H 
ATOM     15  H9  <0> d           1.644   1.367  -2.048  0.00  0.00     0.033 H 
ATOM     16  H10 <0> d           3.122  -0.242   0.083  0.00  0.00     0.040 H 
ATOM     17  H11 <0> d           2.803  -0.715  -1.606  0.00  0.00     0.040 H 
ATOM     18  H12 <0> d           1.382  -2.935  -0.421  0.00  0.00     0.118 H 
ENDROOT
BRANCH   1  19
ATOM     19  C1  <0> d          -0.728   2.003   1.271  0.00  0.00    -0.068 C 
ATOM     20  H3  <0> d          -0.197   1.644   2.153  0.00  0.00     0.028 H 
ATOM     21  H4  <0> d          -0.740   3.093   1.273  0.00  0.00     0.028 H 
ATOM     22  H5  <0> d          -1.751   1.627   1.285  0.00  0.00     0.028 H 
ENDBRANCH   1  19
TORSDOF 1
