REMARK  1 active torsions:
REMARK  status: ('A' for Active; 'I' for Inactive)
REMARK    1  A    between atoms: C1_1  and  C2_2 
ROOT
ATOM      1  C2  <0> d          -0.718   1.572   1.248  0.00  0.00     0.039 A 
ATOM      2  C3  <0> d          -2.078   1.792   1.240  0.00  0.00    -0.051 A 
ATOM      3  C4  <0> d          -2.630   2.226   2.405  0.00  0.00    -0.025 A 
ATOM      4  S1  <0> d          -1.249   2.320   3.448  0.00  0.00    -0.001 SA
ATOM      5  N1  <0> d          -0.048   1.798   2.351  0.00  0.00    -0.217 NA
ATOM      6  H4  <0> d          -2.675   1.626   0.356  0.00  0.00     0.087 H 
ATOM      7  H5  <0> d          -3.662   2.456   2.623  0.00  0.00     0.097 H 
ENDROOT
BRANCH   1   8
ATOM      8  C1  <0> d          -0.013   1.086   0.008  0.00  0.00    -0.035 C 
ATOM      9  H1  <0> d           0.002  -0.004   0.002  0.00  0.00     0.035 H 
ATOM     10  H2  <0> d           1.010   1.463   0.000  0.00  0.00     0.035 H 
ATOM     11  H3  <0> d          -0.540   1.447  -0.875  0.00  0.00     0.035 H 
ENDBRANCH   1   8
TORSDOF 1
