REMARK  1 active torsions:
REMARK  status: ('A' for Active; 'I' for Inactive)
REMARK    1  A    between atoms: C3_4  and  N4_10 
ROOT
ATOM      1  C1  <0> d          -0.016   1.333   0.009  0.00  0.00     0.017 A 
ATOM      2  C2  <0> d           1.126   2.049   0.002  0.00  0.00     0.005 A 
ATOM      3  N1  <0> d           2.334   1.400  -0.013  0.00  0.00    -0.289 N 
ATOM      4  C3  <0> d           3.629   1.820  -0.023  0.00  0.00     0.124 A 
ATOM      5  C4  <0> d           4.410   0.704  -0.037  0.00  0.00     0.047 A 
ATOM      6  N2  <0> d           3.617  -0.370  -0.035  0.00  0.00    -0.238 NA
ATOM      7  C5  <0> d           2.354   0.021  -0.020  0.00  0.00     0.152 A 
ATOM      8  C6  <0> d           1.130  -0.674  -0.012  0.00  0.00     0.046 A 
ATOM      9  N3  <0> d           0.002  -0.004   0.002  0.00  0.00    -0.268 NA
ATOM     10  H1  <0> d          -0.965   1.849   0.026  0.00  0.00     0.116 H 
ATOM     11  H2  <0> d           1.090   3.128   0.008  0.00  0.00     0.114 H 
ATOM     12  H3  <0> d           5.489   0.691  -0.048  0.00  0.00     0.120 H 
ATOM     13  H4  <0> d           1.119  -1.754  -0.018  0.00  0.00     0.120 H 
ENDROOT
BRANCH   4  14
ATOM     14  N4  <0> d           4.073   3.144  -0.021  0.00  0.00    -0.384 N 
ATOM     15  H5  <0> d           3.430   3.871  -0.010  0.00  0.00     0.157 HD
ATOM     16  H6  <0> d           5.023   3.337  -0.029  0.00  0.00     0.157 HD
ENDBRANCH   4  14
TORSDOF 1
