REMARK  3 active torsions:
REMARK  status: ('A' for Active; 'I' for Inactive)
REMARK    1  A    between atoms: C1_1  and  C2_2 
REMARK    2  A    between atoms: C6_6  and  N1_8 
REMARK       I    between atoms: N1_8  and  C8_9 
REMARK    3  A    between atoms: C8_9  and  C9_11 
ROOT
ATOM      1  C2  <0> d           0.165  -0.017  -0.011  0.00  0.00    -0.060 A 
ATOM      2  C3  <0> d          -0.010  -0.695  -1.203  0.00  0.00    -0.077 A 
ATOM      3  C4  <0> d          -0.164  -2.069  -1.205  0.00  0.00    -0.080 A 
ATOM      4  C5  <0> d          -0.143  -2.769  -0.014  0.00  0.00    -0.057 A 
ATOM      5  C6  <0> d           0.032  -2.091   1.185  0.00  0.00     0.035 A 
ATOM      6  C7  <0> d           0.191  -0.711   1.183  0.00  0.00    -0.051 A 
ATOM      7  H4  <0> d          -0.026  -0.149  -2.136  0.00  0.00     0.084 H 
ATOM      8  H5  <0> d          -0.300  -2.595  -2.138  0.00  0.00     0.083 H 
ATOM      9  H6  <0> d          -0.264  -3.842  -0.016  0.00  0.00     0.086 H 
ATOM     10  H7  <0> d           0.332  -0.182   2.113  0.00  0.00     0.087 H 
ENDROOT
BRANCH   5  11
ATOM     11  N1  <0> d           0.052  -2.797   2.393  0.00  0.00    -0.328 N 
ATOM     12  C8  <0> d           0.563  -4.044   2.436  0.00  0.00     0.218 C 
ATOM     13  O1  <0> d           1.091  -4.518   1.452  0.00  0.00    -0.274 OA
ATOM     14  H8  <0> d          -0.301  -2.390   3.199  0.00  0.00     0.169 HD
BRANCH  12  15
ATOM     15  C9  <0> d           0.477  -4.849   3.707  0.00  0.00    -0.003 C 
ATOM     16  H9  <0> d          -0.569  -4.984   3.982  0.00  0.00     0.040 H 
ATOM     17  H10 <0> d           0.940  -5.824   3.551  0.00  0.00     0.040 H 
ATOM     18  H11 <0> d           0.999  -4.323   4.506  0.00  0.00     0.040 H 
ENDBRANCH  12  15
ENDBRANCH   5  11
BRANCH   1  19
ATOM     19  C1  <0> d           0.333   1.481  -0.014  0.00  0.00    -0.051 C 
ATOM     20  H1  <0> d           1.391   1.728  -0.103  0.00  0.00     0.033 H 
ATOM     21  H2  <0> d          -0.212   1.906  -0.856  0.00  0.00     0.033 H 
ATOM     22  H3  <0> d          -0.059   1.892   0.917  0.00  0.00     0.033 H 
ENDBRANCH   1  19
TORSDOF 3
