REMARK  7 active torsions:
REMARK  status: ('A' for Active; 'I' for Inactive)
REMARK    1  A    between atoms: C1_1  and  C2_2 
REMARK    2  A    between atoms: C2_2  and  O2_4 
REMARK    3  A    between atoms: O2_4  and  C3_5 
REMARK    4  A    between atoms: C3_5  and  C4_6 
REMARK    5  A    between atoms: C4_6  and  C5_8 
REMARK    6  A    between atoms: C4_6  and  O4_10 
REMARK    7  A    between atoms: C5_8  and  O3_9 
ROOT
ATOM      1  C3  <0> d           1.305  -0.646  -0.014  0.00  0.00     0.054 C 
ATOM      2  H5  <0> d           1.849  -0.340  -0.907  0.00  0.00     0.079 H 
ATOM      3  H6  <0> d           1.866  -0.350   0.872  0.00  0.00     0.079 H 
ENDROOT
BRANCH   1   4
ATOM      4  O2  <0> d           0.002  -0.004   0.002  0.00  0.00    -0.319 OA
BRANCH   4   5
ATOM      5  C2  <0> d          -0.016   1.338   0.009  0.00  0.00     0.254 C 
ATOM      6  O1  <0> d           1.022   1.956   0.003  0.00  0.00    -0.266 OA
BRANCH   5   7
ATOM      7  C1  <0> d          -1.331   2.074   0.020  0.00  0.00     0.004 C 
ATOM      8  H2  <0> d          -2.150   1.354   0.020  0.00  0.00     0.041 H 
ATOM      9  H3  <0> d          -1.393   2.695   0.913  0.00  0.00     0.041 H 
ATOM     10  H4  <0> d          -1.402   2.704  -0.867  0.00  0.00     0.041 H 
ENDBRANCH   5   7
ENDBRANCH   4   5
ENDBRANCH   1   4
BRANCH   1  11
ATOM     11  C4  <0> d           1.125  -2.165  -0.020  0.00  0.00     0.076 C 
ATOM     12  H1  <0> d           0.505  -2.461   0.826  0.00  0.00     0.089 H 
BRANCH  11  13
ATOM     13  C5  <0> d           2.493  -2.841   0.089  0.00  0.00     0.042 C 
ATOM     14  H7  <0> d           3.081  -2.616  -0.801  0.00  0.00     0.078 H 
ATOM     15  H8  <0> d           3.013  -2.469   0.971  0.00  0.00     0.078 H 
BRANCH  13  16
ATOM     16  O3  <0> d           2.318  -4.255   0.200  0.00  0.00    -0.398 OA
ATOM     17  H9  <0> d           3.146  -4.749   0.273  0.00  0.00     0.209 HD
ENDBRANCH  13  16
ENDBRANCH  11  13
BRANCH  11  18
ATOM     18  O4  <0> d           0.492  -2.564  -1.238  0.00  0.00    -0.391 OA
ATOM     19  H10 <0> d           0.989  -2.333  -2.034  0.00  0.00     0.210 HD
ENDBRANCH  11  18
ENDBRANCH   1  11
TORSDOF 7
