REMARK  2 active torsions:
REMARK  status: ('A' for Active; 'I' for Inactive)
REMARK    1  A    between atoms: C1_1  and  C2_2 
REMARK    2  A    between atoms: C6_7  and  C7_8 
ROOT
ATOM      1  C2  <0> d          -0.224  -0.027   0.035  0.00  0.00     0.022 A 
ATOM      2  C3  <0> d          -0.324  -0.742  -1.190  0.00  0.00     0.181 A 
ATOM      3  C4  <0> d          -0.060  -2.129  -1.186  0.00  0.00    -0.019 A 
ATOM      4  C5  <0> d           0.278  -2.740  -0.025  0.00  0.00    -0.019 A 
ATOM      5  N1  <0> d           0.366  -2.044   1.124  0.00  0.00    -0.360 N 
ATOM      6  C6  <0> d           0.125  -0.699   1.165  0.00  0.00     0.119 A 
ATOM      7  O3  <0> d          -0.631  -0.168  -2.224  0.00  0.00    -0.288 OA
ATOM      8  H4  <0> d          -0.128  -2.698  -2.101  0.00  0.00     0.091 H 
ATOM      9  H5  <0> d           0.479  -3.801  -0.021  0.00  0.00     0.111 H 
ATOM     10  H6  <0> d           0.609  -2.506   1.941  0.00  0.00     0.165 HD
ENDROOT
BRANCH   1  11
ATOM     11  C1  <0> d          -0.496   1.455   0.080  0.00  0.00    -0.045 C 
ATOM     12  H1  <0> d           0.445   1.999  -0.002  0.00  0.00     0.033 H 
ATOM     13  H2  <0> d          -1.148   1.730  -0.749  0.00  0.00     0.033 H 
ATOM     14  H3  <0> d          -0.981   1.707   1.023  0.00  0.00     0.033 H 
ENDBRANCH   1  11
BRANCH   6  15
ATOM     15  C7  <0> d           0.238   0.029   2.448  0.00  0.00     0.227 C 
ATOM     16  O1  <0> d           0.131   1.247   2.472  0.00  0.00    -0.643 OA
ATOM     17  O2  <0> d           0.441  -0.586   3.485  0.00  0.00    -0.643 OA
ENDBRANCH   6  15
TORSDOF 2
