REMARK  7 active torsions:
REMARK  status: ('A' for Active; 'I' for Inactive)
REMARK    1  A    between atoms: C1_1  and  C2_2 
REMARK    2  A    between atoms: C2_2  and  C3_3 
REMARK    3  A    between atoms: C2_2  and  C4_4 
REMARK    4  A    between atoms: C2_2  and  C8_8 
REMARK    5  A    between atoms: C4_4  and  C5_5 
REMARK    6  A    between atoms: C5_5  and  C6_6 
REMARK    7  A    between atoms: C8_8  and  O1_9 
ROOT
ATOM      1  C2  <0> d           0.002  -0.004   0.002  0.00  0.00    -0.026 C 
ENDROOT
BRANCH   1   2
ATOM      2  C1  <0> d          -0.019   1.526   0.010  0.00  0.00    -0.067 C 
ATOM      3  H1  <0> d           1.004   1.903   0.003  0.00  0.00     0.028 H 
ATOM      4  H2  <0> d          -0.546   1.887  -0.873  0.00  0.00     0.028 H 
ATOM      5  H3  <0> d          -0.529   1.877   0.907  0.00  0.00     0.028 H 
ENDBRANCH   1   2
BRANCH   1   6
ATOM      6  C3  <0> d           0.742  -0.511   1.242  0.00  0.00    -0.067 C 
ATOM      7  H4  <0> d           0.232  -0.159   2.138  0.00  0.00     0.028 H 
ATOM      8  H5  <0> d           0.757  -1.601   1.236  0.00  0.00     0.028 H 
ATOM      9  H6  <0> d           1.765  -0.134   1.234  0.00  0.00     0.028 H 
ENDBRANCH   1   6
BRANCH   1  10
ATOM     10  C4  <0> d          -1.433  -0.534   0.013  0.00  0.00    -0.054 C 
ATOM     11  H7  <0> d          -1.960  -0.173  -0.870  0.00  0.00     0.034 H 
ATOM     12  H8  <0> d          -1.419  -1.623   0.007  0.00  0.00     0.034 H 
BRANCH  10  13
ATOM     13  C5  <0> d          -2.149  -0.040   1.272  0.00  0.00    -0.050 C 
ATOM     14  H9  <0> d          -1.622  -0.401   2.155  0.00  0.00     0.038 H 
ATOM     15  H10 <0> d          -2.164   1.050   1.278  0.00  0.00     0.038 H 
BRANCH  13  16
ATOM     16  C6  <0> d          -3.563  -0.562   1.282  0.00  0.00    -0.112 C 
ATOM     17  C7  <0> d          -4.002  -1.244   2.311  0.00  0.00    -0.125 C 
ATOM     18  H12 <0> d          -3.350  -1.432   3.152  0.00  0.00     0.066 H 
ATOM     19  H13 <0> d          -5.015  -1.618   2.319  0.00  0.00     0.066 H 
ATOM     20  H11 <0> d          -4.215  -0.373   0.442  0.00  0.00     0.075 H 
ENDBRANCH  13  16
ENDBRANCH  10  13
ENDBRANCH   1  10
BRANCH   1  21
ATOM     21  C8  <0> d           0.718  -0.497  -1.257  0.00  0.00     0.023 C 
ATOM     22  H14 <0> d           0.733  -1.587  -1.263  0.00  0.00     0.075 H 
ATOM     23  H15 <0> d           0.191  -0.136  -2.140  0.00  0.00     0.075 H 
BRANCH  21  24
ATOM     24  O1  <0> d           2.059  -0.003  -1.267  0.00  0.00    -0.400 OA
ATOM     25  H16 <0> d           2.573  -0.277  -2.038  0.00  0.00     0.209 HD
ENDBRANCH  21  24
ENDBRANCH   1  21
TORSDOF 7
