REMARK  3 active torsions:
REMARK  status: ('A' for Active; 'I' for Inactive)
REMARK    1  A    between atoms: C3_3  and  C7_9 
REMARK    2  A    between atoms: C4_4  and  O1_8 
REMARK    3  A    between atoms: C5_5  and  N1_7 
ROOT
ATOM      1  C1  <0> d           0.002  -0.004   0.002  0.00  0.00    -0.080 A 
ATOM      2  C2  <0> d          -0.017   1.373   0.010  0.00  0.00    -0.064 A 
ATOM      3  C3  <0> d           1.185   2.090   0.002  0.00  0.00     0.076 A 
ATOM      4  C4  <0> d           2.403   1.400  -0.013  0.00  0.00     0.108 A 
ATOM      5  C5  <0> d           2.406   0.007  -0.021  0.00  0.00     0.060 A 
ATOM      6  C6  <0> d           1.206  -0.688  -0.013  0.00  0.00    -0.055 A 
ATOM      7  H1  <0> d          -0.928  -0.554   0.008  0.00  0.00     0.083 H 
ATOM      8  H2  <0> d          -0.959   1.901   0.017  0.00  0.00     0.085 H 
ATOM      9  H3  <0> d           1.211  -1.768  -0.019  0.00  0.00     0.087 H 
ENDROOT
BRANCH   3  10
ATOM     10  C7  <0> d           1.168   3.564   0.010  0.00  0.00     0.212 C 
ATOM     11  O2  <0> d           2.213   4.183   0.003  0.00  0.00    -0.644 OA
ATOM     12  O3  <0> d          -0.006   4.224   0.024  0.00  0.00    -0.644 OA
ENDBRANCH   3  10
BRANCH   4  13
ATOM     13  O1  <0> d           3.575   2.085  -0.021  0.00  0.00    -0.357 OA
ATOM     14  H6  <0> d           3.906   2.288  -0.906  0.00  0.00     0.217 HD
ENDBRANCH   4  13
BRANCH   5  15
ATOM     15  N1  <0> d           3.619  -0.691  -0.035  0.00  0.00    -0.397 N 
ATOM     16  H4  <0> d           3.621  -1.661  -0.040  0.00  0.00     0.156 HD
ATOM     17  H5  <0> d           4.458  -0.204  -0.040  0.00  0.00     0.156 HD
ENDBRANCH   5  15
TORSDOF 3
