REMARK  0 active torsions:
REMARK  status: ('A' for Active; 'I' for Inactive)
ROOT
ATOM      1  C1  <0> d           1.197  -0.702  -0.013  0.00  0.00    -0.046 A 
ATOM      2  C2  <0> d           0.002  -0.004   0.002  0.00  0.00     0.005 A 
ATOM      3  N1  <0> d          -0.016   1.311   0.009  0.00  0.00    -0.250 NA
ATOM      4  C3  <0> d           1.101   2.030   0.002  0.00  0.00     0.137 A 
ATOM      5  C4  <0> d           2.347   1.406  -0.013  0.00  0.00    -0.025 A 
ATOM      6  C5  <0> d           2.402   0.009  -0.020  0.00  0.00     0.049 A 
ATOM      7  C6  <0> d           3.659  -0.677  -0.036  0.00  0.00     0.099 C 
ATOM      8  N2  <0> d           4.657  -1.221  -0.049  0.00  0.00    -0.191 NA
ATOM      9  C7  <0> d           1.025   3.459   0.010  0.00  0.00     0.119 C 
ATOM     10  N3  <0> d           0.964   4.594   0.017  0.00  0.00    -0.190 NA
ATOM     11  H1  <0> d           1.199  -1.782  -0.018  0.00  0.00     0.088 H 
ATOM     12  H2  <0> d          -0.931  -0.548   0.008  0.00  0.00     0.114 H 
ATOM     13  H3  <0> d           3.254   1.992  -0.018  0.00  0.00     0.090 H 
ENDROOT
TORSDOF 0
