REMARK  0 active torsions:
REMARK  status: ('A' for Active; 'I' for Inactive)
ROOT
ATOM      1  C1  <0> d          -1.298   3.533   0.037  0.00  0.00    -0.082 A 
ATOM      2  C2  <0> d          -0.129   4.272   0.033  0.00  0.00    -0.080 A 
ATOM      3  C3  <0> d           1.092   3.631   0.016  0.00  0.00    -0.050 A 
ATOM      4  C4  <0> d           1.153   2.241   0.003  0.00  0.00     0.075 A 
ATOM      5  C5  <0> d          -0.018   1.504   0.010  0.00  0.00    -0.025 A 
ATOM      6  C6  <0> d          -1.241   2.153   0.031  0.00  0.00    -0.074 A 
ATOM      7  C7  <0> d           0.002  -0.004   0.002  0.00  0.00    -0.036 C 
ATOM      8  C8  <0> d           1.378  -0.498  -0.452  0.00  0.00    -0.041 C 
ATOM      9  C9  <0> d           2.449   0.264   0.338  0.00  0.00     0.026 C 
ATOM     10  O1  <0> d           2.373   1.645  -0.018  0.00  0.00    -0.351 OA
ATOM     11  H1  <0> d          -2.254   4.035   0.049  0.00  0.00     0.083 H 
ATOM     12  H2  <0> d          -0.172   5.351   0.042  0.00  0.00     0.083 H 
ATOM     13  H3  <0> d           2.004   4.209   0.012  0.00  0.00     0.087 H 
ATOM     14  H4  <0> d          -2.155   1.578   0.039  0.00  0.00     0.084 H 
ATOM     15  H5  <0> d          -0.203  -0.375   1.006  0.00  0.00     0.040 H 
ATOM     16  H6  <0> d          -0.761  -0.373  -0.683  0.00  0.00     0.040 H 
ATOM     17  H7  <0> d           1.467  -1.567  -0.256  0.00  0.00     0.036 H 
ATOM     18  H8  <0> d           1.503  -0.308  -1.518  0.00  0.00     0.036 H 
ATOM     19  H9  <0> d           2.267   0.150   1.407  0.00  0.00     0.075 H 
ATOM     20  H10 <0> d           3.436  -0.126   0.089  0.00  0.00     0.075 H 
ENDROOT
TORSDOF 0
