REMARK  1 active torsions:
REMARK  status: ('A' for Active; 'I' for Inactive)
REMARK    1  A    between atoms: C7_9  and  C8_10 
ROOT
ATOM      1  C1  <0> d          -1.201   3.034   0.907  0.00  0.00    -0.065 C 
ATOM      2  C2  <0> d           0.073   3.217   1.741  0.00  0.00    -0.065 C 
ATOM      3  C3  <0> d           1.283   3.060   0.821  0.00  0.00    -0.060 C 
ATOM      4  C4  <0> d           1.212   1.726   0.081  0.00  0.00    -0.036 A 
ATOM      5  H1  <0> d           2.110   1.111   0.138  0.00  0.00     0.042 H 
ATOM      6  C5  <0> d          -0.116   1.005  -0.085  0.00  0.00    -0.036 A 
ATOM      7  H2  <0> d          -0.064  -0.083  -0.144  0.00  0.00     0.042 H 
ATOM      8  C6  <0> d          -1.365   1.543   0.597  0.00  0.00    -0.060 C 
ATOM      9  C7  <0> d           0.473   1.765  -1.266  0.00  0.00     0.038 A 
ATOM     10  H3  <0> d          -2.063   3.385   1.475  0.00  0.00     0.033 H 
ATOM     11  H4  <0> d          -1.116   3.599  -0.021  0.00  0.00     0.033 H 
ATOM     12  H5  <0> d           0.109   2.461   2.525  0.00  0.00     0.033 H 
ATOM     13  H6  <0> d           0.080   4.211   2.189  0.00  0.00     0.033 H 
ATOM     14  H7  <0> d           2.196   3.095   1.416  0.00  0.00     0.033 H 
ATOM     15  H8  <0> d           1.293   3.875   0.097  0.00  0.00     0.033 H 
ATOM     16  H9  <0> d          -2.217   1.432  -0.074  0.00  0.00     0.033 H 
ATOM     17  H10 <0> d          -1.549   0.976   1.509  0.00  0.00     0.033 H 
ATOM     18  H11 <0> d           0.888   1.179  -2.086  0.00  0.00     0.057 H 
ENDROOT
BRANCH   9  19
ATOM     19  C8  <0> d          -0.189   3.061  -1.660  0.00  0.00     0.177 C 
ATOM     20  O1  <0> d           0.451   4.086  -1.673  0.00  0.00    -0.648 OA
ATOM     21  O2  <0> d          -1.488   3.075  -1.998  0.00  0.00    -0.648 OA
ENDBRANCH   9  19
TORSDOF 1
