REMARK  1 active torsions:
REMARK  status: ('A' for Active; 'I' for Inactive)
REMARK    1  A    between atoms: C8_9  and  O1_11 
ROOT
ATOM      1  C1  <0> d          -0.013   1.076   0.008  0.00  0.00    -0.065 A 
ATOM      2  C2  <0> d           1.172   1.796   0.001  0.00  0.00    -0.071 A 
ATOM      3  C3  <0> d           1.106   3.181   0.008  0.00  0.00    -0.005 A 
ATOM      4  C4  <0> d          -0.129   3.800   0.022  0.00  0.00     0.043 A 
ATOM      5  N1  <0> d          -1.237   3.078   0.030  0.00  0.00    -0.265 NA
ATOM      6  C5  <0> d          -1.212   1.761   0.017  0.00  0.00     0.003 A 
ATOM      7  C6  <0> d           0.056   5.304   0.027  0.00  0.00    -0.022 C 
ATOM      8  C7  <0> d           1.522   5.529   0.455  0.00  0.00    -0.032 C 
ATOM      9  C8  <0> d           2.204   4.221   0.003  0.00  0.00     0.063 C 
ATOM     10  H1  <0> d           2.729   4.287  -0.962  0.00  0.00     0.090 H 
ATOM     11  H2  <0> d           0.002  -0.004   0.002  0.00  0.00     0.085 H 
ATOM     12  H3  <0> d           2.126   1.289  -0.011  0.00  0.00     0.084 H 
ATOM     13  H4  <0> d          -2.141   1.210   0.019  0.00  0.00     0.114 H 
ATOM     14  H5  <0> d          -0.136   5.700  -0.981  0.00  0.00     0.042 H 
ATOM     15  H6  <0> d          -0.647   5.758   0.741  0.00  0.00     0.042 H 
ATOM     16  H7  <0> d           1.920   6.418  -0.057  0.00  0.00     0.037 H 
ATOM     17  H8  <0> d           1.567   5.682   1.543  0.00  0.00     0.037 H 
ENDROOT
BRANCH   9  18
ATOM     18  O1  <0> d           3.236   3.856   0.921  0.00  0.00    -0.391 OA
ATOM     19  H9  <0> d           4.117   4.505   1.045  0.00  0.00     0.210 HD
ENDBRANCH   9  18
TORSDOF 1
