REMARK  3 active torsions:
REMARK  status: ('A' for Active; 'I' for Inactive)
REMARK    1  A    between atoms: C1_1  and  C2_2 
REMARK    2  A    between atoms: C2_2  and  C3_3 
REMARK    3  A    between atoms: C3_3  and  C4_5 
ROOT
ATOM      1  C4  <0> d          -1.661  -1.976   0.007  0.00  0.00     0.030 A 
ATOM      2  C5  <0> d          -0.591  -2.873  -0.014  0.00  0.00    -0.068 A 
ATOM      3  C6  <0> d          -0.832  -4.232  -0.015  0.00  0.00    -0.082 A 
ATOM      4  C7  <0> d          -2.129  -4.716  -0.004  0.00  0.00    -0.082 A 
ATOM      5  C8  <0> d          -3.201  -3.845   0.011  0.00  0.00    -0.062 A 
ATOM      6  C9  <0> d          -2.982  -2.469   0.017  0.00  0.00     0.058 A 
ATOM      7  C10 <0> d          -4.090  -1.562   0.033  0.00  0.00     0.100 C 
ATOM      8  N1  <0> d          -4.969  -0.843   0.045  0.00  0.00    -0.191 NA
ATOM      9  H6  <0> d           0.423  -2.503  -0.026  0.00  0.00     0.085 H 
ATOM     10  H7  <0> d          -0.002  -4.923  -0.028  0.00  0.00     0.083 H 
ATOM     11  H8  <0> d          -2.304  -5.781  -0.009  0.00  0.00     0.083 H 
ATOM     12  H9  <0> d          -4.210  -4.231   0.019  0.00  0.00     0.085 H 
ENDROOT
BRANCH   1  13
ATOM     13  C3  <0> d          -1.412  -0.526   0.013  0.00  0.00     0.160 C 
ATOM     14  O1  <0> d          -2.344   0.250   0.026  0.00  0.00    -0.292 OA
BRANCH  13  15
ATOM     15  C2  <0> d           0.002  -0.004   0.002  0.00  0.00    -0.008 C 
ATOM     16  H4  <0> d           0.470  -0.327  -0.821  0.00  0.00     0.044 H 
ATOM     17  H5  <0> d           0.529  -0.365   0.885  0.00  0.00     0.044 H 
BRANCH  15  18
ATOM     18  C1  <0> d          -0.019   1.526   0.010  0.00  0.00    -0.070 C 
ATOM     19  H1  <0> d           1.004   1.903   0.003  0.00  0.00     0.028 H 
ATOM     20  H2  <0> d          -0.546   1.887  -0.873  0.00  0.00     0.028 H 
ATOM     21  H3  <0> d          -0.529   1.877   0.907  0.00  0.00     0.028 H 
ENDBRANCH  15  18
ENDBRANCH  13  15
ENDBRANCH   1  13
TORSDOF 3
