REMARK  3 active torsions:
REMARK  status: ('A' for Active; 'I' for Inactive)
REMARK    1  A    between atoms: C1_1  and  C2_2 
REMARK    2  A    between atoms: C2_2  and  C3_4 
REMARK    3  A    between atoms: C2_2  and  C7_9 
ROOT
ATOM      1  C2  <0> d           2.565  -1.514  -0.030  0.00  0.00     0.059 C 
ATOM      2  H1  <0> d           3.638  -1.273  -0.025  0.00  0.00     0.064 H 
ENDROOT
BRANCH   1   3
ATOM      3  C1  <0> d           2.207  -2.320  -1.280  0.00  0.00    -0.059 C 
ATOM      4  H2  <0> d           2.785  -3.256  -1.291  0.00  0.00     0.029 H 
ATOM      5  H3  <0> d           2.448  -1.731  -2.178  0.00  0.00     0.029 H 
ATOM      6  H4  <0> d           1.132  -2.553  -1.272  0.00  0.00     0.029 H 
ENDBRANCH   1   3
BRANCH   1   7
ATOM      7  C3  <0> d           1.773  -0.232  -0.016  0.00  0.00    -0.004 A 
ATOM      8  S1  <0> d           0.002  -0.004   0.002  0.00  0.00    -0.106 SA
ATOM      9  C6  <0> d          -0.022   1.781   0.012  0.00  0.00    -0.044 A 
ATOM     10  C5  <0> d           1.300   2.079   0.001  0.00  0.00    -0.076 A 
ATOM     11  H7  <0> d          -0.870   2.450   0.020  0.00  0.00     0.095 H 
ATOM     12  C4  <0> d           2.220   1.048  -0.013  0.00  0.00    -0.069 A 
ATOM     13  H6  <0> d           1.630   3.108   0.003  0.00  0.00     0.084 H 
ATOM     14  H5  <0> d           3.279   1.258  -0.022  0.00  0.00     0.085 H 
ENDBRANCH   1   7
BRANCH   1  15
ATOM     15  C7  <0> d           2.236  -2.321   1.199  0.00  0.00     0.181 C 
ATOM     16  O1  <0> d           1.440  -1.899   2.004  0.00  0.00    -0.647 OA
ATOM     17  O2  <0> d           2.827  -3.509   1.400  0.00  0.00    -0.647 OA
ENDBRANCH   1  15
TORSDOF 3
