REMARK  3 active torsions:
REMARK  status: ('A' for Active; 'I' for Inactive)
REMARK    1  A    between atoms: C1_1  and  C2_2 
REMARK    2  A    between atoms: C2_2  and  C3_4 
REMARK    3  A    between atoms: C8_10  and  O2_12 
ROOT
ATOM      1  C3  <0> d          -1.293  -0.775   0.010  0.00  0.00     0.048 C 
ATOM      2  H1  <0> d          -2.040  -0.234  -0.570  0.00  0.00     0.062 H 
ATOM      3  C4  <0> d          -1.774  -0.929   1.429  0.00  0.00    -0.089 C 
ATOM      4  C5  <0> d          -2.571  -1.940   1.758  0.00  0.00    -0.086 C 
ATOM      5  C6  <0> d          -2.979  -2.913   0.732  0.00  0.00    -0.084 C 
ATOM      6  C7  <0> d          -2.277  -3.020  -0.392  0.00  0.00    -0.075 C 
ATOM      7  C8  <0> d          -1.067  -2.152  -0.613  0.00  0.00     0.065 C 
ATOM      8  H2  <0> d          -0.893  -2.042  -1.683  0.00  0.00     0.090 H 
ATOM      9  H6  <0> d          -1.472  -0.215   2.180  0.00  0.00     0.078 H 
ATOM     10  H7  <0> d          -2.917  -2.048   2.775  0.00  0.00     0.083 H 
ATOM     11  H8  <0> d          -3.845  -3.538   0.891  0.00  0.00     0.083 H 
ATOM     12  H9  <0> d          -2.576  -3.732  -1.147  0.00  0.00     0.080 H 
ENDROOT
BRANCH   1  13
ATOM     13  C2  <0> d           0.002  -0.004   0.002  0.00  0.00     0.133 C 
ATOM     14  O1  <0> d           1.056  -0.594  -0.011  0.00  0.00    -0.298 OA
BRANCH  13  15
ATOM     15  C1  <0> d          -0.018   1.503   0.010  0.00  0.00    -0.020 C 
ATOM     16  H3  <0> d           1.004   1.880   0.003  0.00  0.00     0.037 H 
ATOM     17  H4  <0> d          -0.545   1.864  -0.873  0.00  0.00     0.037 H 
ATOM     18  H5  <0> d          -0.529   1.854   0.907  0.00  0.00     0.037 H 
ENDBRANCH  13  15
ENDBRANCH   1  13
BRANCH   7  19
ATOM     19  O2  <0> d           0.074  -2.765  -0.009  0.00  0.00    -0.391 OA
ATOM     20  H10 <0> d           0.278  -3.644  -0.356  0.00  0.00     0.210 HD
ENDBRANCH   7  19
TORSDOF 3
