REMARK  8 active torsions:
REMARK  status: ('A' for Active; 'I' for Inactive)
REMARK    1  A    between atoms: C1_1  and  C2_2 
REMARK    2  A    between atoms: C2_2  and  C3_3 
REMARK    3  A    between atoms: C3_3  and  C4_4 
REMARK    4  A    between atoms: C4_4  and  O2_6 
REMARK    5  A    between atoms: O2_6  and  C5_7 
REMARK    6  A    between atoms: C5_7  and  C6_8 
REMARK    7  A    between atoms: C5_7  and  C7_9 
REMARK    8  A    between atoms: C5_7  and  C8_10 
ROOT
ATOM      1  O2  <0> d           1.139   1.891   0.001  0.00  0.00    -0.311 OA
ENDROOT
BRANCH   1   2
ATOM      2  C4  <0> d          -0.014   1.204   0.009  0.00  0.00     0.259 C 
ATOM      3  O1  <0> d           0.002  -0.004   0.002  0.00  0.00    -0.265 OA
BRANCH   2   4
ATOM      4  C3  <0> d          -1.329   1.940   0.019  0.00  0.00     0.015 C 
ATOM      5  H6  <0> d          -1.391   2.561   0.913  0.00  0.00     0.048 H 
ATOM      6  H7  <0> d          -1.400   2.570  -0.867  0.00  0.00     0.048 H 
BRANCH   4   7
ATOM      7  C2  <0> d          -2.479   0.930   0.019  0.00  0.00    -0.060 C 
ATOM      8  H4  <0> d          -2.417   0.309  -0.875  0.00  0.00     0.033 H 
ATOM      9  H5  <0> d          -2.408   0.299   0.905  0.00  0.00     0.033 H 
BRANCH   7  10
ATOM     10  C1  <0> d          -3.814   1.677   0.029  0.00  0.00    -0.076 C 
ATOM     11  H1  <0> d          -3.876   2.298   0.923  0.00  0.00     0.027 H 
ATOM     12  H2  <0> d          -3.885   2.307  -0.857  0.00  0.00     0.027 H 
ATOM     13  H3  <0> d          -4.633   0.957   0.029  0.00  0.00     0.027 H 
ENDBRANCH   7  10
ENDBRANCH   4   7
ENDBRANCH   2   4
ENDBRANCH   1   2
BRANCH   1  14
ATOM     14  C5  <0> d           2.367   1.117  -0.015  0.00  0.00     0.060 C 
BRANCH  14  15
ATOM     15  C6  <0> d           2.402   0.241  -1.269  0.00  0.00    -0.048 C 
ATOM     16  H8  <0> d           2.360   0.875  -2.155  0.00  0.00     0.031 H 
ATOM     17  H9  <0> d           3.324  -0.340  -1.281  0.00  0.00     0.031 H 
ATOM     18  H10 <0> d           1.547  -0.434  -1.264  0.00  0.00     0.031 H 
ENDBRANCH  14  15
BRANCH  14  19
ATOM     19  C7  <0> d           3.568   2.065  -0.021  0.00  0.00    -0.048 C 
ATOM     20  H11 <0> d           3.543   2.689   0.873  0.00  0.00     0.031 H 
ATOM     21  H12 <0> d           4.490   1.484  -0.033  0.00  0.00     0.031 H 
ATOM     22  H13 <0> d           3.526   2.698  -0.907  0.00  0.00     0.031 H 
ENDBRANCH  14  19
BRANCH  14  23
ATOM     23  C8  <0> d           2.426   0.228   1.229  0.00  0.00    -0.048 C 
ATOM     24  H14 <0> d           1.571  -0.448   1.234  0.00  0.00     0.031 H 
ATOM     25  H15 <0> d           3.348  -0.353   1.218  0.00  0.00     0.031 H 
ATOM     26  H16 <0> d           2.401   0.852   2.123  0.00  0.00     0.031 H 
ENDBRANCH  14  23
ENDBRANCH   1  14
TORSDOF 8
