REMARK  3 active torsions:
REMARK  status: ('A' for Active; 'I' for Inactive)
REMARK    1  A    between atoms: C1_1  and  C2_2 
REMARK    2  A    between atoms: C2_2  and  C3_3 
REMARK    3  A    between atoms: C3_3  and  C4_4 
ROOT
ATOM      1  C4  <0> d           0.002  -0.004   0.002  0.00  0.00    -0.091 C 
ATOM      2  C5  <0> d           0.018  -1.178  -0.004  0.00  0.00     0.013 C 
ATOM      3  C6  <0> d           0.037  -2.555  -0.012  0.00  0.00     0.152 C 
ATOM      4  N1  <0> d           0.052  -3.691  -0.018  0.00  0.00    -0.182 NA
ENDROOT
BRANCH   1   5
ATOM      5  C3  <0> d          -0.018   1.468   0.010  0.00  0.00    -0.009 C 
ATOM      6  H6  <0> d           1.005   1.845   0.002  0.00  0.00     0.051 H 
ATOM      7  H7  <0> d          -0.545   1.829  -0.873  0.00  0.00     0.051 H 
BRANCH   5   8
ATOM      8  C2  <0> d          -0.734   1.961   1.269  0.00  0.00    -0.059 C 
ATOM      9  H4  <0> d          -1.757   1.584   1.277  0.00  0.00     0.033 H 
ATOM     10  H5  <0> d          -0.207   1.600   2.152  0.00  0.00     0.033 H 
BRANCH   8  11
ATOM     11  C1  <0> d          -0.755   3.491   1.277  0.00  0.00    -0.076 C 
ATOM     12  H1  <0> d           0.268   3.868   1.270  0.00  0.00     0.027 H 
ATOM     13  H2  <0> d          -1.282   3.852   0.394  0.00  0.00     0.027 H 
ATOM     14  H3  <0> d          -1.265   3.843   2.174  0.00  0.00     0.027 H 
ENDBRANCH   8  11
ENDBRANCH   5   8
ENDBRANCH   1   5
TORSDOF 3
