REMARK  5 active torsions:
REMARK  status: ('A' for Active; 'I' for Inactive)
REMARK    1  A    between atoms: C1_1  and  C2_2 
REMARK    2  A    between atoms: C2_2  and  C3_4 
REMARK    3  A    between atoms: C2_2  and  O2_6 
REMARK    4  A    between atoms: C3_4  and  O1_5 
REMARK    5  A    between atoms: O2_6  and  C4_7 
ROOT
ATOM      1  C2  <0> d          -0.019   1.526   0.010  0.00  0.00     0.054 C 
ATOM      2  H1  <0> d           1.004   1.903   0.003  0.00  0.00     0.086 H 
ENDROOT
BRANCH   1   3
ATOM      3  C1  <0> d          -0.759   2.033  -1.229  0.00  0.00    -0.050 C 
ATOM      4  H2  <0> d          -0.773   3.123  -1.223  0.00  0.00     0.031 H 
ATOM      5  H3  <0> d          -0.248   1.681  -2.126  0.00  0.00     0.031 H 
ATOM      6  H4  <0> d          -1.781   1.655  -1.221  0.00  0.00     0.031 H 
ENDBRANCH   1   3
BRANCH   1   7
ATOM      7  C3  <0> d           0.002  -0.004   0.002  0.00  0.00     0.040 C 
ATOM      8  H5  <0> d           0.588  -0.355  -0.847  0.00  0.00     0.077 H 
ATOM      9  H6  <0> d           0.450  -0.366   0.927  0.00  0.00     0.077 H 
BRANCH   7  10
ATOM     10  O1  <0> d          -1.335  -0.498  -0.105  0.00  0.00    -0.398 OA
ATOM     11  H7  <0> d          -1.398  -1.463  -0.117  0.00  0.00     0.209 HD
ENDBRANCH   7  10
ENDBRANCH   1   7
BRANCH   1  12
ATOM     12  O2  <0> d          -0.688   1.987   1.186  0.00  0.00    -0.389 OA
BRANCH  12  13
ATOM     13  C4  <0> d          -0.220   3.250   1.663  0.00  0.00     0.005 C 
ATOM     14  H8  <0> d           0.840   3.178   1.904  0.00  0.00     0.066 H 
ATOM     15  H9  <0> d          -0.367   4.006   0.892  0.00  0.00     0.066 H 
ATOM     16  H10 <0> d          -0.778   3.530   2.557  0.00  0.00     0.066 H 
ENDBRANCH  12  13
ENDBRANCH   1  12
TORSDOF 5
