REMARK  3 active torsions:
REMARK  status: ('A' for Active; 'I' for Inactive)
REMARK    1  A    between atoms: C1_1  and  C2_2 
REMARK    2  A    between atoms: C2_2  and  C3_3 
REMARK    3  A    between atoms: C3_3  and  C4_4 
ROOT
ATOM      1  C2  <0> d           0.002  -0.004   0.002  0.00  0.00    -0.059 C 
ATOM      2  H4  <0> d           0.512  -0.356  -0.895  0.00  0.00     0.033 H 
ATOM      3  H5  <0> d           0.529  -0.365   0.885  0.00  0.00     0.033 H 
ENDROOT
BRANCH   1   4
ATOM      4  C1  <0> d          -0.019   1.526   0.010  0.00  0.00    -0.076 C 
ATOM      5  H1  <0> d           1.004   1.903   0.003  0.00  0.00     0.027 H 
ATOM      6  H2  <0> d          -0.546   1.887  -0.873  0.00  0.00     0.027 H 
ATOM      7  H3  <0> d          -0.529   1.877   0.907  0.00  0.00     0.027 H 
ENDBRANCH   1   4
BRANCH   1   8
ATOM      8  C3  <0> d          -1.433  -0.534   0.013  0.00  0.00     0.015 C 
ATOM      9  H6  <0> d          -1.944  -0.182   0.910  0.00  0.00     0.049 H 
ATOM     10  H7  <0> d          -1.960  -0.173  -0.870  0.00  0.00     0.049 H 
BRANCH   8  11
ATOM     11  C4  <0> d          -1.413  -2.041   0.005  0.00  0.00     0.172 C 
ATOM     12  O1  <0> d          -0.349  -2.636  -0.009  0.00  0.00    -0.648 OA
ATOM     13  O2  <0> d          -2.460  -2.664   0.011  0.00  0.00    -0.648 OA
ENDBRANCH   8  11
ENDBRANCH   1   8
TORSDOF 3
