REMARK  4 active torsions:
REMARK  status: ('A' for Active; 'I' for Inactive)
REMARK    1  A    between atoms: C1_1  and  C2_2 
REMARK    2  A    between atoms: C4_5  and  C7_12 
REMARK    3  A    between atoms: C5_8  and  C6_10 
REMARK    4  A    between atoms: C6_10  and  O3_11 
ROOT
ATOM      1  C2  <0> d           1.889  -0.403   1.266  0.00  0.00     0.040 C 
ATOM      2  H1  <0> d           2.309  -0.803   2.201  0.00  0.00     0.083 H 
ATOM      3  C3  <0> d           1.901   1.129   1.254  0.00  0.00    -0.017 C 
ATOM      4  C4  <0> d           1.117   1.621   0.033  0.00  0.00     0.040 C 
ATOM      5  H2  <0> d           0.967   2.710   0.059  0.00  0.00     0.083 H 
ATOM      6  O1  <0> d          -0.190   1.038   0.054  0.00  0.00    -0.354 OA
ATOM      7  C5  <0> d          -0.183  -0.392   0.064  0.00  0.00     0.152 C 
ATOM      8  O2  <0> d           0.533  -0.858   1.210  0.00  0.00    -0.354 OA
ATOM      9  H6  <0> d           1.432   1.507   2.175  0.00  0.00     0.040 H 
ATOM     10  H7  <0> d           2.940   1.487   1.198  0.00  0.00     0.040 H 
ATOM     11  H8  <0> d           0.364  -0.727  -0.830  0.00  0.00     0.132 H 
ENDROOT
BRANCH   7  12
ATOM     12  C6  <0> d          -1.622  -0.908   0.117  0.00  0.00     0.062 C 
ATOM     13  H9  <0> d          -2.174  -0.550  -0.765  0.00  0.00     0.081 H 
ATOM     14  H10 <0> d          -1.617  -2.008   0.124  0.00  0.00     0.081 H 
BRANCH  12  15
ATOM     15  O3  <0> d          -2.257  -0.427   1.304  0.00  0.00    -0.396 OA
ATOM     16  H11 <0> d          -3.302  -0.697   1.516  0.00  0.00     0.209 HD
ENDBRANCH  12  15
ENDBRANCH   7  12
BRANCH   4  17
ATOM     17  C7  <0> d           1.844   1.200  -1.246  0.00  0.00    -0.052 C 
ATOM     18  H12 <0> d           1.279   1.554  -2.122  0.00  0.00     0.030 H 
ATOM     19  H13 <0> d           1.923   0.104  -1.280  0.00  0.00     0.030 H 
ATOM     20  H14 <0> d           2.851   1.641  -1.257  0.00  0.00     0.030 H 
ENDBRANCH   4  17
BRANCH   1  21
ATOM     21  C1  <0> d           2.658  -0.933   0.054  0.00  0.00    -0.052 C 
ATOM     22  H3  <0> d           3.700  -0.583   0.099  0.00  0.00     0.030 H 
ATOM     23  H4  <0> d           2.187  -0.565  -0.869  0.00  0.00     0.030 H 
ATOM     24  H5  <0> d           2.640  -2.033   0.061  0.00  0.00     0.030 H 
ENDBRANCH   1  21
TORSDOF 4
