REMARK  1 active torsions:
REMARK  status: ('A' for Active; 'I' for Inactive)
REMARK    1  A    between atoms: C2_2  and  C5_7 
ROOT
ATOM      1  C1  <0> d          -0.013   1.076   0.008  0.00  0.00     0.019 A 
ATOM      2  C2  <0> d           1.173   1.794   0.001  0.00  0.00     0.082 A 
ATOM      3  C3  <0> d           1.104   3.179   0.009  0.00  0.00     0.019 A 
ATOM      4  N1  <0> d          -0.082   3.764   0.023  0.00  0.00    -0.253 NA
ATOM      5  C4  <0> d          -1.189   3.049   0.030  0.00  0.00     0.085 A 
ATOM      6  N2  <0> d          -1.162   1.731   0.017  0.00  0.00    -0.253 NA
ATOM      7  H1  <0> d           0.002  -0.004   0.002  0.00  0.00     0.116 H 
ATOM      8  H2  <0> d           2.007   3.771   0.003  0.00  0.00     0.116 H 
ATOM      9  H3  <0> d          -2.143   3.555   0.042  0.00  0.00     0.146 H 
ENDROOT
BRANCH   2  10
ATOM     10  C5  <0> d           2.503   1.087  -0.016  0.00  0.00     0.420 C 
ATOM     11  F1  <0> d           2.903   0.875  -1.339  0.00  0.00    -0.166 F 
ATOM     12  F2  <0> d           3.457   1.874   0.639  0.00  0.00    -0.166 F 
ATOM     13  F3  <0> d           2.386  -0.143   0.639  0.00  0.00    -0.166 F 
ENDBRANCH   2  10
TORSDOF 1
