REMARK  6 active torsions:
REMARK  status: ('A' for Active; 'I' for Inactive)
REMARK    1  A    between atoms: C2_2  and  C3_3 
REMARK    2  A    between atoms: C3_3  and  O1_4 
REMARK    3  A    between atoms: O1_4  and  C4_5 
REMARK    4  A    between atoms: C4_5  and  C5_7 
REMARK    5  A    between atoms: C5_7  and  C6_8 
REMARK    6  A    between atoms: C6_8  and  C7_9 
ROOT
ATOM      1  C4  <0> d          -3.794   1.665   0.029  0.00  0.00     0.259 C 
ATOM      2  O2  <0> d          -3.810   2.874   0.036  0.00  0.00    -0.265 OA
ENDROOT
BRANCH   1   3
ATOM      3  O1  <0> d          -4.947   0.979   0.031  0.00  0.00    -0.318 OA
BRANCH   3   4
ATOM      4  C3  <0> d          -6.176   1.753   0.041  0.00  0.00     0.043 C 
ATOM      5  H4  <0> d          -6.205   2.376   0.934  0.00  0.00     0.081 H 
ATOM      6  H5  <0> d          -6.213   2.386  -0.846  0.00  0.00     0.081 H 
BRANCH   4   7
ATOM      7  C2  <0> d          -7.358   0.819   0.041  0.00  0.00    -0.089 C 
ATOM      8  C1  <0> d          -8.366   1.038   0.850  0.00  0.00    -0.123 C 
ATOM      9  H1  <0> d          -8.349   1.888   1.516  0.00  0.00     0.066 H 
ATOM     10  H2  <0> d          -9.213   0.368   0.850  0.00  0.00     0.066 H 
ATOM     11  H3  <0> d          -7.375  -0.032  -0.625  0.00  0.00     0.078 H 
ENDBRANCH   4   7
ENDBRANCH   3   4
ENDBRANCH   1   3
BRANCH   1  12
ATOM     12  C5  <0> d          -2.479   0.930   0.019  0.00  0.00     0.025 C 
ATOM     13  H6  <0> d          -2.417   0.309  -0.875  0.00  0.00     0.048 H 
ATOM     14  H7  <0> d          -2.408   0.299   0.905  0.00  0.00     0.048 H 
BRANCH  12  15
ATOM     15  C6  <0> d          -1.329   1.940   0.019  0.00  0.00     0.024 C 
ATOM     16  H8  <0> d          -1.391   2.561   0.913  0.00  0.00     0.049 H 
ATOM     17  H9  <0> d          -1.400   2.570  -0.867  0.00  0.00     0.049 H 
BRANCH  15  18
ATOM     18  C7  <0> d          -0.014   1.204   0.009  0.00  0.00     0.172 C 
ATOM     19  O3  <0> d           0.002  -0.004   0.002  0.00  0.00    -0.648 OA
ATOM     20  O4  <0> d           1.139   1.891   0.001  0.00  0.00    -0.648 OA
ENDBRANCH  15  18
ENDBRANCH  12  15
ENDBRANCH   1  12
TORSDOF 6
