REMARK  2 active torsions:
REMARK  status: ('A' for Active; 'I' for Inactive)
REMARK    1  A    between atoms: C3_3  and  C6_8 
REMARK    2  A    between atoms: C6_8  and  O2_9 
ROOT
ATOM      1  C1  <0> d          -0.017   1.398   0.010  0.00  0.00    -0.076 A 
ATOM      2  C2  <0> d           0.002  -0.004   0.002  0.00  0.00    -0.059 A 
ATOM      3  C3  <0> d          -1.161  -0.696   0.009  0.00  0.00     0.035 A 
ATOM      4  N1  <0> d          -2.354  -0.046   0.024  0.00  0.00    -0.325 N 
ATOM      5  C4  <0> d          -2.405   1.299   0.032  0.00  0.00     0.245 A 
ATOM      6  C5  <0> d          -1.216   2.048   0.030  0.00  0.00    -0.017 A 
ATOM      7  O1  <0> d          -3.484   1.869   0.044  0.00  0.00    -0.268 OA
ATOM      8  H1  <0> d           0.907   1.956   0.004  0.00  0.00     0.083 H 
ATOM      9  H2  <0> d           0.944  -0.532  -0.010  0.00  0.00     0.086 H 
ATOM     10  H3  <0> d          -1.251   3.128   0.037  0.00  0.00     0.092 H 
ATOM     11  H4  <0> d          -3.178  -0.558   0.029  0.00  0.00     0.169 HD
ENDROOT
BRANCH   3  12
ATOM     12  C6  <0> d          -1.133  -2.202   0.001  0.00  0.00     0.054 C 
ATOM     13  H5  <0> d          -1.724  -2.572  -0.838  0.00  0.00     0.083 H 
ATOM     14  H6  <0> d          -0.104  -2.546  -0.101  0.00  0.00     0.083 H 
BRANCH  12  15
ATOM     15  O2  <0> d          -1.681  -2.696   1.224  0.00  0.00    -0.395 OA
ATOM     16  H7  <0> d          -1.695  -3.661   1.288  0.00  0.00     0.209 HD
ENDBRANCH  12  15
ENDBRANCH   3  12
TORSDOF 2
