REMARK  3 active torsions:
REMARK  status: ('A' for Active; 'I' for Inactive)
REMARK    1  A    between atoms: C1_1  and  C2_2 
REMARK    2  A    between atoms: C5_6  and  C6_7 
REMARK    3  A    between atoms: C6_7  and  C7_9 
ROOT
ATOM      1  C7  <0> d          -0.865   5.720   0.041  0.00  0.00     0.076 C 
ATOM      2  C8  <0> d          -1.911   6.755   0.056  0.00  0.00     0.067 C 
ATOM      3  N1  <0> d          -2.719   7.554   0.067  0.00  0.00    -0.197 NA
ATOM      4  H6  <0> d          -0.231   5.827   0.934  0.00  0.00     0.067 H 
ATOM      5  H7  <0> d          -0.248   5.836  -0.863  0.00  0.00     0.067 H 
ENDROOT
BRANCH   1   6
ATOM      6  C6  <0> d          -1.506   4.357   0.039  0.00  0.00     0.196 C 
ATOM      7  O2  <0> d          -2.717   4.255   0.050  0.00  0.00    -0.289 OA
BRANCH   6   8
ATOM      8  C5  <0> d          -0.700   3.196   0.026  0.00  0.00     0.127 A 
ATOM      9  C2  <0> d          -1.152   1.892   0.017  0.00  0.00    -0.023 A 
ATOM     10  C3  <0> d          -0.013   1.076   0.008  0.00  0.00    -0.053 A 
ATOM     11  C4  <0> d           1.065   1.893   0.002  0.00  0.00     0.020 A 
ATOM     12  H4  <0> d           0.002  -0.004   0.002  0.00  0.00     0.087 H 
ATOM     13  O1  <0> d           0.650   3.165   0.013  0.00  0.00    -0.318 OA
ATOM     14  H5  <0> d           2.096   1.571  -0.010  0.00  0.00     0.123 H 
BRANCH   9  15
ATOM     15  C1  <0> d          -2.588   1.435   0.021  0.00  0.00    -0.048 C 
ATOM     16  H1  <0> d          -2.623   0.335   0.011  0.00  0.00     0.033 H 
ATOM     17  H2  <0> d          -3.099   1.825  -0.872  0.00  0.00     0.033 H 
ATOM     18  H3  <0> d          -3.090   1.810   0.924  0.00  0.00     0.033 H 
ENDBRANCH   9  15
ENDBRANCH   6   8
ENDBRANCH   1   6
TORSDOF 3
