REMARK  6 active torsions:
REMARK  status: ('A' for Active; 'I' for Inactive)
REMARK    1  A    between atoms: C1_1  and  C2_2 
REMARK    2  A    between atoms: C3_3  and  C6_9 
REMARK    3  A    between atoms: C4_4  and  C5_8 
REMARK    4  A    between atoms: C6_9  and  C7_10 
REMARK    5  A    between atoms: C7_10  and  O1_11 
REMARK    6  A    between atoms: O1_11  and  C8_12 
ROOT
ATOM      1  C2  <0> d           0.002  -0.004   0.002  0.00  0.00     0.032 A 
ATOM      2  C3  <0> d          -0.016   1.349   0.009  0.00  0.00    -0.006 A 
ATOM      3  C4  <0> d           1.308   1.797  -0.001  0.00  0.00     0.059 A 
ATOM      4  N1  <0> d           2.094   0.751  -0.014  0.00  0.00    -0.179 NA
ATOM      5  N2  <0> d           1.293  -0.398  -0.012  0.00  0.00    -0.282 N 
ATOM      6  H1  <0> d           1.619  -1.343  -0.021  0.00  0.00     0.189 HD
ENDROOT
BRANCH   2   7
ATOM      7  C6  <0> d          -1.247   2.219   0.020  0.00  0.00    -0.017 C 
ATOM      8  H8  <0> d          -1.032   3.158  -0.489  0.00  0.00     0.043 H 
ATOM      9  H9  <0> d          -2.060   1.705  -0.492  0.00  0.00     0.043 H 
BRANCH   7  10
ATOM     10  C7  <0> d          -1.656   2.506   1.466  0.00  0.00     0.023 C 
ATOM     11  H10 <0> d          -1.871   1.566   1.976  0.00  0.00     0.074 H 
ATOM     12  H11 <0> d          -0.843   3.020   1.979  0.00  0.00     0.074 H 
BRANCH  10  13
ATOM     13  O1  <0> d          -2.823   3.330   1.477  0.00  0.00    -0.396 OA
BRANCH  13  14
ATOM     14  C8  <0> d          -3.291   3.659   2.786  0.00  0.00     0.004 C 
ATOM     15  H12 <0> d          -4.178   4.287   2.708  0.00  0.00     0.066 H 
ATOM     16  H13 <0> d          -3.539   2.744   3.324  0.00  0.00     0.066 H 
ATOM     17  H14 <0> d          -2.512   4.197   3.326  0.00  0.00     0.066 H 
ENDBRANCH  13  14
ENDBRANCH  10  13
ENDBRANCH   7  10
ENDBRANCH   2   7
BRANCH   1  18
ATOM     18  C1  <0> d          -1.203  -0.909   0.009  0.00  0.00    -0.035 C 
ATOM     19  H2  <0> d          -1.504  -1.122  -1.017  0.00  0.00     0.035 H 
ATOM     20  H3  <0> d          -0.954  -1.842   0.515  0.00  0.00     0.035 H 
ATOM     21  H4  <0> d          -2.023  -0.418   0.534  0.00  0.00     0.035 H 
ENDBRANCH   1  18
BRANCH   3  22
ATOM     22  C5  <0> d           1.754   3.237   0.003  0.00  0.00    -0.033 C 
ATOM     23  H5  <0> d           1.871   3.579   1.031  0.00  0.00     0.035 H 
ATOM     24  H6  <0> d           2.707   3.324  -0.520  0.00  0.00     0.035 H 
ATOM     25  H7  <0> d           1.007   3.850  -0.501  0.00  0.00     0.035 H 
ENDBRANCH   3  22
TORSDOF 6
