REMARK  4 active torsions:
REMARK  status: ('A' for Active; 'I' for Inactive)
REMARK    1  A    between atoms: C1_1  and  C2_2 
REMARK    2  A    between atoms: C2_2  and  C3_4 
REMARK    3  A    between atoms: C6_9  and  C8_11 
REMARK    4  A    between atoms: C6_9  and  C9_12 
ROOT
ATOM      1  C3  <0> d           0.002  -0.004   0.002  0.00  0.00     0.008 C 
ATOM      2  H1  <0> d           0.427  -0.329  -0.843  0.00  0.00     0.051 H 
ATOM      3  C4  <0> d          -0.019   1.528   0.010  0.00  0.00    -0.035 C 
ATOM      4  C5  <0> d           1.420   2.050  -0.001  0.00  0.00     0.021 C 
ATOM      5  O2  <0> d           2.124   1.527   1.128  0.00  0.00    -0.381 OA
ATOM      6  C6  <0> d           2.216   0.101   1.149  0.00  0.00     0.054 C 
ATOM      7  C7  <0> d           0.809  -0.499   1.206  0.00  0.00    -0.027 C 
ATOM      8  H5  <0> d          -0.544   1.890  -0.873  0.00  0.00     0.037 H 
ATOM      9  H6  <0> d          -0.527   1.880   0.908  0.00  0.00     0.037 H 
ATOM     10  H7  <0> d           1.916   1.731  -0.917  0.00  0.00     0.074 H 
ATOM     11  H8  <0> d           1.412   3.139   0.049  0.00  0.00     0.074 H 
ATOM     12  H9  <0> d           0.318  -0.188   2.127  0.00  0.00     0.038 H 
ATOM     13  H10 <0> d           0.875  -1.587   1.178  0.00  0.00     0.038 H 
ENDROOT
BRANCH   6  14
ATOM     14  C8  <0> d           3.010  -0.341   2.380  0.00  0.00    -0.048 C 
ATOM     15  H11 <0> d           3.080  -1.429   2.396  0.00  0.00     0.031 H 
ATOM     16  H12 <0> d           4.012   0.087   2.339  0.00  0.00     0.031 H 
ATOM     17  H13 <0> d           2.504   0.004   3.281  0.00  0.00     0.031 H 
ENDBRANCH   6  14
BRANCH   6  18
ATOM     18  C9  <0> d           2.927  -0.383  -0.117  0.00  0.00    -0.048 C 
ATOM     19  H14 <0> d           2.361  -0.067  -0.994  0.00  0.00     0.031 H 
ATOM     20  H15 <0> d           3.929   0.045  -0.158  0.00  0.00     0.031 H 
ATOM     21  H16 <0> d           2.996  -1.470  -0.102  0.00  0.00     0.031 H 
ENDBRANCH   6  18
BRANCH   1  22
ATOM     22  C2  <0> d          -1.408  -0.528   0.089  0.00  0.00     0.127 C 
ATOM     23  O1  <0> d          -1.908  -0.743   1.167  0.00  0.00    -0.298 OA
BRANCH  22  24
ATOM     24  C1  <0> d          -2.196  -0.784  -1.171  0.00  0.00    -0.021 C 
ATOM     25  H2  <0> d          -2.043  -1.724  -1.474  0.00  0.00     0.037 H 
ATOM     26  H3  <0> d          -3.257  -0.633  -0.972  0.00  0.00     0.037 H 
ATOM     27  H4  <0> d          -1.870  -0.094  -1.949  0.00  0.00     0.037 H 
ENDBRANCH  22  24
ENDBRANCH   1  22
TORSDOF 4
