REMARK  3 active torsions:
REMARK  status: ('A' for Active; 'I' for Inactive)
REMARK    1  A    between atoms: C1_1  and  C2_2 
REMARK    2  A    between atoms: C2_2  and  C3_4 
REMARK    3  A    between atoms: C8_9  and  O2_10 
ROOT
ATOM      1  C3  <0> d           1.190   1.794   0.000  0.00  0.00     0.043 A 
ATOM      2  C4  <0> d          -0.013   1.076   0.008  0.00  0.00    -0.064 A 
ATOM      3  C5  <0> d          -1.212   1.748   0.017  0.00  0.00    -0.045 A 
ATOM      4  C6  <0> d          -1.238   3.137   0.030  0.00  0.00     0.119 A 
ATOM      5  C7  <0> d          -0.057   3.859   0.022  0.00  0.00    -0.013 A 
ATOM      6  C8  <0> d           1.161   3.199   0.008  0.00  0.00     0.082 A 
ATOM      7  F1  <0> d          -2.422   3.787   0.044  0.00  0.00    -0.206 F 
ATOM      8  H4  <0> d           0.002  -0.004   0.002  0.00  0.00     0.085 H 
ATOM      9  H5  <0> d          -2.139   1.194   0.019  0.00  0.00     0.088 H 
ATOM     10  H6  <0> d          -0.085   4.939   0.028  0.00  0.00     0.092 H 
ENDROOT
BRANCH   1  11
ATOM     11  C2  <0> d           2.473   1.083  -0.016  0.00  0.00     0.158 C 
ATOM     12  O1  <0> d           3.513   1.709  -0.022  0.00  0.00    -0.293 OA
BRANCH  11  13
ATOM     13  C1  <0> d           2.500  -0.423  -0.024  0.00  0.00    -0.017 C 
ATOM     14  H1  <0> d           1.563  -0.773  -0.017  0.00  0.00     0.038 H 
ATOM     15  H2  <0> d           3.012  -0.773  -0.921  0.00  0.00     0.038 H 
ATOM     16  H3  <0> d           3.029  -0.782   0.859  0.00  0.00     0.038 H 
ENDBRANCH  11  13
ENDBRANCH   1  11
BRANCH   6  17
ATOM     17  O2  <0> d           2.318   3.905   0.001  0.00  0.00    -0.360 OA
ATOM     18  H7  <0> d           2.646   4.114  -0.884  0.00  0.00     0.217 HD
ENDBRANCH   6  17
TORSDOF 3
