REMARK  3 active torsions:
REMARK  status: ('A' for Active; 'I' for Inactive)
REMARK    1  A    between atoms: C1_1  and  C2_2 
REMARK    2  A    between atoms: C7_8  and  O1_10 
REMARK    3  A    between atoms: O1_10  and  C8_11 
ROOT
ATOM      1  C8  <0> d          -0.209   2.009  -3.529  0.00  0.00     0.098 C 
ATOM      2  C9  <0> d           0.513   1.440  -4.679  0.00  0.00     0.085 C 
ATOM      3  N1  <0> d           1.070   1.002  -5.566  0.00  0.00    -0.195 NA
ATOM      4  H14 <0> d          -1.272   2.126  -3.785  0.00  0.00     0.097 H 
ATOM      5  H15 <0> d           0.217   2.990  -3.276  0.00  0.00     0.097 H 
ENDROOT
BRANCH   1   6
ATOM      6  O1  <0> d          -0.084   1.132  -2.407  0.00  0.00    -0.372 OA
BRANCH   6   7
ATOM      7  C7  <0> d          -0.753   1.593  -1.232  0.00  0.00     0.043 C 
ATOM      8  C2  <0> d          -0.013   1.086   0.008  0.00  0.00    -0.032 C 
ATOM      9  H1  <0> d           0.002  -0.014   0.002  0.00  0.00     0.043 H 
ATOM     10  C3  <0> d          -0.729   1.579   1.267  0.00  0.00    -0.060 C 
ATOM     11  C4  <0> d          -2.164   1.050   1.278  0.00  0.00    -0.065 C 
ATOM     12  H6  <0> d          -0.197   1.215   2.158  0.00  0.00     0.033 H 
ATOM     13  H7  <0> d          -0.744   2.679   1.273  0.00  0.00     0.033 H 
ATOM     14  C5  <0> d          -2.904   1.556   0.038  0.00  0.00    -0.063 C 
ATOM     15  H8  <0> d          -2.149  -0.050   1.272  0.00  0.00     0.033 H 
ATOM     16  H9  <0> d          -2.679   1.405   2.183  0.00  0.00     0.033 H 
ATOM     17  C6  <0> d          -2.188   1.063  -1.221  0.00  0.00    -0.040 C 
ATOM     18  H10 <0> d          -3.936   1.176   0.046  0.00  0.00     0.033 H 
ATOM     19  H11 <0> d          -2.919   2.656   0.044  0.00  0.00     0.033 H 
ATOM     20  H12 <0> d          -2.173  -0.037  -1.227  0.00  0.00     0.036 H 
ATOM     21  H13 <0> d          -2.720   1.427  -2.112  0.00  0.00     0.036 H 
ATOM     22  H2  <0> d          -0.733   2.691  -1.286  0.00  0.00     0.083 H 
BRANCH   8  23
ATOM     23  C1  <0> d           1.423   1.615  -0.003  0.00  0.00    -0.071 C 
ATOM     24  H3  <0> d           1.955   1.251   0.888  0.00  0.00     0.028 H 
ATOM     25  H4  <0> d           1.408   2.715   0.003  0.00  0.00     0.028 H 
ATOM     26  H5  <0> d           1.938   1.261  -0.908  0.00  0.00     0.028 H 
ENDBRANCH   8  23
ENDBRANCH   6   7
ENDBRANCH   1   6
TORSDOF 3
