REMARK  2 active torsions:
REMARK  status: ('A' for Active; 'I' for Inactive)
REMARK    1  A    between atoms: C2_2  and  C3_3 
REMARK    2  A    between atoms: C6_6  and  N1_9 
ROOT
ATOM      1  C1  <0> d           1.154   4.693   0.015  0.00  0.00    -0.149 C 
ATOM      2  C2  <0> d           1.168   3.519   0.009  0.00  0.00    -0.078 C 
ATOM      3  H1  <0> d           1.143   5.742   0.021  0.00  0.00     0.166 H 
ENDROOT
BRANCH   2   4
ATOM      4  C3  <0> d           1.184   2.087   0.002  0.00  0.00     0.017 A 
ATOM      5  C8  <0> d           2.400   1.401  -0.013  0.00  0.00    -0.063 A 
ATOM      6  C7  <0> d           2.412   0.023  -0.021  0.00  0.00    -0.056 A 
ATOM      7  H5  <0> d           3.330   1.950  -0.019  0.00  0.00     0.085 H 
ATOM      8  C6  <0> d           1.215  -0.684  -0.014  0.00  0.00     0.025 A 
ATOM      9  H4  <0> d           3.352  -0.508  -0.034  0.00  0.00     0.086 H 
ATOM     10  C5  <0> d           0.002  -0.004   0.002  0.00  0.00    -0.056 A 
ATOM     11  C4  <0> d          -0.017   1.374   0.010  0.00  0.00    -0.063 A 
ATOM     12  H3  <0> d          -0.926  -0.556   0.008  0.00  0.00     0.086 H 
ATOM     13  H2  <0> d          -0.959   1.902   0.017  0.00  0.00     0.085 H 
BRANCH   8  14
ATOM     14  N1  <0> d           1.230  -2.079  -0.021  0.00  0.00    -0.399 N 
ATOM     15  H6  <0> d           0.396  -2.574  -0.016  0.00  0.00     0.156 HD
ATOM     16  H7  <0> d           2.076  -2.555  -0.032  0.00  0.00     0.156 HD
ENDBRANCH   8  14
ENDBRANCH   2   4
TORSDOF 2
