REMARK  2 active torsions:
REMARK  status: ('A' for Active; 'I' for Inactive)
REMARK    1  A    between atoms: C3_3  and  N3_10 
REMARK    2  A    between atoms: C4_6  and  C5_7 
ROOT
ATOM      1  C1  <0> d          -3.243   0.399  -0.724  0.00  0.00    -0.053 A 
ATOM      2  C2  <0> d          -4.153  -0.396  -1.401  0.00  0.00    -0.035 A 
ATOM      3  C3  <0> d          -3.923  -0.646  -2.753  0.00  0.00     0.143 A 
ATOM      4  N1  <0> d          -2.860  -0.120  -3.346  0.00  0.00    -0.132 NA
ATOM      5  N2  <0> d          -2.023   0.619  -2.713  0.00  0.00    -0.153 NA
ATOM      6  C4  <0> d          -2.164   0.907  -1.435  0.00  0.00     0.061 A 
ATOM      7  H1  <0> d          -3.370   0.621   0.326  0.00  0.00     0.086 H 
ATOM      8  H2  <0> d          -5.013  -0.813  -0.896  0.00  0.00     0.089 H 
ENDROOT
BRANCH   6   9
ATOM      9  C5  <0> d          -1.150   1.781  -0.743  0.00  0.00    -0.010 A 
ATOM     10  C7  <0> d          -1.136   1.773   0.788  0.00  0.00    -0.056 A 
ATOM     11  C6  <0> d          -0.013   1.086   0.008  0.00  0.00    -0.056 A 
ATOM     12  H6  <0> d          -1.859   1.135   1.295  0.00  0.00     0.034 H 
ATOM     13  H7  <0> d          -0.897   2.708   1.294  0.00  0.00     0.034 H 
ATOM     14  H4  <0> d           0.002  -0.004   0.002  0.00  0.00     0.034 H 
ATOM     15  H5  <0> d           0.964   1.569   0.001  0.00  0.00     0.034 H 
ATOM     16  H3  <0> d          -0.922   2.722  -1.243  0.00  0.00     0.049 H 
ENDBRANCH   6   9
BRANCH   3  17
ATOM     17  N3  <0> d          -4.804  -1.442  -3.477  0.00  0.00    -0.383 N 
ATOM     18  H8  <0> d          -4.641  -1.613  -4.418  0.00  0.00     0.157 HD
ATOM     19  H9  <0> d          -5.581  -1.825  -3.041  0.00  0.00     0.157 HD
ENDBRANCH   3  17
TORSDOF 2
