REMARK  4 active torsions:
REMARK  status: ('A' for Active; 'I' for Inactive)
REMARK    1  A    between atoms: C1_1  and  C2_2 
REMARK    2  A    between atoms: C5_6  and  C9_12 
REMARK    3  A    between atoms: C6_8  and  C8_11 
REMARK    4  A    between atoms: C9_12  and  O1_13 
ROOT
ATOM      1  C2  <0> d          -3.551  -2.186  -1.157  0.00  0.00    -0.057 C 
ATOM      2  H1  <0> d          -3.014  -2.609  -2.007  0.00  0.00     0.039 H 
ATOM      3  C3  <0> d          -3.571  -0.661  -1.275  0.00  0.00    -0.062 C 
ATOM      4  C4  <0> d          -2.135  -0.131  -1.286  0.00  0.00    -0.059 C 
ATOM      5  C5  <0> d          -1.433  -0.534   0.013  0.00  0.00    -0.030 C 
ATOM      6  H2  <0> d          -1.970  -0.111   0.862  0.00  0.00     0.043 H 
ATOM      7  C6  <0> d          -1.413  -2.059   0.130  0.00  0.00    -0.052 C 
ATOM      8  H3  <0> d          -0.913  -2.346   1.055  0.00  0.00     0.040 H 
ATOM      9  C7  <0> d          -2.849  -2.589   0.141  0.00  0.00    -0.059 C 
ATOM     10  H7  <0> d          -4.107  -0.238  -0.426  0.00  0.00     0.033 H 
ATOM     11  H8  <0> d          -4.071  -0.374  -2.200  0.00  0.00     0.033 H 
ATOM     12  H9  <0> d          -2.150   0.956  -1.369  0.00  0.00     0.033 H 
ATOM     13  H10 <0> d          -1.598  -0.554  -2.135  0.00  0.00     0.033 H 
ATOM     14  H11 <0> d          -3.385  -2.166   0.990  0.00  0.00     0.034 H 
ATOM     15  H12 <0> d          -2.834  -3.675   0.225  0.00  0.00     0.034 H 
ENDROOT
BRANCH   5  16
ATOM     16  C9  <0> d           0.002  -0.004   0.002  0.00  0.00     0.020 C 
ATOM     17  H16 <0> d           0.512  -0.356  -0.895  0.00  0.00     0.074 H 
ATOM     18  H17 <0> d           0.529  -0.365   0.885  0.00  0.00     0.074 H 
BRANCH  16  19
ATOM     19  O1  <0> d          -0.017   1.425   0.010  0.00  0.00    -0.400 OA
ATOM     20  H18 <0> d           0.861   1.830   0.004  0.00  0.00     0.209 HD
ENDBRANCH  16  19
ENDBRANCH   5  16
BRANCH   7  21
ATOM     21  C8  <0> d          -0.660  -2.652  -1.062  0.00  0.00    -0.072 C 
ATOM     22  H13 <0> d           0.363  -2.275  -1.070  0.00  0.00     0.028 H 
ATOM     23  H14 <0> d          -0.645  -3.739  -0.978  0.00  0.00     0.028 H 
ATOM     24  H15 <0> d          -1.160  -2.366  -1.987  0.00  0.00     0.028 H 
ENDBRANCH   7  21
BRANCH   1  25
ATOM     25  C1  <0> d          -4.986  -2.716  -1.147  0.00  0.00    -0.073 C 
ATOM     26  H4  <0> d          -5.486  -2.429  -2.072  0.00  0.00     0.028 H 
ATOM     27  H5  <0> d          -4.972  -3.802  -1.063  0.00  0.00     0.028 H 
ATOM     28  H6  <0> d          -5.523  -2.293  -0.297  0.00  0.00     0.028 H 
ENDBRANCH   1  25
TORSDOF 4
