REMARK  1 active torsions:
REMARK  status: ('A' for Active; 'I' for Inactive)
REMARK    1  A    between atoms: C4_6  and  N3_7 
ROOT
ATOM      1  C1  <0> d           2.335   1.357  -0.013  0.00  0.00    -0.033 A 
ATOM      2  C2  <0> d           2.349  -0.028  -0.021  0.00  0.00    -0.022 A 
ATOM      3  C3  <0> d           1.128  -0.693  -0.012  0.00  0.00     0.230 A 
ATOM      4  N1  <0> d           0.002  -0.004   0.002  0.00  0.00    -0.117 NA
ATOM      5  N2  <0> d          -0.015   1.279   0.009  0.00  0.00    -0.130 NA
ATOM      6  C4  <0> d           1.097   1.998   0.002  0.00  0.00     0.143 A 
ATOM      7  F1  <0> d           1.093  -2.044  -0.019  0.00  0.00    -0.182 F 
ATOM      8  H1  <0> d           3.255   1.923  -0.018  0.00  0.00     0.089 H 
ATOM      9  H2  <0> d           3.280  -0.575  -0.032  0.00  0.00     0.090 H 
ENDROOT
BRANCH   6  10
ATOM     10  N3  <0> d           1.030   3.389   0.010  0.00  0.00    -0.383 N 
ATOM     11  H3  <0> d           0.051   3.892   0.022  0.00  0.00     0.157 HD
ATOM     12  H4  <0> d           1.954   3.984   0.004  0.00  0.00     0.157 HD
ENDBRANCH   6  10
TORSDOF 1
