REMARK  5 active torsions:
REMARK  status: ('A' for Active; 'I' for Inactive)
REMARK    1  A    between atoms: C1_1  and  C2_2 
REMARK    2  A    between atoms: C2_2  and  C3_3 
REMARK    3  A    between atoms: C3_3  and  C4_5 
REMARK    4  A    between atoms: C3_3  and  C5_6 
REMARK    5  A    between atoms: C10_11  and  N1_12 
ROOT
ATOM      1  C5  <0> d          -0.863   3.519   1.186  0.00  0.00    -0.028 A 
ATOM      2  C6  <0> d           0.268   4.312   1.225  0.00  0.00    -0.074 A 
ATOM      3  C7  <0> d           0.149   5.689   1.206  0.00  0.00    -0.082 A 
ATOM      4  C8  <0> d          -1.101   6.278   1.157  0.00  0.00    -0.081 A 
ATOM      5  C9  <0> d          -2.236   5.492   1.123  0.00  0.00    -0.057 A 
ATOM      6  C10 <0> d          -2.120   4.107   1.137  0.00  0.00     0.032 A 
ATOM      7  H10 <0> d           1.246   3.856   1.268  0.00  0.00     0.084 H 
ATOM      8  H11 <0> d           1.035   6.307   1.233  0.00  0.00     0.083 H 
ATOM      9  H12 <0> d          -1.191   7.354   1.146  0.00  0.00     0.083 H 
ATOM     10  H13 <0> d          -3.212   5.952   1.086  0.00  0.00     0.086 H 
ENDROOT
BRANCH   1  11
ATOM     11  C3  <0> d          -0.732   2.018   1.202  0.00  0.00    -0.030 C 
ATOM     12  H1  <0> d          -1.723   1.567   1.249  0.00  0.00     0.046 H 
BRANCH  11  13
ATOM     13  C2  <0> d          -0.021   1.554  -0.070  0.00  0.00    -0.061 C 
ATOM     14  H5  <0> d           1.002   1.933  -0.074  0.00  0.00     0.033 H 
ATOM     15  H6  <0> d          -0.552   1.935  -0.943  0.00  0.00     0.033 H 
BRANCH  13  16
ATOM     16  C1  <0> d           0.002   0.025  -0.114  0.00  0.00    -0.076 C 
ATOM     17  H2  <0> d           0.508  -0.305  -1.021  0.00  0.00     0.027 H 
ATOM     18  H3  <0> d           0.533  -0.356   0.758  0.00  0.00     0.027 H 
ATOM     19  H4  <0> d          -1.021  -0.353  -0.111  0.00  0.00     0.027 H 
ENDBRANCH  13  16
ENDBRANCH  11  13
BRANCH  11  20
ATOM     20  C4  <0> d           0.081   1.590   2.426  0.00  0.00    -0.069 C 
ATOM     21  H7  <0> d           1.072   2.040   2.379  0.00  0.00     0.028 H 
ATOM     22  H8  <0> d          -0.426   1.920   3.332  0.00  0.00     0.028 H 
ATOM     23  H9  <0> d           0.175   0.504   2.437  0.00  0.00     0.028 H 
ENDBRANCH  11  20
ENDBRANCH   1  11
BRANCH   6  24
ATOM     24  N1  <0> d          -3.265   3.308   1.102  0.00  0.00    -0.399 N 
ATOM     25  H14 <0> d          -3.189   2.347   1.207  0.00  0.00     0.156 HD
ATOM     26  H15 <0> d          -4.136   3.715   0.973  0.00  0.00     0.156 HD
ENDBRANCH   6  24
TORSDOF 5
