REMARK  5 active torsions:
REMARK  status: ('A' for Active; 'I' for Inactive)
REMARK    1  A    between atoms: C1_1  and  C2_2 
REMARK    2  A    between atoms: C2_2  and  C3_3 
REMARK    3  A    between atoms: C3_3  and  C4_4 
REMARK    4  A    between atoms: C4_4  and  C5_6 
REMARK    5  A    between atoms: C4_4  and  C6_7 
ROOT
ATOM      1  C3  <0> d           2.696   3.548  -0.005  0.00  0.00    -0.053 C 
ATOM      2  H7  <0> d           3.181   3.236   0.920  0.00  0.00     0.034 H 
ATOM      3  H8  <0> d           3.210   3.097  -0.854  0.00  0.00     0.034 H 
ENDROOT
BRANCH   1   4
ATOM      4  C2  <0> d           2.756   5.072  -0.123  0.00  0.00    -0.068 C 
ATOM      5  H5  <0> d           2.271   5.384  -1.048  0.00  0.00     0.032 H 
ATOM      6  H6  <0> d           2.242   5.523   0.726  0.00  0.00     0.032 H 
BRANCH   4   7
ATOM      7  C1  <0> d           4.217   5.526  -0.134  0.00  0.00    -0.076 C 
ATOM      8  H2  <0> d           4.260   6.612  -0.218  0.00  0.00     0.027 H 
ATOM      9  H3  <0> d           4.702   5.214   0.791  0.00  0.00     0.027 H 
ATOM     10  H4  <0> d           4.731   5.075  -0.983  0.00  0.00     0.027 H 
ENDBRANCH   4   7
ENDBRANCH   1   4
BRANCH   1  11
ATOM     11  C4  <0> d           1.235   3.094   0.007  0.00  0.00     0.027 C 
ATOM     12  H1  <0> d           0.727   3.482  -0.876  0.00  0.00     0.056 H 
BRANCH  11  13
ATOM     13  C5  <0> d           0.546   3.625   1.266  0.00  0.00    -0.064 C 
ATOM     14  H9  <0> d           1.054   3.237   2.149  0.00  0.00     0.028 H 
ATOM     15  H10 <0> d           0.588   4.714   1.271  0.00  0.00     0.028 H 
ATOM     16  H11 <0> d          -0.495   3.302   1.274  0.00  0.00     0.028 H 
ENDBRANCH  11  13
BRANCH  11  17
ATOM     17  C6  <0> d           1.177   1.588  -0.001  0.00  0.00     0.176 C 
ATOM     18  O1  <0> d           2.199   0.944  -0.014  0.00  0.00    -0.648 OA
ATOM     19  O2  <0> d          -0.011   0.963   0.007  0.00  0.00    -0.648 OA
ENDBRANCH  11  17
ENDBRANCH   1  11
TORSDOF 5
