REMARK  1 active torsions:
REMARK  status: ('A' for Active; 'I' for Inactive)
REMARK    1  A    between atoms: C6_6  and  O1_7 
ROOT
ATOM      1  C1  <0> d           4.467   0.265  -0.040  0.00  0.00    -0.049 A 
ATOM      2  C2  <0> d           3.620   1.327  -0.026  0.00  0.00    -0.051 A 
ATOM      3  C3  <0> d           2.218   1.139  -0.013  0.00  0.00     0.074 A 
ATOM      4  C4  <0> d           1.768  -0.202  -0.016  0.00  0.00     0.037 A 
ATOM      5  C5  <0> d           2.628  -1.272  -0.030  0.00  0.00    -0.032 A 
ATOM      6  C6  <0> d           3.996  -1.045  -0.043  0.00  0.00     0.067 A 
ATOM      7  S1  <0> d           0.002  -0.004   0.002  0.00  0.00    -0.080 SA
ATOM      8  C7  <0> d          -0.022   1.783   0.012  0.00  0.00     0.041 A 
ATOM      9  N1  <0> d           1.249   2.079   0.001  0.00  0.00    -0.253 NA
ATOM     10  H1  <0> d           5.533   0.441  -0.050  0.00  0.00     0.087 H 
ATOM     11  H2  <0> d           4.022   2.330  -0.025  0.00  0.00     0.087 H 
ATOM     12  H3  <0> d           2.243  -2.281  -0.032  0.00  0.00     0.089 H 
ATOM     13  H5  <0> d          -0.873   2.449   0.020  0.00  0.00     0.126 H 
ENDROOT
BRANCH   6  14
ATOM     14  O1  <0> d           4.866  -2.089  -0.056  0.00  0.00    -0.361 OA
ATOM     15  H4  <0> d           5.109  -2.387  -0.944  0.00  0.00     0.217 HD
ENDBRANCH   6  14
TORSDOF 1
