REMARK  1 active torsions:
REMARK  status: ('A' for Active; 'I' for Inactive)
REMARK    1  A    between atoms: C1_1  and  C2_2 
ROOT
ATOM      1  C2  <0> d           2.342   1.413  -0.013  0.00  0.00    -0.043 A 
ATOM      2  C3  <0> d           2.425   0.045  -0.021  0.00  0.00    -0.061 A 
ATOM      3  C4  <0> d           1.234  -0.689  -0.013  0.00  0.00     0.031 A 
ATOM      4  C5  <0> d           0.915  -2.112  -0.018  0.00  0.00     0.035 A 
ATOM      5  N1  <0> d          -0.382  -2.227  -0.006  0.00  0.00    -0.185 NA
ATOM      6  N2  <0> d          -0.976  -0.961   0.006  0.00  0.00    -0.261 N 
ATOM      7  H1  <0> d          -1.960  -0.783   0.017  0.00  0.00     0.191 HD
ATOM      8  C6  <0> d           0.002  -0.004   0.002  0.00  0.00     0.155 A 
ATOM      9  N3  <0> d          -0.016   1.323   0.009  0.00  0.00    -0.241 NA
ATOM     10  C7  <0> d           1.097   2.025   0.003  0.00  0.00     0.010 A 
ATOM     11  H5  <0> d           3.384  -0.452  -0.033  0.00  0.00     0.086 H 
ATOM     12  H6  <0> d           1.626  -2.925  -0.029  0.00  0.00     0.118 H 
ATOM     13  H7  <0> d           1.039   3.103   0.008  0.00  0.00     0.115 H 
ENDROOT
BRANCH   1  14
ATOM     14  C1  <0> d           3.596   2.249  -0.022  0.00  0.00    -0.050 C 
ATOM     15  H2  <0> d           3.888   2.455  -1.052  0.00  0.00     0.033 H 
ATOM     16  H3  <0> d           3.410   3.188   0.499  0.00  0.00     0.033 H 
ATOM     17  H4  <0> d           4.397   1.707   0.481  0.00  0.00     0.033 H 
ENDBRANCH   1  14
TORSDOF 1
