REMARK  3 active torsions:
REMARK  status: ('A' for Active; 'I' for Inactive)
REMARK    1  A    between atoms: C1_1  and  N1_2 
REMARK    2  A    between atoms: C3_4  and  N4_10 
REMARK    3  A    between atoms: C4_5  and  C5_7 
REMARK       I    between atoms: C5_7  and  N3_9 
ROOT
ATOM      1  N1  <0> d          -2.719   3.530   0.034  0.00  0.00    -0.282 N 
ATOM      2  C2  <0> d          -3.463   2.393   0.032  0.00  0.00     0.026 A 
ATOM      3  C3  <0> d          -2.594   1.347   0.022  0.00  0.00     0.079 A 
ATOM      4  C4  <0> d          -1.301   1.932   0.019  0.00  0.00     0.171 A 
ATOM      5  N2  <0> d          -1.468   3.241   0.032  0.00  0.00    -0.165 NA
ATOM      6  H4  <0> d          -4.542   2.331   0.036  0.00  0.00     0.117 H 
ENDROOT
BRANCH   4   7
ATOM      7  C5  <0> d          -0.014   1.212   0.009  0.00  0.00     0.272 C 
ATOM      8  O1  <0> d           0.002  -0.004   0.002  0.00  0.00    -0.266 OA
ATOM      9  N3  <0> d           1.143   1.901   0.001  0.00  0.00    -0.365 N 
ATOM     10  H5  <0> d           1.990   1.428  -0.009  0.00  0.00     0.159 HD
ATOM     11  H6  <0> d           1.130   2.871   0.007  0.00  0.00     0.159 HD
ENDBRANCH   4   7
BRANCH   3  12
ATOM     12  N4  <0> d          -2.909  -0.019   0.016  0.00  0.00    -0.396 N 
ATOM     13  H7  <0> d          -2.200  -0.680   0.009  0.00  0.00     0.156 HD
ATOM     14  H8  <0> d          -3.837  -0.303   0.019  0.00  0.00     0.156 HD
ENDBRANCH   3  12
BRANCH   1  15
ATOM     15  C1  <0> d          -3.265   4.889   0.044  0.00  0.00     0.002 C 
ATOM     16  H1  <0> d          -3.396   5.221   1.074  0.00  0.00     0.059 H 
ATOM     17  H2  <0> d          -2.577   5.561  -0.470  0.00  0.00     0.059 H 
ATOM     18  H3  <0> d          -4.229   4.897  -0.466  0.00  0.00     0.059 H 
ENDBRANCH   1  15
TORSDOF 3
