REMARK  3 active torsions:
REMARK  status: ('A' for Active; 'I' for Inactive)
REMARK    1  A    between atoms: C3_3  and  C5_5 
REMARK       I    between atoms: C5_5  and  N1_7 
REMARK    2  A    between atoms: N1_7  and  C6_8 
REMARK    3  A    between atoms: C6_8  and  C7_9 
ROOT
ATOM      1  C1  <0> d           0.002  -0.004   0.002  0.00  0.00    -0.064 C 
ATOM      2  C2  <0> d          -0.019   1.534   0.011  0.00  0.00    -0.054 C 
ATOM      3  C3  <0> d           1.518   1.476  -0.004  0.00  0.00     0.024 C 
ATOM      4  C4  <0> d           1.394   0.090   0.649  0.00  0.00    -0.054 C 
ATOM      5  H1  <0> d           0.079  -0.534  -0.959  0.00  0.00     0.033 H 
ATOM      6  H2  <0> d          -0.677  -0.554   0.671  0.00  0.00     0.033 H 
ATOM      7  H3  <0> d          -0.551   1.898  -0.881  0.00  0.00     0.034 H 
ATOM      8  H4  <0> d          -0.534   1.888   0.915  0.00  0.00     0.034 H 
ATOM      9  H5  <0> d           2.145   2.276   0.416  0.00  0.00     0.054 H 
ATOM     10  H6  <0> d           1.296   0.018   1.742  0.00  0.00     0.034 H 
ATOM     11  H7  <0> d           2.025  -0.734   0.283  0.00  0.00     0.034 H 
ENDROOT
BRANCH   3  12
ATOM     12  C5  <0> d           2.107   1.440  -1.391  0.00  0.00     0.222 C 
ATOM     13  O1  <0> d           1.378   1.457  -2.360  0.00  0.00    -0.273 OA
ATOM     14  N1  <0> d           3.444   1.388  -1.554  0.00  0.00    -0.351 N 
ATOM     15  H8  <0> d           4.105   1.373  -0.675  0.00  0.00     0.163 HD
BRANCH  14  16
ATOM     16  C6  <0> d           4.017   1.353  -2.902  0.00  0.00     0.075 C 
ATOM     17  H9  <0> d           3.650   0.462  -3.433  0.00  0.00     0.080 H 
ATOM     18  H10 <0> d           3.717   2.257  -3.452  0.00  0.00     0.080 H 
BRANCH  16  19
ATOM     19  C7  <0> d           5.520   1.298  -2.808  0.00  0.00     0.191 C 
ATOM     20  O2  <0> d           6.058   1.289  -1.726  0.00  0.00    -0.647 OA
ATOM     21  O3  <0> d           6.261   1.259  -3.926  0.00  0.00    -0.647 OA
ENDBRANCH  16  19
ENDBRANCH  14  16
ENDBRANCH   3  12
TORSDOF 3
