REMARK  6 active torsions:
REMARK  status: ('A' for Active; 'I' for Inactive)
REMARK    1  A    between atoms: C1_1  and  C2_2 
REMARK    2  A    between atoms: C2_2  and  C3_3 
REMARK       I    between atoms: C3_3  and  N1_5 
REMARK    3  A    between atoms: N1_5  and  C4_6 
REMARK    4  A    between atoms: C4_6  and  C5_7 
REMARK    5  A    between atoms: C4_6  and  C6_8 
REMARK    6  A    between atoms: C4_6  and  C7_9 
ROOT
ATOM      1  C4  <0> d           1.248   1.716  -0.001  0.00  0.00     0.022 C 
ENDROOT
BRANCH   1   2
ATOM      2  N1  <0> d          -0.011   0.966   0.007  0.00  0.00    -0.353 N 
ATOM      3  C3  <0> d          -1.187   1.624   0.017  0.00  0.00     0.217 C 
ATOM      4  O1  <0> d          -1.204   2.837   0.023  0.00  0.00    -0.274 OA
ATOM      5  H6  <0> d           0.002  -0.004   0.002  0.00  0.00     0.163 HD
BRANCH   3   6
ATOM      6  C2  <0> d          -2.482   0.853   0.018  0.00  0.00     0.006 C 
ATOM      7  H4  <0> d          -2.535   0.230  -0.875  0.00  0.00     0.046 H 
ATOM      8  H5  <0> d          -2.527   0.220   0.905  0.00  0.00     0.046 H 
BRANCH   6   9
ATOM      9  C1  <0> d          -3.658   1.831   0.029  0.00  0.00    -0.068 C 
ATOM     10  H1  <0> d          -4.595   1.273   0.031  0.00  0.00     0.028 H 
ATOM     11  H2  <0> d          -3.605   2.454   0.922  0.00  0.00     0.028 H 
ATOM     12  H3  <0> d          -3.613   2.463  -0.857  0.00  0.00     0.028 H 
ENDBRANCH   6   9
ENDBRANCH   3   6
ENDBRANCH   1   2
BRANCH   1  13
ATOM     13  C5  <0> d           1.329   2.589   1.253  0.00  0.00    -0.054 C 
ATOM     14  H7  <0> d           1.288   1.957   2.140  0.00  0.00     0.030 H 
ATOM     15  H8  <0> d           2.265   3.147   1.247  0.00  0.00     0.030 H 
ATOM     16  H9  <0> d           0.491   3.286   1.264  0.00  0.00     0.030 H 
ENDBRANCH   1  13
BRANCH   1  17
ATOM     17  C6  <0> d           2.424   0.737  -0.017  0.00  0.00    -0.054 C 
ATOM     18  H10 <0> d           2.366   0.115  -0.910  0.00  0.00     0.030 H 
ATOM     19  H11 <0> d           3.360   1.295  -0.023  0.00  0.00     0.030 H 
ATOM     20  H12 <0> d           2.383   0.105   0.870  0.00  0.00     0.030 H 
ENDBRANCH   1  17
BRANCH   1  21
ATOM     21  C7  <0> d           1.305   2.603  -1.246  0.00  0.00    -0.054 C 
ATOM     22  H13 <0> d           0.467   3.300  -1.234  0.00  0.00     0.030 H 
ATOM     23  H14 <0> d           2.241   3.161  -1.252  0.00  0.00     0.030 H 
ATOM     24  H15 <0> d           1.247   1.980  -2.139  0.00  0.00     0.030 H 
ENDBRANCH   1  21
TORSDOF 6
