REMARK  5 active torsions:
REMARK  status: ('A' for Active; 'I' for Inactive)
REMARK    1  A    between atoms: C1_1  and  C2_2 
REMARK    2  A    between atoms: C2_2  and  C3_4 
REMARK    3  A    between atoms: C2_2  and  O2_6 
REMARK    4  A    between atoms: C3_4  and  O1_5 
REMARK    5  A    between atoms: O2_6  and  C4_7 
ROOT
ATOM      1  C2  <0> d          -0.729   1.579   1.267  0.00  0.00     0.054 C 
ATOM      2  H1  <0> d          -0.255   1.146   2.148  0.00  0.00     0.086 H 
ENDROOT
BRANCH   1   3
ATOM      3  C1  <0> d          -2.198   1.155   1.217  0.00  0.00    -0.050 C 
ATOM      4  H2  <0> d          -2.261   0.068   1.166  0.00  0.00     0.031 H 
ATOM      5  H3  <0> d          -2.708   1.506   2.114  0.00  0.00     0.031 H 
ATOM      6  H4  <0> d          -2.672   1.588   0.336  0.00  0.00     0.031 H 
ENDBRANCH   1   3
BRANCH   1   7
ATOM      7  C3  <0> d          -0.013   1.086   0.008  0.00  0.00     0.040 C 
ATOM      8  H5  <0> d           0.002  -0.004   0.002  0.00  0.00     0.077 H 
ATOM      9  H6  <0> d           1.010   1.463   0.000  0.00  0.00     0.077 H 
BRANCH   7  10
ATOM     10  O1  <0> d          -0.704   1.559  -1.150  0.00  0.00    -0.398 OA
ATOM     11  H7  <0> d          -0.304   1.284  -1.986  0.00  0.00     0.209 HD
ENDBRANCH   7  10
ENDBRANCH   1   7
BRANCH   1  12
ATOM     12  O2  <0> d          -0.647   3.004   1.334  0.00  0.00    -0.389 OA
BRANCH  12  13
ATOM     13  C4  <0> d          -0.640   3.524   2.665  0.00  0.00     0.005 C 
ATOM     14  H8  <0> d          -1.558   3.231   3.174  0.00  0.00     0.066 H 
ATOM     15  H9  <0> d           0.219   3.127   3.206  0.00  0.00     0.066 H 
ATOM     16  H10 <0> d          -0.576   4.612   2.630  0.00  0.00     0.066 H 
ENDBRANCH  12  13
ENDBRANCH   1  12
TORSDOF 5
