REMARK  4 active torsions:
REMARK  status: ('A' for Active; 'I' for Inactive)
REMARK    1  A    between atoms: C1_1  and  C2_2 
REMARK    2  A    between atoms: N2_5  and  C5_7 
REMARK    3  A    between atoms: C5_7  and  C6_9 
REMARK    4  A    between atoms: C5_7  and  C7_10 
ROOT
ATOM      1  C7  <0> d          -0.018   1.468   0.010  0.00  0.00     0.035 C 
ATOM      2  C8  <0> d           0.002  -0.004   0.002  0.00  0.00     0.061 C 
ATOM      3  N3  <0> d           0.018  -1.140  -0.004  0.00  0.00    -0.197 NA
ATOM      4  H10 <0> d          -0.545   1.829  -0.873  0.00  0.00     0.058 H 
ATOM      5  H11 <0> d          -0.528   1.819   0.907  0.00  0.00     0.058 H 
ENDROOT
BRANCH   1   6
ATOM      6  C5  <0> d           1.417   1.997  -0.001  0.00  0.00     0.042 C 
ATOM      7  H1  <0> d           1.970   1.566   0.834  0.00  0.00     0.076 H 
BRANCH   6   8
ATOM      8  N2  <0> d           1.401   3.457   0.128  0.00  0.00    -0.275 N 
ATOM      9  N1  <0> d           1.535   4.181   1.319  0.00  0.00    -0.184 NA
ATOM     10  C3  <0> d           1.470   5.456   1.032  0.00  0.00     0.029 A 
ATOM     11  C2  <0> d           1.292   5.584  -0.349  0.00  0.00    -0.026 A 
ATOM     12  H5  <0> d           1.540   6.268   1.740  0.00  0.00     0.118 H 
ATOM     13  C4  <0> d           1.259   4.341  -0.882  0.00  0.00     0.006 A 
ATOM     14  H6  <0> d           1.137   4.099  -1.927  0.00  0.00     0.115 H 
BRANCH  11  15
ATOM     15  C1  <0> d           1.166   6.879  -1.110  0.00  0.00    -0.049 C 
ATOM     16  H2  <0> d           2.155   7.214  -1.422  0.00  0.00     0.033 H 
ATOM     17  H3  <0> d           0.541   6.724  -1.989  0.00  0.00     0.033 H 
ATOM     18  H4  <0> d           0.712   7.634  -0.469  0.00  0.00     0.033 H 
ENDBRANCH  11  15
ENDBRANCH   6   8
BRANCH   6  19
ATOM     19  C6  <0> d           2.095   1.609  -1.317  0.00  0.00    -0.054 C 
ATOM     20  H7  <0> d           1.542   2.041  -2.151  0.00  0.00     0.030 H 
ATOM     21  H8  <0> d           3.117   1.986  -1.325  0.00  0.00     0.030 H 
ATOM     22  H9  <0> d           2.107   0.523  -1.412  0.00  0.00     0.030 H 
ENDBRANCH   6  19
ENDBRANCH   1   6
TORSDOF 4
