REMARK  6 active torsions:
REMARK  status: ('A' for Active; 'I' for Inactive)
REMARK    1  A    between atoms: C1_1  and  C2_2 
REMARK    2  A    between atoms: C2_2  and  C3_4 
REMARK    3  A    between atoms: C2_2  and  C5_7 
REMARK    4  A    between atoms: C3_4  and  C4_5 
REMARK    5  A    between atoms: C5_7  and  C6_9 
REMARK    6  A    between atoms: C5_7  and  C7_10 
ROOT
ATOM      1  C2  <0> d          -2.164   1.050   1.278  0.00  0.00    -0.036 C 
ATOM      2  H1  <0> d          -2.691   1.411   0.395  0.00  0.00     0.041 H 
ENDROOT
BRANCH   1   3
ATOM      3  C1  <0> d          -2.880   1.543   2.537  0.00  0.00    -0.072 C 
ATOM      4  H3  <0> d          -2.353   1.182   3.420  0.00  0.00     0.028 H 
ATOM      5  H4  <0> d          -2.895   2.633   2.542  0.00  0.00     0.028 H 
ATOM      6  H5  <0> d          -3.903   1.166   2.544  0.00  0.00     0.028 H 
ENDBRANCH   1   3
BRANCH   1   7
ATOM      7  C3  <0> d          -2.143  -0.480   1.269  0.00  0.00     0.019 C 
ATOM      8  H6  <0> d          -1.557  -0.831   0.420  0.00  0.00     0.049 H 
ATOM      9  H7  <0> d          -1.695  -0.843   2.195  0.00  0.00     0.049 H 
BRANCH   7  10
ATOM     10  C4  <0> d          -3.553  -1.001   1.156  0.00  0.00     0.172 C 
ATOM     11  O1  <0> d          -4.479  -0.228   1.089  0.00  0.00    -0.648 OA
ATOM     12  O3  <0> d          -3.780  -2.324   1.130  0.00  0.00    -0.648 OA
ENDBRANCH   7  10
ENDBRANCH   1   7
BRANCH   1  13
ATOM     13  C5  <0> d          -0.729   1.579   1.267  0.00  0.00     0.031 C 
ATOM     14  H2  <0> d          -0.202   1.218   2.150  0.00  0.00     0.056 H 
BRANCH  13  15
ATOM     15  C6  <0> d          -0.013   1.086   0.008  0.00  0.00    -0.063 C 
ATOM     16  H8  <0> d           0.002  -0.004   0.002  0.00  0.00     0.028 H 
ATOM     17  H9  <0> d           1.010   1.463   0.000  0.00  0.00     0.028 H 
ATOM     18  H10 <0> d          -0.540   1.447  -0.875  0.00  0.00     0.028 H 
ENDBRANCH  13  15
BRANCH  13  19
ATOM     19  C7  <0> d          -0.749   3.086   1.275  0.00  0.00     0.177 C 
ATOM     20  O2  <0> d          -1.804   3.676   1.288  0.00  0.00    -0.648 OA
ATOM     21  O4  <0> d           0.404   3.773   1.268  0.00  0.00    -0.648 OA
ENDBRANCH  13  19
ENDBRANCH   1  13
TORSDOF 6
