REMARK  3 active torsions:
REMARK  status: ('A' for Active; 'I' for Inactive)
REMARK    1  A    between atoms: C1_1  and  C2_2 
REMARK    2  A    between atoms: C1_1  and  O1_8 
REMARK    3  A    between atoms: C3_3  and  C4_4 
ROOT
ATOM      1  C2  <0> d          -0.199  -0.052  -0.159  0.00  0.00    -0.076 C 
ATOM      2  C3  <0> d          -0.710  -0.674   0.874  0.00  0.00    -0.003 C 
ATOM      3  H3  <0> d           0.389  -0.598  -0.882  0.00  0.00     0.080 H 
ATOM      4  H4  <0> d          -0.468  -1.711   1.054  0.00  0.00     0.090 H 
ENDROOT
BRANCH   1   5
ATOM      5  C1  <0> d          -0.431   1.426  -0.340  0.00  0.00     0.032 C 
ATOM      6  H1  <0> d          -1.170   1.585  -1.125  0.00  0.00     0.080 H 
ATOM      7  H2  <0> d          -0.795   1.854   0.595  0.00  0.00     0.080 H 
BRANCH   5   8
ATOM      8  O1  <0> d           0.796   2.060  -0.706  0.00  0.00    -0.397 OA
ATOM      9  H5  <0> d           0.722   3.015  -0.839  0.00  0.00     0.209 HD
ENDBRANCH   5   8
ENDBRANCH   1   5
BRANCH   2  10
ATOM     10  C4  <0> d          -1.635   0.058   1.812  0.00  0.00     0.407 C 
ATOM     11  F1  <0> d          -2.655   0.672   1.076  0.00  0.00    -0.167 F 
ATOM     12  F2  <0> d          -2.196  -0.850   2.717  0.00  0.00    -0.167 F 
ATOM     13  F3  <0> d          -0.915   1.031   2.513  0.00  0.00    -0.167 F 
ENDBRANCH   2  10
TORSDOF 3
