REMARK  6 active torsions:
REMARK  status: ('A' for Active; 'I' for Inactive)
REMARK    1  A    between atoms: C1_1  and  O1_2 
REMARK    2  A    between atoms: O1_2  and  C2_3 
REMARK    3  A    between atoms: C2_3  and  C3_5 
REMARK    4  A    between atoms: C3_5  and  C4_6 
REMARK    5  A    between atoms: C4_6  and  C5_7 
REMARK    6  A    between atoms: C5_7  and  C6_8 
ROOT
ATOM      1  C3  <0> d           0.657  -2.104  -1.120  0.00  0.00     0.016 C 
ATOM      2  H4  <0> d           1.195  -2.491  -0.254  0.00  0.00     0.048 H 
ATOM      3  H5  <0> d          -0.355  -2.507  -1.129  0.00  0.00     0.048 H 
ENDROOT
BRANCH   1   4
ATOM      4  C2  <0> d           0.598  -0.600  -1.043  0.00  0.00     0.258 C 
ATOM      5  O2  <0> d           1.088   0.070  -1.921  0.00  0.00    -0.265 OA
BRANCH   4   6
ATOM      6  O1  <0> d           0.002  -0.004   0.002  0.00  0.00    -0.326 OA
BRANCH   6   7
ATOM      7  C1  <0> d          -0.017   1.425   0.010  0.00  0.00     0.013 C 
ATOM      8  H1  <0> d           1.005   1.802   0.002  0.00  0.00     0.067 H 
ATOM      9  H2  <0> d          -0.544   1.786  -0.873  0.00  0.00     0.067 H 
ATOM     10  H3  <0> d          -0.527   1.776   0.907  0.00  0.00     0.067 H 
ENDBRANCH   6   7
ENDBRANCH   4   6
ENDBRANCH   1   4
BRANCH   1  11
ATOM     11  C4  <0> d           1.385  -2.521  -2.400  0.00  0.00    -0.048 C 
ATOM     12  H6  <0> d           0.848  -2.133  -3.265  0.00  0.00     0.034 H 
ATOM     13  H7  <0> d           2.397  -2.117  -2.390  0.00  0.00     0.034 H 
BRANCH  11  14
ATOM     14  C5  <0> d           1.445  -4.047  -2.478  0.00  0.00     0.016 C 
ATOM     15  H8  <0> d           1.982  -4.435  -1.612  0.00  0.00     0.049 H 
ATOM     16  H9  <0> d           0.432  -4.451  -2.487  0.00  0.00     0.049 H 
BRANCH  14  17
ATOM     17  C6  <0> d           2.161  -4.458  -3.738  0.00  0.00     0.172 C 
ATOM     18  O3  <0> d           2.584  -3.608  -4.503  0.00  0.00    -0.648 OA
ATOM     19  O4  <0> d           2.317  -5.640  -3.993  0.00  0.00    -0.648 OA
ENDBRANCH  14  17
ENDBRANCH  11  14
ENDBRANCH   1  11
TORSDOF 6
