REMARK  3 active torsions:
REMARK  status: ('A' for Active; 'I' for Inactive)
REMARK    1  A    between atoms: C1_1  and  O1_2 
REMARK    2  A    between atoms: O1_2  and  C2_3 
REMARK    3  A    between atoms: N1_5  and  C3_6 
ROOT
ATOM      1  C2  <0> d           0.601  -0.603  -1.048  0.00  0.00     0.319 C 
ATOM      2  O2  <0> d           0.654  -1.949  -1.117  0.00  0.00    -0.141 OA
ATOM      3  N1  <0> d           1.132   0.124  -2.001  0.00  0.00    -0.172 NA
ENDROOT
BRANCH   1   4
ATOM      4  O1  <0> d           0.002  -0.004   0.002  0.00  0.00    -0.318 OA
BRANCH   4   5
ATOM      5  C1  <0> d          -0.017   1.425   0.010  0.00  0.00     0.014 C 
ATOM      6  H1  <0> d           1.005   1.802   0.002  0.00  0.00     0.067 H 
ATOM      7  H2  <0> d          -0.544   1.786  -0.873  0.00  0.00     0.067 H 
ATOM      8  H3  <0> d          -0.527   1.776   0.907  0.00  0.00     0.067 H 
ENDBRANCH   4   5
ENDBRANCH   1   4
BRANCH   3   9
ATOM      9  C3  <0> d           1.737  -0.481  -3.061  0.00  0.00     0.218 A 
ATOM     10  S1  <0> d           2.538   0.236  -4.493  0.00  0.00    -0.039 SA
ATOM     11  C4  <0> d           2.987  -1.319  -5.258  0.00  0.00     0.065 A 
ATOM     12  N3  <0> d           2.491  -2.163  -4.376  0.00  0.00    -0.153 NA
ATOM     13  H4  <0> d           3.513  -1.511  -6.182  0.00  0.00     0.129 H 
ATOM     14  N2  <0> d           1.897  -1.775  -3.333  0.00  0.00    -0.122 NA
ENDBRANCH   3   9
TORSDOF 3
