REMARK  1 active torsions:
REMARK  status: ('A' for Active; 'I' for Inactive)
REMARK    1  A    between atoms: C4_4  and  N2_7 
ROOT
ATOM      1  C1  <0> d           1.229  -0.645  -0.013  0.00  0.00    -0.064 A 
ATOM      2  C2  <0> d           0.002  -0.004   0.002  0.00  0.00    -0.058 A 
ATOM      3  C3  <0> d          -0.017   1.395   0.010  0.00  0.00     0.090 A 
ATOM      4  C4  <0> d           1.206   2.088   0.002  0.00  0.00     0.141 A 
ATOM      5  N1  <0> d           2.351   1.425  -0.013  0.00  0.00    -0.242 NA
ATOM      6  C5  <0> d           2.390   0.106  -0.020  0.00  0.00     0.004 A 
ATOM      7  C6  <0> d          -1.259   2.107   0.019  0.00  0.00     0.103 C 
ATOM      8  N3  <0> d          -2.244   2.672   0.027  0.00  0.00    -0.191 NA
ATOM      9  H1  <0> d           1.279  -1.724  -0.020  0.00  0.00     0.085 H 
ATOM     10  H2  <0> d          -0.918  -0.570   0.007  0.00  0.00     0.086 H 
ATOM     11  H3  <0> d           3.346  -0.396  -0.032  0.00  0.00     0.114 H 
ENDROOT
BRANCH   4  12
ATOM     12  N2  <0> d           1.212   3.473   0.009  0.00  0.00    -0.383 N 
ATOM     13  H4  <0> d           2.168   4.018   0.003  0.00  0.00     0.157 HD
ATOM     14  H5  <0> d           0.263   4.027   0.021  0.00  0.00     0.157 HD
ENDBRANCH   4  12
TORSDOF 1
