REMARK  8 active torsions:
REMARK  status: ('A' for Active; 'I' for Inactive)
REMARK    1  A    between atoms: C1_1  and  C2_2 
REMARK    2  A    between atoms: C2_2  and  C3_3 
REMARK    3  A    between atoms: C3_3  and  C4_4 
REMARK    4  A    between atoms: C4_4  and  C5_5 
REMARK    5  A    between atoms: C5_5  and  C6_6 
REMARK    6  A    between atoms: C6_6  and  C7_8 
REMARK    7  A    between atoms: C7_8  and  C8_9 
REMARK    8  A    between atoms: C7_8  and  C9_10 
ROOT
ATOM      1  C5  <0> d          -1.329   1.939   0.019  0.00  0.00    -0.009 C 
ATOM      2  H10 <0> d          -1.386   2.509   0.839  0.00  0.00     0.044 H 
ATOM      3  H11 <0> d          -1.400   2.570  -0.867  0.00  0.00     0.044 H 
ENDROOT
BRANCH   1   4
ATOM      4  C4  <0> d          -2.479   0.929   0.019  0.00  0.00    -0.059 C 
ATOM      5  H8  <0> d          -2.417   0.308  -0.875  0.00  0.00     0.033 H 
ATOM      6  H9  <0> d          -2.408   0.298   0.905  0.00  0.00     0.033 H 
BRANCH   4   7
ATOM      7  C3  <0> d          -3.814   1.676   0.029  0.00  0.00    -0.065 C 
ATOM      8  H6  <0> d          -3.876   2.297   0.923  0.00  0.00     0.033 H 
ATOM      9  H7  <0> d          -3.885   2.307  -0.857  0.00  0.00     0.033 H 
BRANCH   7  10
ATOM     10  C2  <0> d          -4.963   0.666   0.029  0.00  0.00    -0.069 C 
ATOM     11  H4  <0> d          -4.901   0.045  -0.865  0.00  0.00     0.032 H 
ATOM     12  H5  <0> d          -4.893   0.035   0.915  0.00  0.00     0.032 H 
BRANCH  10  13
ATOM     13  C1  <0> d          -6.299   1.413   0.040  0.00  0.00    -0.077 C 
ATOM     14  H1  <0> d          -6.361   2.034   0.933  0.00  0.00     0.027 H 
ATOM     15  H2  <0> d          -6.369   2.044  -0.847  0.00  0.00     0.027 H 
ATOM     16  H3  <0> d          -7.117   0.694   0.040  0.00  0.00     0.027 H 
ENDBRANCH  10  13
ENDBRANCH   7  10
ENDBRANCH   4   7
ENDBRANCH   1   4
BRANCH   1  17
ATOM     17  C6  <0> d          -0.014   1.203   0.009  0.00  0.00     0.130 C 
ATOM     18  O1  <0> d           0.002  -0.004   0.002  0.00  0.00    -0.298 OA
BRANCH  17  19
ATOM     19  C7  <0> d           1.280   1.975   0.000  0.00  0.00    -0.003 C 
ATOM     20  H12 <0> d           1.144   2.849  -0.465  0.00  0.00     0.050 H 
BRANCH  19  21
ATOM     21  C8  <0> d           1.732   2.228   1.440  0.00  0.00    -0.067 C 
ATOM     22  H13 <0> d           2.669   2.786   1.434  0.00  0.00     0.028 H 
ATOM     23  H14 <0> d           0.970   2.804   1.964  0.00  0.00     0.028 H 
ATOM     24  H15 <0> d           1.881   1.274   1.947  0.00  0.00     0.028 H 
ENDBRANCH  19  21
BRANCH  19  25
ATOM     25  C9  <0> d           2.351   1.166  -0.735  0.00  0.00    -0.067 C 
ATOM     26  H16 <0> d           2.029   0.986  -1.761  0.00  0.00     0.028 H 
ATOM     27  H17 <0> d           3.287   1.724  -0.741  0.00  0.00     0.028 H 
ATOM     28  H18 <0> d           2.499   0.213  -0.228  0.00  0.00     0.028 H 
ENDBRANCH  19  25
ENDBRANCH  17  19
ENDBRANCH   1  17
TORSDOF 8
