REMARK  1 active torsions:
REMARK  status: ('A' for Active; 'I' for Inactive)
REMARK    1  A    between atoms: C3_3  and  C6_8 
REMARK       I    between atoms: C6_8  and  N2_10 
ROOT
ATOM      1  C1  <0> d          -2.430   5.165   0.042  0.00  0.00    -0.077 A 
ATOM      2  C2  <0> d          -2.426   3.779   0.028  0.00  0.00    -0.050 A 
ATOM      3  C3  <0> d          -1.207   3.105   0.025  0.00  0.00     0.125 A 
ATOM      4  N1  <0> d          -0.063   3.779   0.023  0.00  0.00    -0.231 NA
ATOM      5  C4  <0> d          -0.037   5.095   0.030  0.00  0.00     0.127 A 
ATOM      6  C5  <0> d          -1.214   5.830   0.040  0.00  0.00    -0.044 A 
ATOM      7 Cl1  <0> d           1.489   5.921   0.028  0.00  0.00    -0.062 Cl
ATOM      8  H1  <0> d          -3.359   5.715   0.049  0.00  0.00     0.083 H 
ATOM      9  H2  <0> d          -3.355   3.229   0.025  0.00  0.00     0.087 H 
ATOM     10  H3  <0> d          -1.183   6.910   0.045  0.00  0.00     0.088 H 
ENDROOT
BRANCH   3  11
ATOM     11  C6  <0> d          -1.187   1.624   0.017  0.00  0.00     0.268 C 
ATOM     12  O1  <0> d          -2.231   1.002   0.018  0.00  0.00    -0.266 OA
ATOM     13  N2  <0> d          -0.011   0.966   0.007  0.00  0.00    -0.365 N 
ATOM     14  H4  <0> d           0.002  -0.004   0.002  0.00  0.00     0.159 HD
ATOM     15  H5  <0> d           0.822   1.462   0.002  0.00  0.00     0.159 HD
ENDBRANCH   3  11
TORSDOF 1
