REMARK  5 active torsions:
REMARK  status: ('A' for Active; 'I' for Inactive)
REMARK    1  A    between atoms: C1_1  and  C2_2 
REMARK    2  A    between atoms: C2_2  and  O1_3 
REMARK    3  A    between atoms: O1_3  and  C3_4 
REMARK    4  A    between atoms: C3_4  and  C4_6 
REMARK    5  A    between atoms: C6_9  and  N2_11 
ROOT
ATOM      1  C3  <0> d          -3.292   4.515   0.042  0.00  0.00     0.318 C 
ATOM      2  O2  <0> d          -4.504   4.615   0.049  0.00  0.00    -0.257 OA
ENDROOT
BRANCH   1   3
ATOM      3  O1  <0> d          -2.523   5.625   0.044  0.00  0.00    -0.316 OA
BRANCH   3   4
ATOM      4  C2  <0> d          -3.200   6.883   0.054  0.00  0.00     0.026 C 
ATOM      5  H4  <0> d          -3.829   6.964  -0.832  0.00  0.00     0.074 H 
ATOM      6  H5  <0> d          -3.820   6.955   0.948  0.00  0.00     0.074 H 
BRANCH   4   7
ATOM      7  C1  <0> d          -2.171   8.016   0.055  0.00  0.00    -0.056 C 
ATOM      8  H1  <0> d          -2.688   8.976   0.063  0.00  0.00     0.030 H 
ATOM      9  H2  <0> d          -1.542   7.934   0.941  0.00  0.00     0.030 H 
ATOM     10  H3  <0> d          -1.551   7.944  -0.839  0.00  0.00     0.030 H 
ENDBRANCH   4   7
ENDBRANCH   3   4
ENDBRANCH   1   3
BRANCH   1  11
ATOM     11  C4  <0> d          -2.686   3.234   0.032  0.00  0.00     0.171 A 
ATOM     12  O3  <0> d          -1.356   2.968   0.030  0.00  0.00    -0.271 OA
ATOM     13  C6  <0> d          -1.209   1.636   0.017  0.00  0.00     0.244 A 
ATOM     14  N1  <0> d          -2.400   1.074   0.020  0.00  0.00    -0.218 NA
ATOM     15  C5  <0> d          -3.331   2.029   0.029  0.00  0.00     0.045 A 
ATOM     16  H6  <0> d          -4.400   1.878   0.033  0.00  0.00     0.119 H 
BRANCH  13  17
ATOM     17  N2  <0> d          -0.011   0.966   0.007  0.00  0.00    -0.363 N 
ATOM     18  H7  <0> d           0.002  -0.004   0.002  0.00  0.00     0.159 HD
ATOM     19  H8  <0> d           0.822   1.462   0.002  0.00  0.00     0.159 HD
ENDBRANCH  13  17
ENDBRANCH   1  11
TORSDOF 5
