REMARK  3 active torsions:
REMARK  status: ('A' for Active; 'I' for Inactive)
REMARK    1  A    between atoms: C1_1  and  O1_2 
REMARK    2  A    between atoms: O1_2  and  C2_3 
REMARK    3  A    between atoms: C2_3  and  C3_5 
ROOT
ATOM      1  C3  <0> d           0.659  -2.072  -1.122  0.00  0.00     0.055 A 
ATOM      2  C4  <0> d           0.087  -2.863  -0.095  0.00  0.00    -0.061 A 
ATOM      3  C5  <0> d           0.155  -4.217  -0.191  0.00  0.00    -0.016 A 
ATOM      4  C6  <0> d           0.789  -4.803  -1.302  0.00  0.00     0.245 A 
ATOM      5  O3  <0> d           0.852  -6.017  -1.393  0.00  0.00    -0.268 OA
ATOM      6  N1  <0> d           1.326  -4.033  -2.267  0.00  0.00    -0.333 N 
ATOM      7  H1  <0> d           1.823  -4.500  -3.130  0.00  0.00     0.168 HD
ATOM      8  C7  <0> d           1.266  -2.691  -2.197  0.00  0.00    -0.004 A 
ATOM      9  H5  <0> d          -0.396  -2.396   0.751  0.00  0.00     0.085 H 
ATOM     10  H6  <0> d          -0.275  -4.839   0.581  0.00  0.00     0.092 H 
ATOM     11  H7  <0> d           1.699  -2.093  -2.985  0.00  0.00     0.113 H 
ENDROOT
BRANCH   1  12
ATOM     12  C2  <0> d           0.601  -0.602  -1.047  0.00  0.00     0.294 C 
ATOM     13  O2  <0> d           1.093   0.071  -1.931  0.00  0.00    -0.259 OA
BRANCH  12  14
ATOM     14  O1  <0> d           0.002  -0.004   0.002  0.00  0.00    -0.322 OA
BRANCH  14  15
ATOM     15  C1  <0> d          -0.018   1.448   0.010  0.00  0.00     0.013 C 
ATOM     16  H2  <0> d          -0.532   1.802   0.915  0.00  0.00     0.067 H 
ATOM     17  H3  <0> d          -0.550   1.812  -0.881  0.00  0.00     0.067 H 
ATOM     18  H4  <0> d           1.014   1.829   0.002  0.00  0.00     0.067 H 
ENDBRANCH  14  15
ENDBRANCH  12  14
ENDBRANCH   1  12
TORSDOF 3
