REMARK  0 active torsions:
REMARK  status: ('A' for Active; 'I' for Inactive)
ROOT
ATOM      1  C1  <0> d           1.172   1.783   0.000  0.00  0.00    -0.080 A 
ATOM      2  C2  <0> d          -0.013   1.076   0.008  0.00  0.00    -0.063 A 
ATOM      3  C3  <0> d          -1.230   1.759   0.017  0.00  0.00     0.046 A 
ATOM      4  C4  <0> d          -1.241   3.155   0.030  0.00  0.00    -0.042 A 
ATOM      5  C5  <0> d          -0.048   3.851   0.022  0.00  0.00     0.035 A 
ATOM      6  C6  <0> d           1.156   3.166   0.007  0.00  0.00    -0.062 A 
ATOM      7 Cl1  <0> d          -0.058   5.587   0.032  0.00  0.00    -0.084 Cl
ATOM      8  C7  <0> d          -2.463   1.030   0.020  0.00  0.00     0.099 C 
ATOM      9  N1  <0> d          -3.441   0.453   0.022  0.00  0.00    -0.191 NA
ATOM     10  H1  <0> d           2.114   1.256  -0.011  0.00  0.00     0.083 H 
ATOM     11  H2  <0> d           0.002  -0.004   0.002  0.00  0.00     0.085 H 
ATOM     12  H3  <0> d          -2.179   3.689   0.042  0.00  0.00     0.088 H 
ATOM     13  H4  <0> d           2.086   3.715   0.001  0.00  0.00     0.086 H 
ENDROOT
TORSDOF 0
