REMARK  2 active torsions:
REMARK  status: ('A' for Active; 'I' for Inactive)
REMARK    1  A    between atoms: C2_2  and  C4_6 
REMARK    2  A    between atoms: C4_6  and  C5_7 
REMARK       I    between atoms: C5_7  and  N2_9 
ROOT
ATOM      1  C4  <0> d           0.002  -0.004   0.002  0.00  0.00     0.049 C 
ATOM      2  H3  <0> d           0.450  -0.366   0.927  0.00  0.00     0.056 H 
ATOM      3  H4  <0> d          -1.017  -0.381  -0.080  0.00  0.00     0.056 H 
ENDROOT
BRANCH   1   4
ATOM      4  C2  <0> d          -0.018   1.503   0.010  0.00  0.00     0.050 A 
ATOM      5  C1  <0> d          -1.194   2.182   0.019  0.00  0.00    -0.019 A 
ATOM      6  S1  <0> d          -0.599   3.867   0.029  0.00  0.00    -0.092 SA
ATOM      7  H1  <0> d          -2.207   1.808   0.022  0.00  0.00     0.098 H 
ATOM      8  C3  <0> d           1.100   3.505   0.010  0.00  0.00     0.040 A 
ATOM      9  N1  <0> d           1.103   2.192   0.003  0.00  0.00    -0.258 NA
ATOM     10  H2  <0> d           1.938   4.186   0.006  0.00  0.00     0.126 H 
ENDBRANCH   1   4
BRANCH   1  11
ATOM     11  C5  <0> d           0.813  -0.489  -1.172  0.00  0.00     0.221 C 
ATOM     12  O1  <0> d           1.324   0.310  -1.927  0.00  0.00    -0.273 OA
ATOM     13  N2  <0> d           0.971  -1.811  -1.382  0.00  0.00    -0.370 N 
ATOM     14  H5  <0> d           0.562  -2.450  -0.778  0.00  0.00     0.159 HD
ATOM     15  H6  <0> d           1.492  -2.123  -2.138  0.00  0.00     0.159 HD
ENDBRANCH   1  11
TORSDOF 2
