REMARK  2 active torsions:
REMARK  status: ('A' for Active; 'I' for Inactive)
REMARK    1  A    between atoms: C1_1  and  C2_2 
REMARK    2  A    between atoms: C3_4  and  C4_8 
ROOT
ATOM      1  C4  <0> d           2.499   1.360  -0.015  0.00  0.00     0.070 C 
ATOM      2  C5  <0> d           3.184   1.990  -1.155  0.00  0.00     0.066 C 
ATOM      3  N4  <0> d           3.713   2.477  -2.034  0.00  0.00    -0.197 NA
ATOM      4  H5  <0> d           2.984   1.671   0.922  0.00  0.00     0.066 H 
ATOM      5  H6  <0> d           2.558   0.266  -0.111  0.00  0.00     0.066 H 
ENDROOT
BRANCH   1   6
ATOM      6  C3  <0> d           1.054   1.786   0.002  0.00  0.00     0.135 A 
ATOM      7  N1  <0> d           0.617   3.019   0.012  0.00  0.00    -0.216 NA
ATOM      8  C2  <0> d          -0.716   3.026   0.024  0.00  0.00     0.144 A 
ATOM      9  N3  <0> d          -1.147   1.792   0.017  0.00  0.00    -0.158 NA
ATOM     10  N2  <0> d          -0.011   0.966   0.007  0.00  0.00    -0.262 N 
ATOM     11  H1  <0> d           0.134  -0.124   0.004  0.00  0.00     0.190 HD
BRANCH   8  12
ATOM     12  C1  <0> d          -1.585   4.257   0.038  0.00  0.00    -0.018 C 
ATOM     13  H2  <0> d          -0.949   5.155   0.041  0.00  0.00     0.038 H 
ATOM     14  H3  <0> d          -2.215   4.251   0.939  0.00  0.00     0.038 H 
ATOM     15  H4  <0> d          -2.224   4.265  -0.857  0.00  0.00     0.038 H 
ENDBRANCH   8  12
ENDBRANCH   1   6
TORSDOF 2
