REMARK  6 active torsions:
REMARK  status: ('A' for Active; 'I' for Inactive)
REMARK    1  A    between atoms: C1_1  and  C2_2 
REMARK    2  A    between atoms: C2_2  and  O1_3 
REMARK    3  A    between atoms: O1_3  and  C3_4 
REMARK    4  A    between atoms: C3_4  and  C4_6 
REMARK    5  A    between atoms: C5_7  and  C6_8 
REMARK    6  A    between atoms: C5_7  and  C7_9 
ROOT
ATOM      1  C4  <0> d          -0.054   1.149   0.045  0.00  0.00    -0.009 C 
ATOM      2  C5  <0> d          -1.237   1.695  -0.227  0.00  0.00    -0.082 C 
ATOM      3  H6  <0> d           0.076   0.079  -0.024  0.00  0.00     0.093 H 
ENDROOT
BRANCH   1   4
ATOM      4  C3  <0> d           1.076   2.003   0.435  0.00  0.00     0.283 C 
ATOM      5  O2  <0> d           0.905   3.192   0.617  0.00  0.00    -0.260 OA
BRANCH   4   6
ATOM      6  O1  <0> d           2.303   1.467   0.591  0.00  0.00    -0.319 OA
BRANCH   6   7
ATOM      7  C2  <0> d           3.373   2.370   0.977  0.00  0.00     0.026 C 
ATOM      8  H4  <0> d           3.486   3.144   0.218  0.00  0.00     0.074 H 
ATOM      9  H5  <0> d           3.131   2.831   1.934  0.00  0.00     0.074 H 
BRANCH   7  10
ATOM     10  C1  <0> d           4.681   1.586   1.104  0.00  0.00    -0.056 C 
ATOM     11  H1  <0> d           5.484   2.264   1.394  0.00  0.00     0.030 H 
ATOM     12  H2  <0> d           4.568   0.811   1.863  0.00  0.00     0.030 H 
ATOM     13  H3  <0> d           4.923   1.125   0.147  0.00  0.00     0.030 H 
ENDBRANCH   7  10
ENDBRANCH   6   7
ENDBRANCH   4   6
ENDBRANCH   1   4
BRANCH   2  14
ATOM     14  C6  <0> d          -2.489   0.860  -0.144  0.00  0.00    -0.055 C 
ATOM     15  H7  <0> d          -2.899   0.919   0.864  0.00  0.00     0.033 H 
ATOM     16  H8  <0> d          -3.224   1.234  -0.857  0.00  0.00     0.033 H 
ATOM     17  H9  <0> d          -2.251  -0.177  -0.380  0.00  0.00     0.033 H 
ENDBRANCH   2  14
BRANCH   2  18
ATOM     18  C7  <0> d          -1.325   3.147  -0.619  0.00  0.00    -0.055 C 
ATOM     19  H10 <0> d          -0.320   3.549  -0.751  0.00  0.00     0.033 H 
ATOM     20  H11 <0> d          -1.878   3.239  -1.553  0.00  0.00     0.033 H 
ATOM     21  H12 <0> d          -1.839   3.704   0.164  0.00  0.00     0.033 H 
ENDBRANCH   2  18
TORSDOF 6
