REMARK  2 active torsions:
REMARK  status: ('A' for Active; 'I' for Inactive)
REMARK    1  A    between atoms: C2_2  and  O4_10 
REMARK    2  A    between atoms: C3_4  and  O3_9 
ROOT
ATOM      1  C1  <0> d          -0.018   1.440   0.010  0.00  0.00     0.055 C 
ATOM      2  C2  <0> d           1.480   1.831  -0.002  0.00  0.00     0.090 C 
ATOM      3  H1  <0> d           1.839   2.021   1.009  0.00  0.00     0.091 H 
ATOM      4  C3  <0> d           2.150   0.568  -0.595  0.00  0.00     0.145 C 
ATOM      5  H2  <0> d           2.667   0.809  -1.524  0.00  0.00     0.103 H 
ATOM      6  C4  <0> d           0.981  -0.368  -0.861  0.00  0.00     0.290 C 
ATOM      7  O1  <0> d           0.935  -1.258  -1.678  0.00  0.00    -0.262 OA
ATOM      8  O2  <0> d           0.002  -0.004   0.002  0.00  0.00    -0.317 OA
ATOM      9  H3  <0> d          -0.502   1.811   0.913  0.00  0.00     0.079 H 
ATOM     10  H4  <0> d          -0.520   1.821  -0.879  0.00  0.00     0.079 H 
ENDROOT
BRANCH   2  11
ATOM     11  O4  <0> d           1.702   2.968  -0.839  0.00  0.00    -0.390 OA
ATOM     12  H6  <0> d           1.233   3.764  -0.553  0.00  0.00     0.210 HD
ENDBRANCH   2  11
BRANCH   4  13
ATOM     13  O3  <0> d           3.055  -0.010   0.347  0.00  0.00    -0.383 OA
ATOM     14  H5  <0> d           3.502  -0.805   0.026  0.00  0.00     0.210 HD
ENDBRANCH   4  13
TORSDOF 2
