REMARK  1 active torsions:
REMARK  status: ('A' for Active; 'I' for Inactive)
REMARK    1  A    between atoms: C1_1  and  C2_2 
ROOT
ATOM      1  C2  <0> d           0.002  -0.004   0.002  0.00  0.00    -0.033 A 
ATOM      2  C3  <0> d           0.006  -0.689  -1.192  0.00  0.00    -0.075 A 
ATOM      3  C4  <0> d           0.025  -2.077  -1.212  0.00  0.00    -0.081 A 
ATOM      4  C5  <0> d           0.041  -2.788  -0.046  0.00  0.00    -0.068 A 
ATOM      5  C6  <0> d           0.037  -2.116   1.177  0.00  0.00     0.034 A 
ATOM      6  C7  <0> d           0.023  -0.710   1.203  0.00  0.00     0.069 A 
ATOM      7  N1  <0> d           0.030  -0.332   2.522  0.00  0.00    -0.276 N 
ATOM      8  H1  <0> d           0.020   0.583   2.844  0.00  0.00     0.189 HD
ATOM      9  N2  <0> d           0.053  -1.474   3.330  0.00  0.00    -0.162 NA
ATOM     10  C8  <0> d           0.050  -2.553   2.579  0.00  0.00     0.169 A 
ATOM     11  C9  <0> d           0.071  -3.907   3.044  0.00  0.00     0.122 C 
ATOM     12  N3  <0> d           0.087  -4.982   3.413  0.00  0.00    -0.190 NA
ATOM     13  H5  <0> d          -0.007  -0.141  -2.123  0.00  0.00     0.084 H 
ATOM     14  H6  <0> d           0.027  -2.599  -2.157  0.00  0.00     0.083 H 
ATOM     15  H7  <0> d           0.055  -3.868  -0.070  0.00  0.00     0.085 H 
ENDROOT
BRANCH   1  16
ATOM     16  C1  <0> d          -0.018   1.503   0.010  0.00  0.00    -0.049 C 
ATOM     17  H2  <0> d           1.004   1.880   0.003  0.00  0.00     0.033 H 
ATOM     18  H3  <0> d          -0.545   1.864  -0.873  0.00  0.00     0.033 H 
ATOM     19  H4  <0> d          -0.529   1.854   0.907  0.00  0.00     0.033 H 
ENDBRANCH   1  16
TORSDOF 1
