REMARK  4 active torsions:
REMARK  status: ('A' for Active; 'I' for Inactive)
REMARK    1  A    between atoms: C1_1  and  C2_2 
REMARK    2  A    between atoms: C2_2  and  O1_13 
REMARK    3  A    between atoms: C8_10  and  C9_11 
REMARK    4  A    between atoms: C8_10  and  C10_12 
ROOT
ATOM      1  C2  <0> d          -0.259  -0.091  -0.025  0.00  0.00     0.059 C 
ATOM      2  C3  <0> d          -1.627  -0.670   0.401  0.00  0.00    -0.032 C 
ATOM      3  C4  <0> d          -1.335  -1.440   1.726  0.00  0.00    -0.044 C 
ATOM      4  H1  <0> d          -2.196  -1.635   2.364  0.00  0.00     0.041 H 
ATOM      5  C5  <0> d          -0.520  -2.692   1.278  0.00  0.00    -0.060 C 
ATOM      6  C6  <0> d           0.852  -2.130   0.841  0.00  0.00    -0.058 C 
ATOM      7  C7  <0> d           0.731  -0.564   1.082  0.00  0.00    -0.018 C 
ATOM      8  H2  <0> d           1.667  -0.009   1.154  0.00  0.00     0.045 H 
ATOM      9  C8  <0> d          -0.206  -0.539   2.341  0.00  0.00    -0.038 C 
ATOM     10  H6  <0> d          -2.342   0.133   0.579  0.00  0.00     0.038 H 
ATOM     11  H7  <0> d          -2.004  -1.354  -0.360  0.00  0.00     0.038 H 
ATOM     12  H8  <0> d          -0.399  -3.384   2.111  0.00  0.00     0.033 H 
ATOM     13  H9  <0> d          -1.013  -3.186   0.440  0.00  0.00     0.033 H 
ATOM     14  H10 <0> d           1.647  -2.546   1.459  0.00  0.00     0.033 H 
ATOM     15  H11 <0> d           1.034  -2.347  -0.211  0.00  0.00     0.033 H 
ENDROOT
BRANCH   9  16
ATOM     16  C9  <0> d           0.450  -1.193   3.559  0.00  0.00    -0.069 C 
ATOM     17  H12 <0> d           0.873  -2.155   3.270  0.00  0.00     0.028 H 
ATOM     18  H13 <0> d           1.242  -0.546   3.936  0.00  0.00     0.028 H 
ATOM     19  H14 <0> d          -0.298  -1.343   4.337  0.00  0.00     0.028 H 
ENDBRANCH   9  16
BRANCH   9  20
ATOM     20  C10 <0> d          -0.706   0.873   2.655  0.00  0.00    -0.069 C 
ATOM     21  H15 <0> d          -1.121   0.895   3.663  0.00  0.00     0.028 H 
ATOM     22  H16 <0> d           0.124   1.575   2.588  0.00  0.00     0.028 H 
ATOM     23  H17 <0> d          -1.478   1.153   1.939  0.00  0.00     0.028 H 
ENDBRANCH   9  20
BRANCH   1  24
ATOM     24  C1  <0> d          -0.318   1.438  -0.070  0.00  0.00    -0.048 C 
ATOM     25  H3  <0> d           0.631   1.827  -0.437  0.00  0.00     0.031 H 
ATOM     26  H4  <0> d          -1.122   1.751  -0.736  0.00  0.00     0.031 H 
ATOM     27  H5  <0> d          -0.506   1.823   0.932  0.00  0.00     0.031 H 
ENDBRANCH   1  24
BRANCH   1  28
ATOM     28  O1  <0> d           0.131  -0.611  -1.297  0.00  0.00    -0.390 OA
ATOM     29  H18 <0> d          -0.465  -0.368  -2.020  0.00  0.00     0.210 HD
ENDBRANCH   1  28
TORSDOF 4
