REMARK  6 active torsions:
REMARK  status: ('A' for Active; 'I' for Inactive)
REMARK    1  A    between atoms: C1_1  and  C2_2 
REMARK    2  A    between atoms: C2_2  and  C3_3 
REMARK    3  A    between atoms: C3_3  and  C4_5 
REMARK    4  A    between atoms: C3_3  and  C7_9 
REMARK    5  A    between atoms: C4_5  and  C5_6 
REMARK    6  A    between atoms: C5_6  and  C6_7 
ROOT
ATOM      1  C3  <0> d          -0.735   3.332   1.335  0.00  0.00     0.031 C 
ATOM      2  H1  <0> d           0.193   3.838   1.069  0.00  0.00     0.056 H 
ENDROOT
BRANCH   1   3
ATOM      3  C2  <0> d          -0.484   1.826   1.432  0.00  0.00    -0.056 C 
ATOM      4  H5  <0> d          -0.231   1.435   0.447  0.00  0.00     0.033 H 
ATOM      5  H6  <0> d          -1.384   1.331   1.798  0.00  0.00     0.033 H 
BRANCH   3   6
ATOM      6  C1  <0> d           0.672   1.562   2.399  0.00  0.00    -0.076 C 
ATOM      7  H2  <0> d           0.942   0.507   2.364  0.00  0.00     0.027 H 
ATOM      8  H3  <0> d           0.366   1.826   3.411  0.00  0.00     0.027 H 
ATOM      9  H4  <0> d           1.532   2.167   2.110  0.00  0.00     0.027 H 
ENDBRANCH   3   6
ENDBRANCH   1   3
BRANCH   1  10
ATOM     10  C4  <0> d          -1.791   3.605   0.262  0.00  0.00    -0.043 C 
ATOM     11  H7  <0> d          -2.684   3.018   0.473  0.00  0.00     0.035 H 
ATOM     12  H8  <0> d          -2.045   4.665   0.264  0.00  0.00     0.035 H 
BRANCH  10  13
ATOM     13  C5  <0> d          -1.237   3.216  -1.110  0.00  0.00     0.017 C 
ATOM     14  H9  <0> d          -0.294   3.735  -1.282  0.00  0.00     0.049 H 
ATOM     15  H10 <0> d          -1.069   2.139  -1.141  0.00  0.00     0.049 H 
BRANCH  13  16
ATOM     16  C6  <0> d          -2.225   3.602  -2.179  0.00  0.00     0.172 C 
ATOM     17  O1  <0> d          -3.267   4.135  -1.875  0.00  0.00    -0.648 OA
ATOM     18  O3  <0> d          -1.950   3.355  -3.469  0.00  0.00    -0.648 OA
ENDBRANCH  13  16
ENDBRANCH  10  13
ENDBRANCH   1  10
BRANCH   1  19
ATOM     19  C7  <0> d          -1.225   3.847   2.664  0.00  0.00     0.177 C 
ATOM     20  O2  <0> d          -2.307   4.377   2.745  0.00  0.00    -0.648 OA
ATOM     21  O4  <0> d          -0.458   3.715   3.759  0.00  0.00    -0.648 OA
ENDBRANCH   1  19
TORSDOF 6
