REMARK  7 active torsions:
REMARK  status: ('A' for Active; 'I' for Inactive)
REMARK    1  A    between atoms: C1_1  and  C2_2 
REMARK    2  A    between atoms: C2_2  and  C3_3 
REMARK    3  A    between atoms: C3_3  and  O1_4 
REMARK    4  A    between atoms: O1_4  and  C4_5 
REMARK    5  A    between atoms: C4_5  and  C5_6 
REMARK    6  A    between atoms: C5_6  and  C6_8 
REMARK    7  A    between atoms: C5_6  and  O2_9 
ROOT
ATOM      1  O1  <0> d           0.738  -1.926  -1.265  0.00  0.00    -0.389 OA
ENDROOT
BRANCH   1   2
ATOM      2  C3  <0> d           0.718  -0.497  -1.257  0.00  0.00     0.019 C 
ATOM      3  H7  <0> d           0.191  -0.136  -2.140  0.00  0.00     0.074 H 
ATOM      4  H8  <0> d           1.741  -0.120  -1.264  0.00  0.00     0.074 H 
BRANCH   2   5
ATOM      5  C2  <0> d           0.002  -0.004   0.002  0.00  0.00    -0.049 C 
ATOM      6  H5  <0> d           0.529  -0.365   0.885  0.00  0.00     0.035 H 
ATOM      7  H6  <0> d          -1.020  -0.381   0.010  0.00  0.00     0.035 H 
BRANCH   5   8
ATOM      8  C1  <0> d          -0.019   1.526   0.010  0.00  0.00    -0.075 C 
ATOM      9  H2  <0> d           1.004   1.903   0.003  0.00  0.00     0.027 H 
ATOM     10  H3  <0> d          -0.546   1.887  -0.873  0.00  0.00     0.027 H 
ATOM     11  H4  <0> d          -0.529   1.877   0.907  0.00  0.00     0.027 H 
ENDBRANCH   5   8
ENDBRANCH   2   5
ENDBRANCH   1   2
BRANCH   1  12
ATOM     12  C4  <0> d           1.387  -2.493  -2.405  0.00  0.00     0.043 C 
ATOM     13  H9  <0> d           0.874  -2.173  -3.311  0.00  0.00     0.078 H 
ATOM     14  H10 <0> d           2.424  -2.157  -2.436  0.00  0.00     0.078 H 
BRANCH  12  15
ATOM     15  C5  <0> d           1.349  -4.019  -2.308  0.00  0.00     0.052 C 
ATOM     16  H1  <0> d           1.920  -4.450  -3.130  0.00  0.00     0.085 H 
BRANCH  15  17
ATOM     17  C6  <0> d           1.958  -4.461  -0.976  0.00  0.00    -0.051 C 
ATOM     18  H11 <0> d           1.387  -4.030  -0.154  0.00  0.00     0.031 H 
ATOM     19  H12 <0> d           1.931  -5.549  -0.907  0.00  0.00     0.031 H 
ATOM     20  H13 <0> d           2.992  -4.120  -0.918  0.00  0.00     0.031 H 
ENDBRANCH  15  17
BRANCH  15  21
ATOM     21  O2  <0> d          -0.006  -4.467  -2.384  0.00  0.00    -0.394 OA
ATOM     22  H14 <0> d          -0.107  -5.427  -2.329  0.00  0.00     0.210 HD
ENDBRANCH  15  21
ENDBRANCH  12  15
ENDBRANCH   1  12
TORSDOF 7
