REMARK  3 active torsions:
REMARK  status: ('A' for Active; 'I' for Inactive)
REMARK    1  A    between atoms: C1_1  and  C2_2 
REMARK    2  A    between atoms: C6_6  and  C8_8 
REMARK    3  A    between atoms: C8_8  and  O1_9 
ROOT
ATOM      1  C2  <0> d          -1.219   1.751   0.017  0.00  0.00    -0.061 A 
ATOM      2  C3  <0> d          -0.013   1.076   0.008  0.00  0.00    -0.077 A 
ATOM      3  C4  <0> d           1.175   1.783   0.000  0.00  0.00    -0.082 A 
ATOM      4  C5  <0> d           1.156   3.166   0.008  0.00  0.00    -0.075 A 
ATOM      5  C6  <0> d          -0.050   3.840   0.022  0.00  0.00    -0.034 A 
ATOM      6  C7  <0> d          -1.238   3.133   0.030  0.00  0.00    -0.069 A 
ATOM      7  H4  <0> d           0.002  -0.004   0.002  0.00  0.00     0.084 H 
ATOM      8  H5  <0> d           2.117   1.256  -0.011  0.00  0.00     0.083 H 
ATOM      9  H6  <0> d           2.084   3.718   0.001  0.00  0.00     0.084 H 
ATOM     10  H7  <0> d          -2.180   3.660   0.042  0.00  0.00     0.085 H 
ENDROOT
BRANCH   5  11
ATOM     11  C8  <0> d          -0.070   5.347   0.030  0.00  0.00     0.040 C 
ATOM     12  H8  <0> d          -0.961   5.696   0.554  0.00  0.00     0.081 H 
ATOM     13  H9  <0> d           0.819   5.720   0.538  0.00  0.00     0.081 H 
BRANCH  11  14
ATOM     14  O1  <0> d          -0.090   5.830  -1.315  0.00  0.00    -0.396 OA
ATOM     15  H10 <0> d          -0.103   6.794  -1.386  0.00  0.00     0.209 HD
ENDBRANCH  11  14
ENDBRANCH   5  11
BRANCH   1  16
ATOM     16  C1  <0> d          -2.514   0.980   0.019  0.00  0.00    -0.051 C 
ATOM     17  H1  <0> d          -2.821   0.788   1.047  0.00  0.00     0.033 H 
ATOM     18  H2  <0> d          -3.284   1.561  -0.488  0.00  0.00     0.033 H 
ATOM     19  H3  <0> d          -2.373   0.032  -0.500  0.00  0.00     0.033 H 
ENDBRANCH   1  16
TORSDOF 3
