REMARK  1 active torsions:
REMARK  status: ('A' for Active; 'I' for Inactive)
REMARK    1  A    between atoms: C1_1  and  C2_2 
ROOT
ATOM      1  C2  <0> d          -1.550   2.577   1.245  0.00  0.00     0.049 C 
ATOM      2  C3  <0> d          -0.717   1.571   1.245  0.00  0.00    -0.074 C 
ATOM      3  C4  <0> d          -0.013   1.086   0.008  0.00  0.00    -0.039 C 
ATOM      4  C5  <0> d          -0.755   1.594  -1.235  0.00  0.00     0.019 C 
ATOM      5  C6  <0> d          -1.141   3.037  -0.971  0.00  0.00     0.264 C 
ATOM      6  O1  <0> d          -0.805   3.929  -1.713  0.00  0.00    -0.265 OA
ATOM      7  O2  <0> d          -1.878   3.277   0.134  0.00  0.00    -0.284 OA
ATOM      8  H4  <0> d          -0.525   1.063   2.178  0.00  0.00     0.080 H 
ATOM      9  H5  <0> d           0.002  -0.004   0.002  0.00  0.00     0.039 H 
ATOM     10  H6  <0> d           1.010   1.463   0.000  0.00  0.00     0.039 H 
ATOM     11  H7  <0> d          -0.102   1.538  -2.106  0.00  0.00     0.048 H 
ATOM     12  H8  <0> d          -1.650   0.995  -1.403  0.00  0.00     0.048 H 
ENDROOT
BRANCH   1  13
ATOM     13  C1  <0> d          -2.180   2.979   2.553  0.00  0.00    -0.032 C 
ATOM     14  H1  <0> d          -2.845   3.827   2.390  0.00  0.00     0.036 H 
ATOM     15  H2  <0> d          -2.751   2.142   2.954  0.00  0.00     0.036 H 
ATOM     16  H3  <0> d          -1.400   3.260   3.261  0.00  0.00     0.036 H 
ENDBRANCH   1  13
TORSDOF 1
