REMARK  10 active torsions:
REMARK  status: ('A' for Active; 'I' for Inactive)
REMARK    1  A    between atoms: C1_1  and  C2_2 
REMARK    2  A    between atoms: C2_2  and  C3_4 
REMARK    3  A    between atoms: C2_2  and  C9_10 
REMARK    4  A    between atoms: C3_4  and  C4_5 
REMARK    5  A    between atoms: C4_5  and  C5_6 
REMARK    6  A    between atoms: C5_6  and  C6_7 
REMARK    7  A    between atoms: C6_7  and  C7_8 
REMARK    8  A    between atoms: C6_7  and  C8_9 
REMARK    9  A    between atoms: C9_10  and  C10_11 
REMARK   10  A    between atoms: C10_11  and  O1_12 
ROOT
ATOM      1  C3  <0> d           0.742  -0.511   1.242  0.00  0.00    -0.062 C 
ATOM      2  H5  <0> d           0.285  -0.087   2.136  0.00  0.00     0.033 H 
ATOM      3  H6  <0> d           0.680  -1.598   1.282  0.00  0.00     0.033 H 
ENDROOT
BRANCH   1   4
ATOM      4  C2  <0> d           0.002  -0.004   0.002  0.00  0.00    -0.056 C 
ATOM      5  H1  <0> d           0.512  -0.356  -0.895  0.00  0.00     0.039 H 
BRANCH   4   6
ATOM      6  C1  <0> d          -0.019   1.526   0.010  0.00  0.00    -0.073 C 
ATOM      7  H2  <0> d           1.004   1.903   0.003  0.00  0.00     0.028 H 
ATOM      8  H3  <0> d          -0.546   1.887  -0.873  0.00  0.00     0.028 H 
ATOM      9  H4  <0> d          -0.529   1.877   0.907  0.00  0.00     0.028 H 
ENDBRANCH   4   6
BRANCH   4  10
ATOM     10  C9  <0> d          -1.433  -0.534   0.013  0.00  0.00    -0.042 C 
ATOM     11  H18 <0> d          -1.419  -1.620   0.097  0.00  0.00     0.036 H 
ATOM     12  H19 <0> d          -1.970  -0.111   0.862  0.00  0.00     0.036 H 
BRANCH  10  13
ATOM     13  C10 <0> d          -2.135  -0.131  -1.286  0.00  0.00     0.017 C 
ATOM     14  H20 <0> d          -2.150   0.956  -1.369  0.00  0.00     0.073 H 
ATOM     15  H21 <0> d          -1.598  -0.554  -2.135  0.00  0.00     0.073 H 
BRANCH  13  16
ATOM     16  O1  <0> d          -3.476  -0.626  -1.276  0.00  0.00    -0.401 OA
ATOM     17  H22 <0> d          -3.982  -0.407  -2.070  0.00  0.00     0.209 HD
ENDBRANCH  13  16
ENDBRANCH  10  13
ENDBRANCH   4  10
ENDBRANCH   1   4
BRANCH   1  18
ATOM     18  C4  <0> d           2.210  -0.086   1.169  0.00  0.00    -0.064 C 
ATOM     19  H7  <0> d           2.667  -0.509   0.274  0.00  0.00     0.033 H 
ATOM     20  H8  <0> d           2.272   1.002   1.128  0.00  0.00     0.033 H 
BRANCH  18  21
ATOM     21  C5  <0> d           2.950  -0.593   2.408  0.00  0.00    -0.062 C 
ATOM     22  H9  <0> d           2.493  -0.169   3.303  0.00  0.00     0.033 H 
ATOM     23  H10 <0> d           2.888  -1.680   2.449  0.00  0.00     0.033 H 
BRANCH  21  24
ATOM     24  C6  <0> d           4.418  -0.168   2.335  0.00  0.00    -0.061 C 
ATOM     25  H11 <0> d           4.477   0.913   2.205  0.00  0.00     0.038 H 
BRANCH  24  26
ATOM     26  C7  <0> d           5.129  -0.565   3.630  0.00  0.00    -0.073 C 
ATOM     27  H12 <0> d           5.070  -1.646   3.760  0.00  0.00     0.028 H 
ATOM     28  H13 <0> d           6.175  -0.262   3.578  0.00  0.00     0.028 H 
ATOM     29  H14 <0> d           4.649  -0.071   4.475  0.00  0.00     0.028 H 
ENDBRANCH  24  26
BRANCH  24  30
ATOM     30  C8  <0> d           5.091  -0.862   1.149  0.00  0.00    -0.073 C 
ATOM     31  H15 <0> d           6.137  -0.559   1.097  0.00  0.00     0.028 H 
ATOM     32  H16 <0> d           5.032  -1.942   1.280  0.00  0.00     0.028 H 
ATOM     33  H17 <0> d           4.585  -0.578   0.227  0.00  0.00     0.028 H 
ENDBRANCH  24  30
ENDBRANCH  21  24
ENDBRANCH  18  21
ENDBRANCH   1  18
TORSDOF 10
