REMARK  5 active torsions:
REMARK  status: ('A' for Active; 'I' for Inactive)
REMARK    1  A    between atoms: C1_1  and  C2_2 
REMARK    2  A    between atoms: C2_2  and  C3_3 
REMARK    3  A    between atoms: C3_3  and  C4_4 
REMARK    4  A    between atoms: C7_8  and  C10_14 
REMARK    5  A    between atoms: C9_11  and  O1_13 
ROOT
ATOM      1  C4  <0> d          -1.436   1.075  -1.531  0.00  0.00    -0.029 C 
ATOM      2  H1  <0> d          -1.421  -0.015  -1.537  0.00  0.00     0.043 H 
ATOM      3  C5  <0> d          -2.474   1.565  -0.521  0.00  0.00    -0.059 C 
ATOM      4  C6  <0> d          -2.111   1.053   0.874  0.00  0.00    -0.061 C 
ATOM      5  C7  <0> d          -0.729   1.579   1.267  0.00  0.00    -0.055 C 
ATOM      6  H2  <0> d          -0.470   1.214   2.260  0.00  0.00     0.039 H 
ATOM      7  C8  <0> d           0.310   1.089   0.256  0.00  0.00    -0.038 C 
ATOM      8  C9  <0> d          -0.054   1.602  -1.139  0.00  0.00     0.039 C 
ATOM      9  H3  <0> d           0.686   1.252  -1.859  0.00  0.00     0.083 H 
ATOM     10  H11 <0> d          -2.489   2.655  -0.515  0.00  0.00     0.033 H 
ATOM     11  H12 <0> d          -3.459   1.190  -0.800  0.00  0.00     0.033 H 
ATOM     12  H13 <0> d          -2.851   1.402   1.594  0.00  0.00     0.033 H 
ATOM     13  H14 <0> d          -2.096  -0.037   0.868  0.00  0.00     0.033 H 
ATOM     14  H15 <0> d           0.325  -0.001   0.250  0.00  0.00     0.037 H 
ATOM     15  H16 <0> d           1.294   1.464   0.536  0.00  0.00     0.037 H 
ENDROOT
BRANCH   1  16
ATOM     16  C3  <0> d          -1.800   1.588  -2.926  0.00  0.00    -0.060 C 
ATOM     17  H9  <0> d          -1.901   2.673  -2.899  0.00  0.00     0.033 H 
ATOM     18  H10 <0> d          -1.014   1.314  -3.630  0.00  0.00     0.033 H 
BRANCH  16  19
ATOM     19  C2  <0> d          -3.123   0.962  -3.370  0.00  0.00    -0.068 C 
ATOM     20  H7  <0> d          -3.022  -0.123  -3.397  0.00  0.00     0.032 H 
ATOM     21  H8  <0> d          -3.909   1.236  -2.666  0.00  0.00     0.032 H 
BRANCH  19  22
ATOM     22  C1  <0> d          -3.487   1.475  -4.765  0.00  0.00    -0.077 C 
ATOM     23  H4  <0> d          -3.589   2.560  -4.738  0.00  0.00     0.027 H 
ATOM     24  H5  <0> d          -2.701   1.201  -5.469  0.00  0.00     0.027 H 
ATOM     25  H6  <0> d          -4.430   1.029  -5.082  0.00  0.00     0.027 H 
ENDBRANCH  19  22
ENDBRANCH  16  19
ENDBRANCH   1  16
BRANCH   8  26
ATOM     26  O1  <0> d          -0.073   3.030  -1.131  0.00  0.00    -0.395 OA
ATOM     27  H17 <0> d           0.772   3.434  -0.890  0.00  0.00     0.210 HD
ENDBRANCH   8  26
BRANCH   5  28
ATOM     28  C10 <0> d          -0.750   3.109   1.275  0.00  0.00    -0.073 C 
ATOM     29  H18 <0> d          -1.198   3.471   0.350  0.00  0.00     0.028 H 
ATOM     30  H19 <0> d          -1.336   3.460   2.125  0.00  0.00     0.028 H 
ATOM     31  H20 <0> d           0.270   3.486   1.357  0.00  0.00     0.028 H 
ENDBRANCH   5  28
TORSDOF 5
