REMARK  1 active torsions:
REMARK  status: ('A' for Active; 'I' for Inactive)
REMARK    1  A    between atoms: C1_1  and  C2_2 
ROOT
ATOM      1  C2  <0> d           1.284   3.102   0.055  0.00  0.00     0.020 C 
ATOM      2  H1  <0> d           1.564   3.405   1.064  0.00  0.00     0.054 H 
ATOM      3  C3  <0> d          -0.051   3.752  -0.317  0.00  0.00    -0.052 C 
ATOM      4  C4  <0> d          -1.161   3.078   0.498  0.00  0.00    -0.050 C 
ATOM      5  C5  <0> d          -1.308   1.631   0.017  0.00  0.00    -0.005 C 
ATOM      6  N1  <0> d          -0.011   0.966   0.007  0.00  0.00    -0.361 N 
ATOM      7  C6  <0> d           1.158   1.607  -0.000  0.00  0.00     0.221 C 
ATOM      8  O1  <0> d           2.174   0.947  -0.056  0.00  0.00    -0.273 OA
ATOM      9  H5  <0> d          -0.019   4.816  -0.084  0.00  0.00     0.034 H 
ATOM     10  H6  <0> d          -0.242   3.614  -1.381  0.00  0.00     0.034 H 
ATOM     11  H7  <0> d          -0.898   3.091   1.556  0.00  0.00     0.035 H 
ATOM     12  H8  <0> d          -2.100   3.609   0.346  0.00  0.00     0.035 H 
ATOM     13  H9  <0> d          -1.725   1.623  -0.990  0.00  0.00     0.064 H 
ATOM     14  H10 <0> d          -1.982   1.097   0.688  0.00  0.00     0.064 H 
ATOM     15  H11 <0> d           0.002  -0.004   0.002  0.00  0.00     0.162 HD
ENDROOT
BRANCH   1  16
ATOM     16  C1  <0> d           2.363   3.558  -0.930  0.00  0.00    -0.065 C 
ATOM     17  H2  <0> d           2.086   3.253  -1.939  0.00  0.00     0.028 H 
ATOM     18  H3  <0> d           2.456   4.643  -0.890  0.00  0.00     0.028 H 
ATOM     19  H4  <0> d           3.316   3.102  -0.661  0.00  0.00     0.028 H 
ENDBRANCH   1  16
TORSDOF 1
