REMARK  0 active torsions:
REMARK  status: ('A' for Active; 'I' for Inactive)
ROOT
ATOM      1  C1  <0> d          -0.017   1.386   0.010  0.00  0.00     0.056 A 
ATOM      2  C2  <0> d           0.002  -0.004   0.002  0.00  0.00     0.219 A 
ATOM      3  N1  <0> d          -1.138  -0.680   0.009  0.00  0.00    -0.207 NA
ATOM      4  C3  <0> d          -2.290  -0.030   0.024  0.00  0.00     0.146 A 
ATOM      5  C4  <0> d          -2.305   1.354   0.031  0.00  0.00     0.041 A 
ATOM      6  N2  <0> d          -1.169   2.030   0.030  0.00  0.00    -0.265 NA
ATOM      7 Cl1  <0> d          -3.785  -0.914   0.033  0.00  0.00    -0.061 Cl
ATOM      8  O1  <0> d           1.185  -0.668  -0.013  0.00  0.00    -0.169 OA
ATOM      9  H1  <0> d           0.911   1.939   0.004  0.00  0.00     0.121 H 
ATOM     10  H2  <0> d          -3.247   1.883   0.043  0.00  0.00     0.119 H 
ENDROOT
TORSDOF 0
