REMARK  7 active torsions:
REMARK  status: ('A' for Active; 'I' for Inactive)
REMARK    1  A    between atoms: C1_1  and  C2_2 
REMARK    2  A    between atoms: C2_2  and  C3_3 
REMARK    3  A    between atoms: C3_3  and  C4_5 
REMARK    4  A    between atoms: C3_3  and  O3_11 
REMARK    5  A    between atoms: C5_6  and  C6_7 
REMARK    6  A    between atoms: C6_7  and  O2_9 
REMARK    7  A    between atoms: O2_9  and  C7_10 
ROOT
ATOM      1  C3  <0> d          -0.750   3.109   1.275  0.00  0.00     0.094 C 
ATOM      2  H1  <0> d           0.268   3.487   1.178  0.00  0.00     0.103 H 
ENDROOT
BRANCH   1   3
ATOM      3  C2  <0> d          -0.729   1.579   1.267  0.00  0.00    -0.034 C 
ATOM      4  H5  <0> d          -1.751   1.202   1.275  0.00  0.00     0.037 H 
ATOM      5  H6  <0> d          -0.202   1.218   2.150  0.00  0.00     0.037 H 
BRANCH   3   6
ATOM      6  C1  <0> d          -0.013   1.086   0.008  0.00  0.00    -0.073 C 
ATOM      7  H2  <0> d           0.002  -0.004   0.002  0.00  0.00     0.027 H 
ATOM      8  H3  <0> d           1.010   1.463   0.000  0.00  0.00     0.027 H 
ATOM      9  H4  <0> d          -0.540   1.447  -0.875  0.00  0.00     0.027 H 
ENDBRANCH   3   6
ENDBRANCH   1   3
BRANCH   1  10
ATOM     10  C4  <0> d          -1.331   3.585   2.541  0.00  0.00    -0.064 C 
ATOM     11  C5  <0> d          -1.794   3.965   3.551  0.00  0.00     0.005 C 
BRANCH  11  12
ATOM     12  C6  <0> d          -2.359   4.427   4.782  0.00  0.00     0.338 C 
ATOM     13  O1  <0> d          -2.467   5.620   4.991  0.00  0.00    -0.249 OA
BRANCH  12  14
ATOM     14  O2  <0> d          -2.772   3.541   5.710  0.00  0.00    -0.316 OA
BRANCH  14  15
ATOM     15  C7  <0> d          -3.334   4.081   6.935  0.00  0.00     0.014 C 
ATOM     16  H7  <0> d          -2.590   4.702   7.433  0.00  0.00     0.067 H 
ATOM     17  H8  <0> d          -4.211   4.684   6.696  0.00  0.00     0.067 H 
ATOM     18  H9  <0> d          -3.625   3.263   7.593  0.00  0.00     0.067 H 
ENDBRANCH  14  15
ENDBRANCH  12  14
ENDBRANCH  11  12
ENDBRANCH   1  10
BRANCH   1  19
ATOM     19  O3  <0> d          -1.539   3.581   0.182  0.00  0.00    -0.383 OA
ATOM     20  H10 <0> d          -2.459   3.283   0.203  0.00  0.00     0.211 HD
ENDBRANCH   1  19
TORSDOF 7
