REMARK  0 active torsions:
REMARK  status: ('A' for Active; 'I' for Inactive)
ROOT
ATOM      1  C1  <0> d           1.176   1.782   0.000  0.00  0.00    -0.078 A 
ATOM      2  C2  <0> d           1.157   3.162   0.009  0.00  0.00    -0.057 A 
ATOM      3  C3  <0> d          -0.055   3.843   0.025  0.00  0.00     0.037 A 
ATOM      4  C4  <0> d          -1.248   3.136   0.030  0.00  0.00     0.007 A 
ATOM      5  C5  <0> d          -1.221   1.750   0.017  0.00  0.00     0.124 A 
ATOM      6  C6  <0> d          -0.013   1.076   0.008  0.00  0.00    -0.045 A 
ATOM      7  F1  <0> d          -2.380   1.055   0.019  0.00  0.00    -0.205 F 
ATOM      8  C7  <0> d          -2.579   3.840   0.036  0.00  0.00    -0.035 C 
ATOM      9  C8  <0> d          -2.425   5.273   0.545  0.00  0.00    -0.046 C 
ATOM     10  C9  <0> d          -1.301   5.960  -0.241  0.00  0.00    -0.007 C 
ATOM     11  N1  <0> d          -0.051   5.242   0.042  0.00  0.00    -0.389 N 
ATOM     12  H1  <0> d           2.118   1.254  -0.013  0.00  0.00     0.083 H 
ATOM     13  H2  <0> d           2.086   3.714   0.004  0.00  0.00     0.086 H 
ATOM     14  H3  <0> d           0.002  -0.004   0.002  0.00  0.00     0.088 H 
ATOM     15  H4  <0> d          -2.981   3.859  -0.977  0.00  0.00     0.040 H 
ATOM     16  H5  <0> d          -3.268   3.300   0.687  0.00  0.00     0.040 H 
ATOM     17  H6  <0> d          -3.359   5.816   0.397  0.00  0.00     0.035 H 
ATOM     18  H7  <0> d          -2.173   5.259   1.605  0.00  0.00     0.035 H 
ATOM     19  H8  <0> d          -1.518   5.917  -1.309  0.00  0.00     0.064 H 
ATOM     20  H9  <0> d          -1.210   6.999   0.076  0.00  0.00     0.064 H 
ATOM     21  H10 <0> d           0.764   5.730   0.237  0.00  0.00     0.159 HD
ENDROOT
TORSDOF 0
