REMARK  1 active torsions:
REMARK  status: ('A' for Active; 'I' for Inactive)
REMARK    1  A    between atoms: C8_8  and  O1_10 
ROOT
ATOM      1  C1  <0> d           4.009   5.025   1.788  0.00  0.00    -0.082 A 
ATOM      2  C2  <0> d           4.499   3.974   2.541  0.00  0.00    -0.082 A 
ATOM      3  C3  <0> d           3.915   2.727   2.446  0.00  0.00    -0.076 A 
ATOM      4  C4  <0> d           2.838   2.524   1.599  0.00  0.00    -0.049 A 
ATOM      5  C5  <0> d           2.348   3.574   0.846  0.00  0.00    -0.049 A 
ATOM      6  C6  <0> d           2.936   4.825   0.943  0.00  0.00    -0.076 A 
ATOM      7  C7  <0> d           1.180   3.102   0.007  0.00  0.00    -0.016 C 
ATOM      8  C8  <0> d           1.286   1.562  -0.002  0.00  0.00     0.043 C 
ATOM      9  C9  <0> d           2.033   1.273   1.318  0.00  0.00    -0.016 C 
ATOM     10  H1  <0> d           4.465   6.002   1.861  0.00  0.00     0.083 H 
ATOM     11  H2  <0> d           5.339   4.129   3.203  0.00  0.00     0.083 H 
ATOM     12  H3  <0> d           4.298   1.906   3.035  0.00  0.00     0.084 H 
ATOM     13  H4  <0> d           2.553   5.646   0.354  0.00  0.00     0.084 H 
ATOM     14  H5  <0> d           1.260   3.492  -1.007  0.00  0.00     0.043 H 
ATOM     15  H6  <0> d           0.238   3.413   0.459  0.00  0.00     0.043 H 
ATOM     16  H7  <0> d           1.864   1.218  -0.860  0.00  0.00     0.083 H 
ATOM     17  H8  <0> d           1.321   1.093   2.123  0.00  0.00     0.043 H 
ATOM     18  H9  <0> d           2.695   0.416   1.198  0.00  0.00     0.043 H 
ENDROOT
BRANCH   8  19
ATOM     19  O1  <0> d          -0.011   0.963   0.007  0.00  0.00    -0.395 OA
ATOM     20  H10 <0> d           0.002  -0.004   0.002  0.00  0.00     0.210 HD
ENDBRANCH   8  19
TORSDOF 1
