REMARK  2 active torsions:
REMARK  status: ('A' for Active; 'I' for Inactive)
REMARK    1  A    between atoms: C1_1  and  C2_2 
REMARK    2  A    between atoms: C2_2  and  C3_3 
ROOT
ATOM      1  C3  <0> d           0.742  -0.511   1.242  0.00  0.00    -0.028 C 
ATOM      2  H1  <0> d           1.733  -0.061   1.300  0.00  0.00     0.047 H 
ATOM      3  C4  <0> d           0.854  -2.050   1.207  0.00  0.00    -0.054 C 
ATOM      4  C5  <0> d          -0.398  -2.491   1.994  0.00  0.00    -0.040 C 
ATOM      5  C6  <0> d          -0.708  -1.337   2.924  0.00  0.00    -0.051 A 
ATOM      6  C7  <0> d          -0.051  -0.197   2.492  0.00  0.00    -0.048 A 
ATOM      7  C8  <0> d          -0.188   0.988   3.194  0.00  0.00    -0.076 A 
ATOM      8  C9  <0> d          -0.978   1.038   4.326  0.00  0.00    -0.082 A 
ATOM      9  C10 <0> d          -1.635  -0.098   4.760  0.00  0.00    -0.082 A 
ATOM     10  C11 <0> d          -1.500  -1.287   4.059  0.00  0.00    -0.076 A 
ATOM     11  H7  <0> d           0.816  -2.418   0.181  0.00  0.00     0.034 H 
ATOM     12  H8  <0> d           1.763  -2.384   1.706  0.00  0.00     0.034 H 
ATOM     13  H9  <0> d          -1.232  -2.662   1.313  0.00  0.00     0.040 H 
ATOM     14  H10 <0> d          -0.186  -3.393   2.568  0.00  0.00     0.040 H 
ATOM     15  H11 <0> d           0.324   1.876   2.856  0.00  0.00     0.084 H 
ATOM     16  H12 <0> d          -1.082   1.964   4.872  0.00  0.00     0.083 H 
ATOM     17  H13 <0> d          -2.252  -0.061   5.645  0.00  0.00     0.083 H 
ATOM     18  H14 <0> d          -2.012  -2.176   4.397  0.00  0.00     0.084 H 
ENDROOT
BRANCH   1  19
ATOM     19  C2  <0> d           0.002  -0.004   0.002  0.00  0.00    -0.061 C 
ATOM     20  H5  <0> d          -1.020  -0.381   0.010  0.00  0.00     0.033 H 
ATOM     21  H6  <0> d           0.512  -0.356  -0.895  0.00  0.00     0.033 H 
BRANCH  19  22
ATOM     22  C1  <0> d          -0.019   1.526   0.010  0.00  0.00    -0.076 C 
ATOM     23  H2  <0> d           1.004   1.903   0.003  0.00  0.00     0.027 H 
ATOM     24  H3  <0> d          -0.546   1.887  -0.873  0.00  0.00     0.027 H 
ATOM     25  H4  <0> d          -0.529   1.877   0.907  0.00  0.00     0.027 H 
ENDBRANCH  19  22
ENDBRANCH   1  19
TORSDOF 2
