REMARK  1 active torsions:
REMARK  status: ('A' for Active; 'I' for Inactive)
REMARK    1  A    between atoms: C1_1  and  N1_2 
ROOT
ATOM      1  N1  <0> d          -0.733   3.160   0.025  0.00  0.00    -0.353 N 
ATOM      2  C2  <0> d          -1.117   1.858   0.017  0.00  0.00    -0.020 A 
ATOM      3  C3  <0> d          -0.013   1.076   0.008  0.00  0.00    -0.065 A 
ATOM      4  C4  <0> d           1.107   1.915   0.002  0.00  0.00    -0.045 A 
ATOM      5  C5  <0> d           0.642   3.213   0.013  0.00  0.00     0.115 A 
ATOM      6  C6  <0> d           1.443   4.399   0.011  0.00  0.00     0.117 C 
ATOM      7  N2  <0> d           2.079   5.341   0.009  0.00  0.00    -0.190 NA
ATOM      8  H4  <0> d          -2.138   1.504   0.019  0.00  0.00     0.111 H 
ATOM      9  H5  <0> d           0.002  -0.004   0.002  0.00  0.00     0.085 H 
ATOM     10  H6  <0> d           2.142   1.605  -0.009  0.00  0.00     0.088 H 
ENDROOT
BRANCH   1  11
ATOM     11  C1  <0> d          -1.633   4.316   0.039  0.00  0.00    -0.014 C 
ATOM     12  H1  <0> d          -1.865   4.608  -0.985  0.00  0.00     0.057 H 
ATOM     13  H2  <0> d          -2.553   4.054   0.560  0.00  0.00     0.057 H 
ATOM     14  H3  <0> d          -1.148   5.147   0.552  0.00  0.00     0.057 H 
ENDBRANCH   1  11
TORSDOF 1
