REMARK  6 active torsions:
REMARK  status: ('A' for Active; 'I' for Inactive)
REMARK    1  A    between atoms: C1_1  and  C2_2 
REMARK    2  A    between atoms: C2_2  and  C3_3 
REMARK    3  A    between atoms: C3_3  and  C4_4 
REMARK    4  A    between atoms: C4_4  and  C5_6 
REMARK    5  A    between atoms: C4_4  and  O1_9 
REMARK    6  A    between atoms: C5_6  and  C6_7 
ROOT
ATOM      1  C4  <0> d          -0.729   1.579   1.267  0.00  0.00     0.038 C 
ATOM      2  H1  <0> d          -0.822   2.665   1.230  0.00  0.00     0.083 H 
ENDROOT
BRANCH   1   3
ATOM      3  C3  <0> d          -0.013   1.086   0.008  0.00  0.00    -0.041 C 
ATOM      4  H7  <0> d           0.002  -0.004   0.002  0.00  0.00     0.036 H 
ATOM      5  H8  <0> d           1.010   1.463   0.000  0.00  0.00     0.036 H 
BRANCH   3   6
ATOM      6  C2  <0> d          -0.753   1.593  -1.232  0.00  0.00    -0.066 C 
ATOM      7  H5  <0> d          -1.775   1.215  -1.224  0.00  0.00     0.032 H 
ATOM      8  H6  <0> d          -0.767   2.683  -1.226  0.00  0.00     0.032 H 
BRANCH   6   9
ATOM      9  C1  <0> d          -0.037   1.099  -2.490  0.00  0.00    -0.076 C 
ATOM     10  H2  <0> d          -0.022   0.009  -2.496  0.00  0.00     0.027 H 
ATOM     11  H3  <0> d          -0.564   1.460  -3.373  0.00  0.00     0.027 H 
ATOM     12  H4  <0> d           0.986   1.476  -2.498  0.00  0.00     0.027 H 
ENDBRANCH   6   9
ENDBRANCH   3   6
ENDBRANCH   1   3
BRANCH   1  13
ATOM     13  C5  <0> d           0.079   1.179   2.503  0.00  0.00    -0.027 C 
ATOM     14  H9  <0> d           0.097   0.092   2.589  0.00  0.00     0.042 H 
ATOM     15  H10 <0> d           1.098   1.553   2.408  0.00  0.00     0.042 H 
BRANCH  13  16
ATOM     16  C6  <0> d          -0.560   1.769   3.733  0.00  0.00    -0.110 C 
ATOM     17  C7  <0> d          -0.899   0.992   4.732  0.00  0.00    -0.125 C 
ATOM     18  H12 <0> d          -1.357   1.415   5.614  0.00  0.00     0.066 H 
ATOM     19  H13 <0> d          -0.721  -0.071   4.674  0.00  0.00     0.066 H 
ATOM     20  H11 <0> d          -0.739   2.832   3.792  0.00  0.00     0.075 H 
ENDBRANCH  13  16
ENDBRANCH   1  13
BRANCH   1  21
ATOM     21  O1  <0> d          -2.030   0.991   1.336  0.00  0.00    -0.395 OA
ATOM     22  H14 <0> d          -2.023   0.025   1.372  0.00  0.00     0.210 HD
ENDBRANCH   1  21
TORSDOF 6
