REMARK  4 active torsions:
REMARK  status: ('A' for Active; 'I' for Inactive)
REMARK    1  A    between atoms: C1_1  and  C2_2 
REMARK    2  A    between atoms: C2_2  and  O1_3 
REMARK    3  A    between atoms: O1_3  and  C3_4 
REMARK       I    between atoms: C3_4  and  N1_6 
REMARK    4  A    between atoms: N1_6  and  C4_7 
ROOT
ATOM      1  C3  <0> d           2.949  -2.088  -0.038  0.00  0.00     0.379 C 
ATOM      2  O2  <0> d           3.782  -1.204  -0.041  0.00  0.00    -0.238 OA
ATOM      3  N1  <0> d           1.637  -1.778  -0.024  0.00  0.00    -0.128 N 
ATOM      4  H6  <0> d           0.972  -2.484  -0.021  0.00  0.00     0.190 HD
ENDROOT
BRANCH   1   5
ATOM      5  O1  <0> d           3.335  -3.378  -0.049  0.00  0.00    -0.304 OA
BRANCH   5   6
ATOM      6  C2  <0> d           4.763  -3.638  -0.065  0.00  0.00     0.027 C 
ATOM      7  H4  <0> d           5.204  -3.192  -0.957  0.00  0.00     0.074 H 
ATOM      8  H5  <0> d           5.222  -3.203   0.823  0.00  0.00     0.074 H 
BRANCH   6   9
ATOM      9  C1  <0> d           5.007  -5.149  -0.075  0.00  0.00    -0.056 C 
ATOM     10  H1  <0> d           4.566  -5.594   0.816  0.00  0.00     0.030 H 
ATOM     11  H2  <0> d           4.549  -5.584  -0.964  0.00  0.00     0.030 H 
ATOM     12  H3  <0> d           6.079  -5.344  -0.087  0.00  0.00     0.030 H 
ENDBRANCH   6   9
ENDBRANCH   5   6
ENDBRANCH   1   5
BRANCH   3  13
ATOM     13  C4  <0> d           1.239  -0.448  -0.012  0.00  0.00     0.770 A 
ATOM     14  N4  <0> d           0.002  -0.004   0.002  0.00  0.00     0.067 NA
ATOM     15  N3  <0> d          -0.015   1.280   0.009  0.00  0.00    -0.006 NA
ATOM     16  N2  <0> d           1.188   1.744   0.000  0.00  0.00    -0.006 NA
ATOM     17  N5  <0> d           2.023   0.634  -0.014  0.00  0.00     0.067 NA
ENDBRANCH   3  13
TORSDOF 4
