REMARK  5 active torsions:
REMARK  status: ('A' for Active; 'I' for Inactive)
REMARK    1  A    between atoms: C1_1  and  C2_2 
REMARK    2  A    between atoms: C2_2  and  C8_10 
REMARK    3  A    between atoms: C3_3  and  C7_8 
REMARK    4  A    between atoms: C4_4  and  C5_6 
REMARK    5  A    between atoms: C4_4  and  C6_7 
ROOT
ATOM      1  C2  <0> d           0.069   0.897   0.482  0.00  0.00     0.071 C 
ATOM      2  C3  <0> d           1.432   1.412   0.002  0.00  0.00     0.088 C 
ATOM      3  C4  <0> d           1.845  -0.013   0.392  0.00  0.00     0.071 C 
ATOM      4  O1  <0> d           0.496  -0.429   0.146  0.00  0.00    -0.369 OA
ATOM      5  H4  <0> d           1.486   1.624  -1.065  0.00  0.00     0.066 H 
ENDROOT
BRANCH   1   6
ATOM      6  C1  <0> d          -1.101   1.393  -0.368  0.00  0.00    -0.047 C 
ATOM      7  H1  <0> d          -2.031   0.969   0.010  0.00  0.00     0.031 H 
ATOM      8  H2  <0> d          -1.152   2.481  -0.319  0.00  0.00     0.031 H 
ATOM      9  H3  <0> d          -0.955   1.083  -1.403  0.00  0.00     0.031 H 
ENDBRANCH   1   6
BRANCH   1  10
ATOM     10  C8  <0> d          -0.163   1.099   1.981  0.00  0.00    -0.047 C 
ATOM     11  H11 <0> d           0.780   1.361   2.463  0.00  0.00     0.031 H 
ATOM     12  H12 <0> d          -0.883   1.903   2.132  0.00  0.00     0.031 H 
ATOM     13  H13 <0> d          -0.549   0.177   2.417  0.00  0.00     0.031 H 
ENDBRANCH   1  10
BRANCH   2  14
ATOM     14  C7  <0> d           2.031   2.495   0.862  0.00  0.00     0.183 C 
ATOM     15  O2  <0> d           1.317   3.176   1.560  0.00  0.00    -0.648 OA
ATOM     16  O3  <0> d           3.357   2.703   0.853  0.00  0.00    -0.648 OA
ENDBRANCH   2  14
BRANCH   3  17
ATOM     17  C5  <0> d           2.264  -0.144   1.857  0.00  0.00    -0.047 C 
ATOM     18  H5  <0> d           2.700  -1.129   2.023  0.00  0.00     0.031 H 
ATOM     19  H6  <0> d           3.000   0.624   2.095  0.00  0.00     0.031 H 
ATOM     20  H7  <0> d           1.390  -0.021   2.498  0.00  0.00     0.031 H 
ENDBRANCH   3  17
BRANCH   3  21
ATOM     21  C6  <0> d           2.858  -0.637  -0.570  0.00  0.00    -0.047 C 
ATOM     22  H8  <0> d           2.439  -0.658  -1.576  0.00  0.00     0.031 H 
ATOM     23  H9  <0> d           3.773  -0.044  -0.569  0.00  0.00     0.031 H 
ATOM     24  H10 <0> d           3.085  -1.654  -0.249  0.00  0.00     0.031 H 
ENDBRANCH   3  21
TORSDOF 5
