REMARK  1 active torsions:
REMARK  status: ('A' for Active; 'I' for Inactive)
REMARK    1  A    between atoms: C6_9  and  N4_10 
ROOT
ATOM      1  C1  <0> d          -0.016   1.355   0.009  0.00  0.00    -0.078 A 
ATOM      2  C2  <0> d           1.194   2.072   0.002  0.00  0.00    -0.067 A 
ATOM      3  C3  <0> d           2.374   1.420  -0.013  0.00  0.00     0.004 A 
ATOM      4  N1  <0> d           2.411   0.054  -0.021  0.00  0.00    -0.137 N 
ATOM      5  C4  <0> d           1.241  -0.676  -0.013  0.00  0.00     0.172 A 
ATOM      6  C5  <0> d           0.002  -0.004   0.002  0.00  0.00    -0.036 A 
ATOM      7  N2  <0> d           1.584  -1.950  -0.024  0.00  0.00    -0.115 NA
ATOM      8  N3  <0> d           2.866  -2.054  -0.038  0.00  0.00     0.044 NA
ATOM      9  C6  <0> d           3.420  -0.863  -0.036  0.00  0.00     0.724 A 
ATOM     10  H1  <0> d          -0.958   1.883   0.026  0.00  0.00     0.083 H 
ATOM     11  H2  <0> d           1.178   3.152   0.008  0.00  0.00     0.085 H 
ATOM     12  H3  <0> d           3.297   1.982  -0.020  0.00  0.00     0.113 H 
ATOM     13  H4  <0> d          -0.922  -0.563   0.008  0.00  0.00     0.089 H 
ENDROOT
BRANCH   9  14
ATOM     14  N4  <0> d           4.784  -0.587  -0.049  0.00  0.00    -0.231 N 
ATOM     15  H5  <0> d           5.093   0.332  -0.047  0.00  0.00     0.174 HD
ATOM     16  H6  <0> d           5.425  -1.315  -0.059  0.00  0.00     0.174 HD
ENDBRANCH   9  14
TORSDOF 1
