REMARK  4 active torsions:
REMARK  status: ('A' for Active; 'I' for Inactive)
REMARK    1  A    between atoms: C1_1  and  C2_2 
REMARK    2  A    between atoms: C2_2  and  C3_3 
REMARK    3  A    between atoms: C5_6  and  C6_8 
REMARK    4  A    between atoms: C6_8  and  C7_9 
ROOT
ATOM      1  C3  <0> d          -0.742   1.585  -1.213  0.00  0.00     0.072 A 
ATOM      2  C4  <0> d          -0.516   2.740  -1.860  0.00  0.00     0.033 A 
ATOM      3  N1  <0> d          -1.377   2.805  -2.892  0.00  0.00    -0.238 NA
ATOM      4  C5  <0> d          -2.113   1.731  -2.889  0.00  0.00     0.144 A 
ATOM      5  O1  <0> d          -1.738   0.954  -1.864  0.00  0.00    -0.299 OA
ATOM      6  H6  <0> d           0.224   3.483  -1.600  0.00  0.00     0.118 H 
ENDROOT
BRANCH   1   7
ATOM      7  C2  <0> d          -0.013   1.086   0.008  0.00  0.00    -0.022 C 
ATOM      8  H4  <0> d           0.002  -0.004   0.002  0.00  0.00     0.042 H 
ATOM      9  H5  <0> d           1.010   1.463   0.000  0.00  0.00     0.042 H 
BRANCH   7  10
ATOM     10  C1  <0> d          -0.729   1.579   1.267  0.00  0.00    -0.071 C 
ATOM     11  H1  <0> d          -0.744   2.669   1.273  0.00  0.00     0.028 H 
ATOM     12  H2  <0> d          -1.751   1.202   1.275  0.00  0.00     0.028 H 
ATOM     13  H3  <0> d          -0.202   1.218   2.150  0.00  0.00     0.028 H 
ENDBRANCH   7  10
ENDBRANCH   1   7
BRANCH   4  14
ATOM     14  C6  <0> d          -3.203   1.411  -3.880  0.00  0.00    -0.007 C 
ATOM     15  H7  <0> d          -3.966   0.802  -3.396  0.00  0.00     0.044 H 
ATOM     16  H8  <0> d          -3.651   2.338  -4.239  0.00  0.00     0.044 H 
BRANCH  14  17
ATOM     17  C7  <0> d          -2.608   0.641  -5.061  0.00  0.00    -0.069 C 
ATOM     18  H9  <0> d          -2.160  -0.285  -4.702  0.00  0.00     0.028 H 
ATOM     19  H10 <0> d          -3.396   0.410  -5.777  0.00  0.00     0.028 H 
ATOM     20  H11 <0> d          -1.845   1.250  -5.544  0.00  0.00     0.028 H 
ENDBRANCH  14  17
ENDBRANCH   4  14
TORSDOF 4
