REMARK  6 active torsions:
REMARK  status: ('A' for Active; 'I' for Inactive)
REMARK    1  A    between atoms: C1_1  and  C2_2 
REMARK    2  A    between atoms: C3_3  and  C7_9 
REMARK    3  A    between atoms: C4_4  and  C6_8 
REMARK    4  A    between atoms: N1_5  and  C5_7 
REMARK    5  A    between atoms: C7_9  and  C8_10 
REMARK    6  A    between atoms: C8_10  and  O1_11 
ROOT
ATOM      1  C2  <0> d          -0.459   2.767   1.927  0.00  0.00     0.059 A 
ATOM      2  C3  <0> d          -0.718   1.572   1.248  0.00  0.00    -0.006 A 
ATOM      3  C4  <0> d          -1.710   0.927   1.904  0.00  0.00     0.034 A 
ATOM      4  N1  <0> d          -2.070   1.689   2.958  0.00  0.00    -0.278 N 
ATOM      5  N2  <0> d          -1.273   2.841   2.949  0.00  0.00    -0.177 NA
ENDROOT
BRANCH   2   6
ATOM      6  C7  <0> d          -0.013   1.086   0.008  0.00  0.00    -0.018 C 
ATOM      7  H10 <0> d           0.002  -0.004   0.002  0.00  0.00     0.043 H 
ATOM      8  H11 <0> d           1.010   1.463   0.000  0.00  0.00     0.043 H 
BRANCH   6   9
ATOM      9  C8  <0> d          -0.753   1.593  -1.232  0.00  0.00     0.021 C 
ATOM     10  H12 <0> d          -1.775   1.215  -1.224  0.00  0.00     0.074 H 
ATOM     11  H13 <0> d          -0.767   2.683  -1.226  0.00  0.00     0.074 H 
BRANCH   9  12
ATOM     12  O1  <0> d          -0.084   1.132  -2.407  0.00  0.00    -0.401 OA
ATOM     13  H14 <0> d          -0.499   1.416  -3.233  0.00  0.00     0.209 HD
ENDBRANCH   9  12
ENDBRANCH   6   9
ENDBRANCH   2   6
BRANCH   1  14
ATOM     14  C1  <0> d           0.576   3.793   1.546  0.00  0.00    -0.033 C 
ATOM     15  H1  <0> d           0.132   4.524   0.870  0.00  0.00     0.035 H 
ATOM     16  H2  <0> d           0.934   4.299   2.443  0.00  0.00     0.035 H 
ATOM     17  H3  <0> d           1.412   3.300   1.049  0.00  0.00     0.035 H 
ENDBRANCH   1  14
BRANCH   3  18
ATOM     18  C6  <0> d          -2.307  -0.405   1.525  0.00  0.00    -0.035 C 
ATOM     19  H7  <0> d          -1.753  -1.204   2.018  0.00  0.00     0.035 H 
ATOM     20  H8  <0> d          -3.350  -0.438   1.840  0.00  0.00     0.035 H 
ATOM     21  H9  <0> d          -2.248  -0.535   0.445  0.00  0.00     0.035 H 
ENDBRANCH   3  18
BRANCH   4  22
ATOM     22  C5  <0> d          -3.111   1.369   3.938  0.00  0.00     0.003 C 
ATOM     23  H4  <0> d          -2.671   0.811   4.765  0.00  0.00     0.059 H 
ATOM     24  H5  <0> d          -3.551   2.292   4.315  0.00  0.00     0.059 H 
ATOM     25  H6  <0> d          -3.884   0.765   3.463  0.00  0.00     0.059 H 
ENDBRANCH   4  22
TORSDOF 6
