REMARK  1 active torsions:
REMARK  status: ('A' for Active; 'I' for Inactive)
REMARK    1  A    between atoms: C1_1  and  C2_2 
ROOT
ATOM      1  C2  <0> d           2.392   0.004  -0.021  0.00  0.00     0.015 A 
ATOM      2  C3  <0> d           1.232  -0.685  -0.013  0.00  0.00    -0.061 A 
ATOM      3  C4  <0> d           0.002  -0.004   0.002  0.00  0.00    -0.077 A 
ATOM      4  C5  <0> d          -0.016   1.356   0.009  0.00  0.00    -0.036 A 
ATOM      5  C6  <0> d           1.203   2.060   0.002  0.00  0.00     0.157 A 
ATOM      6  N1  <0> d           2.389   1.367  -0.013  0.00  0.00    -0.292 N 
ATOM      7  C7  <0> d           3.370   2.309  -0.017  0.00  0.00     0.093 A 
ATOM      8  N2  <0> d           2.791   3.482  -0.005  0.00  0.00    -0.143 NA
ATOM      9  N3  <0> d           1.511   3.347   0.006  0.00  0.00    -0.131 NA
ATOM     10  H4  <0> d           1.248  -1.765  -0.019  0.00  0.00     0.086 H 
ATOM     11  H5  <0> d          -0.925  -0.559   0.007  0.00  0.00     0.083 H 
ATOM     12  H6  <0> d          -0.955   1.890   0.017  0.00  0.00     0.089 H 
ATOM     13  H7  <0> d           4.434   2.123  -0.028  0.00  0.00     0.147 H 
ENDROOT
BRANCH   1  14
ATOM     14  C1  <0> d           3.703  -0.741  -0.037  0.00  0.00    -0.037 C 
ATOM     15  H1  <0> d           4.009  -0.914  -1.069  0.00  0.00     0.035 H 
ATOM     16  H2  <0> d           4.463  -0.149   0.472  0.00  0.00     0.035 H 
ATOM     17  H3  <0> d           3.584  -1.697   0.473  0.00  0.00     0.035 H 
ENDBRANCH   1  14
TORSDOF 1
