REMARK  8 active torsions:
REMARK  status: ('A' for Active; 'I' for Inactive)
REMARK    1  A    between atoms: C1_1  and  C2_2 
REMARK    2  A    between atoms: C2_2  and  C3_3 
REMARK    3  A    between atoms: C3_3  and  C4_4 
REMARK    4  A    between atoms: C4_4  and  C5_5 
REMARK    5  A    between atoms: C5_5  and  C6_6 
REMARK    6  A    between atoms: C6_6  and  C7_7 
REMARK    7  A    between atoms: C7_7  and  C8_9 
REMARK    8  A    between atoms: C7_7  and  O2_11 
ROOT
ATOM      1  C4  <0> d          -0.037   1.099  -2.490  0.00  0.00    -0.065 C 
ATOM      2  H9  <0> d           0.986   1.476  -2.498  0.00  0.00     0.033 H 
ATOM      3  H10 <0> d          -0.022   0.009  -2.496  0.00  0.00     0.033 H 
ENDROOT
BRANCH   1   4
ATOM      4  C3  <0> d          -0.777   1.606  -3.730  0.00  0.00    -0.065 C 
ATOM      5  H7  <0> d          -1.799   1.229  -3.722  0.00  0.00     0.033 H 
ATOM      6  H8  <0> d          -0.791   2.696  -3.724  0.00  0.00     0.033 H 
BRANCH   4   7
ATOM      7  C2  <0> d          -0.060   1.113  -4.989  0.00  0.00    -0.069 C 
ATOM      8  H5  <0> d           0.962   1.490  -4.996  0.00  0.00     0.032 H 
ATOM      9  H6  <0> d          -0.046   0.023  -4.995  0.00  0.00     0.032 H 
BRANCH   7  10
ATOM     10  C1  <0> d          -0.800   1.619  -6.228  0.00  0.00    -0.077 C 
ATOM     11  H2  <0> d          -0.815   2.709  -6.222  0.00  0.00     0.027 H 
ATOM     12  H3  <0> d          -0.290   1.268  -7.125  0.00  0.00     0.027 H 
ATOM     13  H4  <0> d          -1.823   1.242  -6.220  0.00  0.00     0.027 H 
ENDBRANCH   7  10
ENDBRANCH   4   7
ENDBRANCH   1   4
BRANCH   1  14
ATOM     14  C5  <0> d          -0.753   1.593  -1.232  0.00  0.00    -0.062 C 
ATOM     15  H11 <0> d          -1.775   1.215  -1.224  0.00  0.00     0.033 H 
ATOM     16  H12 <0> d          -0.767   2.683  -1.226  0.00  0.00     0.033 H 
BRANCH  14  17
ATOM     17  C6  <0> d          -0.013   1.086   0.008  0.00  0.00    -0.032 C 
ATOM     18  H13 <0> d           0.002  -0.004   0.002  0.00  0.00     0.037 H 
ATOM     19  H14 <0> d           1.010   1.463   0.000  0.00  0.00     0.037 H 
BRANCH  17  20
ATOM     20  C7  <0> d          -0.729   1.579   1.267  0.00  0.00     0.119 C 
ATOM     21  H1  <0> d          -1.776   1.277   1.232  0.00  0.00     0.100 H 
BRANCH  20  22
ATOM     22  C8  <0> d          -0.074   0.981   2.485  0.00  0.00     0.203 C 
ATOM     23  O1  <0> d           0.492   1.694   3.279  0.00  0.00    -0.646 OA
ATOM     24  O3  <0> d          -0.119  -0.346   2.688  0.00  0.00    -0.646 OA
ENDBRANCH  20  22
BRANCH  20  25
ATOM     25  O2  <0> d          -0.647   3.004   1.334  0.00  0.00    -0.385 OA
ATOM     26  H15 <0> d           0.258   3.345   1.368  0.00  0.00     0.210 HD
ENDBRANCH  20  25
ENDBRANCH  17  20
ENDBRANCH  14  17
ENDBRANCH   1  14
TORSDOF 8
