REMARK  5 active torsions:
REMARK  status: ('A' for Active; 'I' for Inactive)
REMARK    1  A    between atoms: C1_1  and  C2_2 
REMARK    2  A    between atoms: C2_2  and  C3_4 
REMARK    3  A    between atoms: C2_2  and  C4_6 
REMARK    4  A    between atoms: C3_4  and  O1_5 
REMARK    5  A    between atoms: C4_6  and  S1_7 
ROOT
ATOM      1  C2  <0> d          -0.729   1.579   1.267  0.00  0.00    -0.022 C 
ATOM      2  H1  <0> d          -0.822   2.665   1.230  0.00  0.00     0.044 H 
ENDROOT
BRANCH   1   3
ATOM      3  C1  <0> d          -2.121   0.950   1.341  0.00  0.00    -0.070 C 
ATOM      4  H2  <0> d          -2.028  -0.136   1.378  0.00  0.00     0.028 H 
ATOM      5  H3  <0> d          -2.632   1.301   2.238  0.00  0.00     0.028 H 
ATOM      6  H4  <0> d          -2.697   1.235   0.460  0.00  0.00     0.028 H 
ENDBRANCH   1   3
BRANCH   1   7
ATOM      7  C3  <0> d          -0.013   1.086   0.008  0.00  0.00     0.021 C 
ATOM      8  H5  <0> d           0.002  -0.004   0.002  0.00  0.00     0.074 H 
ATOM      9  H6  <0> d           1.010   1.463   0.000  0.00  0.00     0.074 H 
BRANCH   7  10
ATOM     10  O1  <0> d          -0.704   1.559  -1.150  0.00  0.00    -0.400 OA
ATOM     11  H7  <0> d          -0.304   1.284  -1.986  0.00  0.00     0.209 HD
ENDBRANCH   7  10
ENDBRANCH   1   7
BRANCH   1  12
ATOM     12  C4  <0> d           0.079   1.179   2.503  0.00  0.00     0.050 C 
ATOM     13  H8  <0> d           0.097   0.092   2.589  0.00  0.00     0.061 H 
ATOM     14  H9  <0> d           1.098   1.553   2.408  0.00  0.00     0.061 H 
BRANCH  12  15
ATOM     15  S1  <0> d          -0.691   1.889   3.984  0.00  0.00     0.102 S 
ATOM     16  O2  <0> d          -0.562   3.304   3.971  0.00  0.00    -0.595 OA
ATOM     17  O3  <0> d          -1.952   1.278   4.222  0.00  0.00    -0.595 OA
ATOM     18  O4  <0> d           0.187   1.430   5.140  0.00  0.00    -0.595 OA
ENDBRANCH  12  15
ENDBRANCH   1  12
TORSDOF 5
