REMARK  3 active torsions:
REMARK  status: ('A' for Active; 'I' for Inactive)
REMARK    1  A    between atoms: C3_3  and  C6_7 
REMARK    2  A    between atoms: C6_7  and  C7_9 
REMARK    3  A    between atoms: C7_9  and  N2_10 
ROOT
ATOM      1  C1  <0> d          -0.017   1.379   0.010  0.00  0.00    -0.065 A 
ATOM      2  C2  <0> d           1.180   2.073   0.002  0.00  0.00    -0.067 A 
ATOM      3  C3  <0> d           2.374   1.338  -0.013  0.00  0.00     0.029 A 
ATOM      4  C4  <0> d           2.306  -0.059  -0.020  0.00  0.00     0.015 A 
ATOM      5  N1  <0> d           1.141  -0.671  -0.013  0.00  0.00    -0.272 NA
ATOM      6  C5  <0> d           0.002  -0.004   0.002  0.00  0.00     0.002 A 
ATOM      7  H1  <0> d          -0.956   1.912   0.026  0.00  0.00     0.085 H 
ATOM      8  H2  <0> d           1.194   3.153   0.007  0.00  0.00     0.085 H 
ATOM      9  H3  <0> d           3.216  -0.640  -0.032  0.00  0.00     0.116 H 
ATOM     10  H4  <0> d          -0.931  -0.547   0.008  0.00  0.00     0.114 H 
ENDROOT
BRANCH   3  11
ATOM     11  C6  <0> d           3.676   2.024  -0.023  0.00  0.00     0.188 C 
ATOM     12  O1  <0> d           3.723   3.236  -0.017  0.00  0.00    -0.290 OA
BRANCH  11  13
ATOM     13  C7  <0> d           4.951   1.221  -0.039  0.00  0.00     0.168 C 
ATOM     14  H5  <0> d           4.993   0.588   0.847  0.00  0.00     0.091 H 
ATOM     15  H6  <0> d           4.976   0.597  -0.933  0.00  0.00     0.091 H 
BRANCH  13  16
ATOM     16  N2  <0> d           6.104   2.132  -0.046  0.00  0.00     0.085 N 
ATOM     17  H7  <0> d           6.971   1.617  -0.057  0.00  0.00     0.313 HD
ATOM     18  H8  <0> d           6.053   2.773  -0.824  0.00  0.00     0.313 HD
ENDBRANCH  13  16
ENDBRANCH  11  13
ENDBRANCH   3  11
TORSDOF 3
