REMARK  4 active torsions:
REMARK  status: ('A' for Active; 'I' for Inactive)
REMARK    1  A    between atoms: C1_1  and  C2_2 
REMARK    2  A    between atoms: C5_6  and  C9_12 
REMARK    3  A    between atoms: C6_8  and  C8_11 
REMARK    4  A    between atoms: C9_12  and  O1_13 
ROOT
ATOM      1  C2  <0> d          -2.103   1.083  -3.781  0.00  0.00    -0.057 C 
ATOM      2  H1  <0> d          -2.630   1.445  -4.664  0.00  0.00     0.039 H 
ATOM      3  C3  <0> d          -2.886   1.471  -2.526  0.00  0.00    -0.062 C 
ATOM      4  C4  <0> d          -2.147   0.964  -1.286  0.00  0.00    -0.059 C 
ATOM      5  C5  <0> d          -0.753   1.593  -1.232  0.00  0.00    -0.030 C 
ATOM      6  H2  <0> d          -0.845   2.678  -1.181  0.00  0.00     0.043 H 
ATOM      7  C6  <0> d           0.031   1.205  -2.487  0.00  0.00    -0.052 C 
ATOM      8  H3  <0> d           0.123   0.120  -2.538  0.00  0.00     0.040 H 
ATOM      9  C7  <0> d          -0.709   1.712  -3.727  0.00  0.00    -0.059 C 
ATOM     10  H7  <0> d          -3.879   1.023  -2.564  0.00  0.00     0.033 H 
ATOM     11  H8  <0> d          -2.979   2.556  -2.475  0.00  0.00     0.033 H 
ATOM     12  H9  <0> d          -2.054  -0.121  -1.336  0.00  0.00     0.033 H 
ATOM     13  H10 <0> d          -2.705   1.240  -0.391  0.00  0.00     0.033 H 
ATOM     14  H11 <0> d          -0.151   1.436  -4.621  0.00  0.00     0.034 H 
ATOM     15  H12 <0> d          -0.802   2.797  -3.676  0.00  0.00     0.034 H 
ENDROOT
BRANCH   5  16
ATOM     16  C9  <0> d          -0.013   1.086   0.008  0.00  0.00     0.020 C 
ATOM     17  H16 <0> d           0.002  -0.004   0.002  0.00  0.00     0.074 H 
ATOM     18  H17 <0> d           1.010   1.463   0.000  0.00  0.00     0.074 H 
BRANCH  16  19
ATOM     19  O1  <0> d          -0.682   1.547   1.184  0.00  0.00    -0.400 OA
ATOM     20  H18 <0> d          -0.266   1.262   2.009  0.00  0.00     0.209 HD
ENDBRANCH  16  19
ENDBRANCH   5  16
BRANCH   7  21
ATOM     21  C8  <0> d           1.425   1.834  -2.433  0.00  0.00    -0.072 C 
ATOM     22  H13 <0> d           1.952   1.473  -1.550  0.00  0.00     0.028 H 
ATOM     23  H14 <0> d           1.983   1.558  -3.327  0.00  0.00     0.028 H 
ATOM     24  H15 <0> d           1.332   2.919  -2.382  0.00  0.00     0.028 H 
ENDBRANCH   7  21
BRANCH   1  25
ATOM     25  C1  <0> d          -1.973  -0.439  -3.852  0.00  0.00    -0.073 C 
ATOM     26  H4  <0> d          -2.966  -0.887  -3.891  0.00  0.00     0.028 H 
ATOM     27  H5  <0> d          -1.415  -0.715  -4.747  0.00  0.00     0.028 H 
ATOM     28  H6  <0> d          -1.446  -0.800  -2.969  0.00  0.00     0.028 H 
ENDBRANCH   1  25
TORSDOF 4
