REMARK  4 active torsions:
REMARK  status: ('A' for Active; 'I' for Inactive)
REMARK    1  A    between atoms: C1_1  and  C2_2 
REMARK    2  A    between atoms: C2_2  and  O1_3 
REMARK    3  A    between atoms: O1_3  and  C3_4 
REMARK    4  A    between atoms: C3_4  and  C4_6 
ROOT
ATOM      1  C4  <0> d           1.216   1.944   0.001  0.00  0.00    -0.009 C 
ATOM      2  C5  <0> d           2.224   2.545  -0.005  0.00  0.00    -0.144 C 
ATOM      3  H6  <0> d           3.127   3.082  -0.011  0.00  0.00     0.167 H 
ENDROOT
BRANCH   1   4
ATOM      4  C3  <0> d          -0.014   1.211   0.009  0.00  0.00     0.338 C 
ATOM      5  O2  <0> d           0.002  -0.004   0.002  0.00  0.00    -0.249 OA
BRANCH   4   6
ATOM      6  O1  <0> d          -1.191   1.869   0.018  0.00  0.00    -0.311 OA
BRANCH   6   7
ATOM      7  C2  <0> d          -2.398   1.062   0.019  0.00  0.00     0.026 C 
ATOM      8  H4  <0> d          -2.418   0.438  -0.874  0.00  0.00     0.074 H 
ATOM      9  H5  <0> d          -2.410   0.428   0.906  0.00  0.00     0.074 H 
BRANCH   7  10
ATOM     10  C1  <0> d          -3.624   1.977   0.030  0.00  0.00    -0.056 C 
ATOM     11  H1  <0> d          -4.530   1.371   0.031  0.00  0.00     0.030 H 
ATOM     12  H2  <0> d          -3.603   2.602   0.923  0.00  0.00     0.030 H 
ATOM     13  H3  <0> d          -3.611   2.611  -0.857  0.00  0.00     0.030 H 
ENDBRANCH   7  10
ENDBRANCH   6   7
ENDBRANCH   4   6
ENDBRANCH   1   4
TORSDOF 4
