REMARK  2 active torsions:
REMARK  status: ('A' for Active; 'I' for Inactive)
REMARK    1  A    between atoms: C1_1  and  C2_2 
REMARK    2  A    between atoms: C4_6  and  C5_8 
ROOT
ATOM      1  C2  <0> d          -1.109   1.752   0.016  0.00  0.00     0.100 A 
ATOM      2  N1  <0> d          -0.011   0.966   0.007  0.00  0.00    -0.352 N 
ATOM      3  H1  <0> d          -0.119  -0.129   0.006  0.00  0.00     0.166 HD
ATOM      4  C3  <0> d           1.079   1.793   0.001  0.00  0.00     0.011 A 
ATOM      5  C4  <0> d           0.611   3.055   0.013  0.00  0.00     0.157 A 
ATOM      6  N2  <0> d          -0.729   3.001   0.025  0.00  0.00    -0.230 NA
ATOM      7  H5  <0> d           2.116   1.491  -0.011  0.00  0.00     0.115 H 
ENDROOT
BRANCH   1   8
ATOM      8  C1  <0> d          -2.536   1.268   0.019  0.00  0.00    -0.021 C 
ATOM      9  H2  <0> d          -2.550   0.169   0.009  0.00  0.00     0.037 H 
ATOM     10  H3  <0> d          -3.054   1.649  -0.874  0.00  0.00     0.037 H 
ATOM     11  H4  <0> d          -3.045   1.634   0.923  0.00  0.00     0.037 H 
ENDBRANCH   1   8
BRANCH   5  12
ATOM     12  C5  <0> d           1.446   4.310   0.011  0.00  0.00     0.436 C 
ATOM     13  F1  <0> d           1.692   4.705  -1.308  0.00  0.00    -0.165 F 
ATOM     14  F2  <0> d           0.760   5.328   0.683  0.00  0.00    -0.165 F 
ATOM     15  F3  <0> d           2.662   4.062   0.658  0.00  0.00    -0.165 F 
ENDBRANCH   5  12
TORSDOF 2
