REMARK  5 active torsions:
REMARK  status: ('A' for Active; 'I' for Inactive)
REMARK    1  A    between atoms: C1_1  and  C2_2 
REMARK    2  A    between atoms: N1_4  and  C5_8 
REMARK    3  A    between atoms: C4_6  and  N3_7 
REMARK    4  A    between atoms: C5_8  and  C6_9 
REMARK    5  A    between atoms: C5_8  and  C7_10 
ROOT
ATOM      1  C2  <0> d           0.002  -0.004   0.002  0.00  0.00     0.002 A 
ATOM      2  C3  <0> d           0.008  -0.794  -1.096  0.00  0.00     0.008 A 
ATOM      3  N1  <0> d           0.027  -2.079  -0.681  0.00  0.00    -0.274 N 
ATOM      4  N2  <0> d           0.034  -2.083   0.720  0.00  0.00    -0.154 NA
ATOM      5  C4  <0> d           0.025  -0.837   1.133  0.00  0.00     0.148 A 
ATOM      6  H4  <0> d          -0.001  -0.458  -2.122  0.00  0.00     0.115 H 
ENDROOT
BRANCH   3   7
ATOM      7  C5  <0> d           0.039  -3.262  -1.545  0.00  0.00     0.027 C 
ATOM      8  H7  <0> d           0.487  -4.098  -1.009  0.00  0.00     0.074 H 
BRANCH   7   9
ATOM      9  C6  <0> d          -1.395  -3.619  -1.941  0.00  0.00    -0.056 C 
ATOM     10  H8  <0> d          -1.843  -2.782  -2.477  0.00  0.00     0.030 H 
ATOM     11  H9  <0> d          -1.386  -4.499  -2.583  0.00  0.00     0.030 H 
ATOM     12  H10 <0> d          -1.977  -3.830  -1.044  0.00  0.00     0.030 H 
ENDBRANCH   7   9
BRANCH   7  13
ATOM     13  C7  <0> d           0.857  -2.966  -2.804  0.00  0.00    -0.056 C 
ATOM     14  H11 <0> d           1.879  -2.711  -2.522  0.00  0.00     0.030 H 
ATOM     15  H12 <0> d           0.866  -3.846  -3.446  0.00  0.00     0.030 H 
ATOM     16  H13 <0> d           0.409  -2.129  -3.340  0.00  0.00     0.030 H 
ENDBRANCH   7  13
ENDBRANCH   3   7
BRANCH   1  17
ATOM     17  C1  <0> d          -0.018   1.503   0.010  0.00  0.00    -0.046 C 
ATOM     18  H1  <0> d           1.004   1.880   0.003  0.00  0.00     0.033 H 
ATOM     19  H2  <0> d          -0.545   1.864  -0.873  0.00  0.00     0.033 H 
ATOM     20  H3  <0> d          -0.529   1.854   0.907  0.00  0.00     0.033 H 
ENDBRANCH   1  17
BRANCH   5  21
ATOM     21  N3  <0> d           0.033  -0.412   2.466  0.00  0.00    -0.382 N 
ATOM     22  H5  <0> d           0.023   0.535   2.674  0.00  0.00     0.157 HD
ATOM     23  H6  <0> d           0.049  -1.066   3.183  0.00  0.00     0.157 HD
ENDBRANCH   5  21
TORSDOF 5
