REMARK  2 active torsions:
REMARK  status: ('A' for Active; 'I' for Inactive)
REMARK    1  A    between atoms: C7_7  and  N1_12 
REMARK    2  A    between atoms: C10_10  and  O1_11 
ROOT
ATOM      1  C1  <0> d           3.621  -0.713  -0.036  0.00  0.00    -0.082 A 
ATOM      2  C2  <0> d           3.619  -2.107  -0.043  0.00  0.00    -0.082 A 
ATOM      3  C3  <0> d           2.451  -2.805  -0.035  0.00  0.00    -0.070 A 
ATOM      4  C4  <0> d           1.228  -2.115  -0.021  0.00  0.00     0.009 A 
ATOM      5  C5  <0> d           1.230  -0.698  -0.013  0.00  0.00     0.003 A 
ATOM      6  C6  <0> d           2.455  -0.011  -0.021  0.00  0.00    -0.070 A 
ATOM      7  C7  <0> d           0.002  -0.004   0.002  0.00  0.00     0.037 A 
ATOM      8  C8  <0> d          -1.179  -0.714   0.015  0.00  0.00    -0.054 A 
ATOM      9  C9  <0> d          -1.173  -2.106   0.004  0.00  0.00    -0.048 A 
ATOM     10  C10 <0> d          -0.000  -2.805  -0.012  0.00  0.00     0.076 A 
ATOM     11  H1  <0> d           4.562  -0.182  -0.042  0.00  0.00     0.083 H 
ATOM     12  H2  <0> d           4.558  -2.640  -0.054  0.00  0.00     0.083 H 
ATOM     13  H3  <0> d           2.464  -3.885  -0.039  0.00  0.00     0.085 H 
ATOM     14  H4  <0> d           2.471   1.069  -0.016  0.00  0.00     0.084 H 
ATOM     15  H5  <0> d          -2.120  -0.184   0.032  0.00  0.00     0.087 H 
ATOM     16  H6  <0> d          -2.111  -2.641   0.011  0.00  0.00     0.087 H 
ENDROOT
BRANCH   7  17
ATOM     17  N1  <0> d          -0.017   1.393   0.010  0.00  0.00    -0.398 N 
ATOM     18  H8  <0> d           0.817   1.889   0.004  0.00  0.00     0.156 HD
ATOM     19  H9  <0> d          -0.863   1.866   0.016  0.00  0.00     0.156 HD
ENDBRANCH   7  17
BRANCH  10  20
ATOM     20  O1  <0> d          -0.018  -4.165  -0.018  0.00  0.00    -0.360 OA
ATOM     21  H7  <0> d          -0.014  -4.562   0.864  0.00  0.00     0.217 HD
ENDBRANCH  10  20
TORSDOF 2
