REMARK  1 active torsions:
REMARK  status: ('A' for Active; 'I' for Inactive)
REMARK    1  A    between atoms: C4_8  and  N3_9 
ROOT
ATOM      1  C1  <0> d          -0.016   1.355   0.009  0.00  0.00    -0.032 A 
ATOM      2  C2  <0> d           0.002  -0.004   0.002  0.00  0.00    -0.012 A 
ATOM      3  C3  <0> d           1.241  -0.677  -0.013  0.00  0.00     0.261 A 
ATOM      4  O1  <0> d           1.277  -1.898  -0.020  0.00  0.00    -0.267 OA
ATOM      5  N1  <0> d           2.385   0.036  -0.021  0.00  0.00    -0.242 N 
ATOM      6  H1  <0> d           3.266  -0.437  -0.032  0.00  0.00     0.192 HD
ATOM      7  N2  <0> d           2.344   1.435  -0.012  0.00  0.00    -0.154 NA
ATOM      8  C4  <0> d           1.198   2.071   0.002  0.00  0.00     0.141 A 
ATOM      9  H2  <0> d          -0.958   1.885   0.017  0.00  0.00     0.089 H 
ATOM     10  H3  <0> d          -0.922  -0.562   0.007  0.00  0.00     0.092 H 
ENDROOT
BRANCH   8  11
ATOM     11  N3  <0> d           1.179   3.465   0.009  0.00  0.00    -0.383 N 
ATOM     12  H4  <0> d           0.333   3.939   0.020  0.00  0.00     0.157 HD
ATOM     13  H5  <0> d           2.013   3.961   0.004  0.00  0.00     0.157 HD
ENDBRANCH   8  11
TORSDOF 1
