REMARK  5 active torsions:
REMARK  status: ('A' for Active; 'I' for Inactive)
REMARK    1  A    between atoms: C1_1  and  C2_2 
REMARK    2  A    between atoms: C2_2  and  C3_3 
REMARK    3  A    between atoms: C3_3  and  C4_4 
REMARK    4  A    between atoms: C4_4  and  O1_5 
REMARK    5  A    between atoms: O1_5  and  C5_6 
REMARK       I    between atoms: C5_6  and  N1_8 
ROOT
ATOM      1  C3  <0> d          -2.328   5.131   0.041  0.00  0.00    -0.045 C 
ATOM      2  H6  <0> d          -1.771   5.426   0.930  0.00  0.00     0.036 H 
ATOM      3  H7  <0> d          -1.780   5.436  -0.850  0.00  0.00     0.036 H 
ENDROOT
BRANCH   1   4
ATOM      4  C2  <0> d          -3.701   5.807   0.051  0.00  0.00    -0.067 C 
ATOM      5  H4  <0> d          -4.258   5.511  -0.838  0.00  0.00     0.032 H 
ATOM      6  H5  <0> d          -4.250   5.502   0.942  0.00  0.00     0.032 H 
BRANCH   4   7
ATOM      7  C1  <0> d          -3.521   7.326   0.059  0.00  0.00    -0.076 C 
ATOM      8  H1  <0> d          -2.964   7.622   0.948  0.00  0.00     0.027 H 
ATOM      9  H2  <0> d          -2.972   7.631  -0.832  0.00  0.00     0.027 H 
ATOM     10  H3  <0> d          -4.499   7.808   0.066  0.00  0.00     0.027 H 
ENDBRANCH   4   7
ENDBRANCH   1   4
BRANCH   1  11
ATOM     11  C4  <0> d          -2.508   3.611   0.034  0.00  0.00     0.030 C 
ATOM     12  H8  <0> d          -3.065   3.316  -0.855  0.00  0.00     0.075 H 
ATOM     13  H9  <0> d          -3.057   3.306   0.924  0.00  0.00     0.075 H 
BRANCH  11  14
ATOM     14  O1  <0> d          -1.206   2.970   0.024  0.00  0.00    -0.304 OA
BRANCH  14  15
ATOM     15  C5  <0> d          -1.187   1.624   0.017  0.00  0.00     0.358 C 
ATOM     16  O2  <0> d          -2.231   1.002   0.018  0.00  0.00    -0.239 OA
ATOM     17  N1  <0> d          -0.011   0.966   0.007  0.00  0.00    -0.346 N 
ATOM     18  H10 <0> d           0.002  -0.004   0.002  0.00  0.00     0.161 HD
ATOM     19  H11 <0> d           0.822   1.462   0.002  0.00  0.00     0.161 HD
ENDBRANCH  14  15
ENDBRANCH  11  14
ENDBRANCH   1  11
TORSDOF 5
