REMARK  6 active torsions:
REMARK  status: ('A' for Active; 'I' for Inactive)
REMARK    1  A    between atoms: C1_1  and  O1_2 
REMARK    2  A    between atoms: O1_2  and  C2_3 
REMARK    3  A    between atoms: C2_3  and  C3_4 
REMARK    4  A    between atoms: C2_3  and  O3_9 
REMARK    5  A    between atoms: C3_4  and  N1_5 
REMARK       I    between atoms: N1_5  and  C4_6 
REMARK       I    between atoms: C4_6  and  N2_8 
REMARK    6  A    between atoms: O3_9  and  C5_10 
ROOT
ATOM      1  C2  <0> d           0.781  -0.618  -1.432  0.00  0.00     0.145 C 
ATOM      2  H4  <0> d           1.767  -0.266  -1.735  0.00  0.00     0.131 H 
ENDROOT
BRANCH   1   3
ATOM      3  O1  <0> d           0.506  -0.178  -0.100  0.00  0.00    -0.364 OA
BRANCH   3   4
ATOM      4  C1  <0> d           0.938   1.157   0.172  0.00  0.00     0.007 C 
ATOM      5  H1  <0> d           1.985   1.264  -0.110  0.00  0.00     0.066 H 
ATOM      6  H2  <0> d           0.333   1.858  -0.403  0.00  0.00     0.066 H 
ATOM      7  H3  <0> d           0.824   1.365   1.236  0.00  0.00     0.066 H 
ENDBRANCH   3   4
ENDBRANCH   1   3
BRANCH   1   8
ATOM      8  C3  <0> d           0.748  -2.147  -1.482  0.00  0.00     0.042 C 
ATOM      9  H5  <0> d           0.957  -2.482  -2.497  0.00  0.00     0.071 H 
ATOM     10  H6  <0> d           1.501  -2.548  -0.804  0.00  0.00     0.071 H 
BRANCH   8  11
ATOM     11  N1  <0> d          -0.577  -2.620  -1.074  0.00  0.00    -0.339 N 
ATOM     12  C4  <0> d          -0.840  -3.942  -1.042  0.00  0.00     0.313 C 
ATOM     13  O2  <0> d           0.023  -4.741  -1.350  0.00  0.00    -0.248 OA
ATOM     14  N2  <0> d          -2.059  -4.377  -0.667  0.00  0.00    -0.352 N 
ATOM     15  H8  <0> d          -2.748  -3.739  -0.421  0.00  0.00     0.160 HD
ATOM     16  H9  <0> d          -2.249  -5.328  -0.644  0.00  0.00     0.160 HD
ATOM     17  H7  <0> d          -1.266  -1.982  -0.828  0.00  0.00     0.164 HD
ENDBRANCH   8  11
ENDBRANCH   1   8
BRANCH   1  18
ATOM     18  O3  <0> d          -0.207  -0.091  -2.321  0.00  0.00    -0.364 OA
BRANCH  18  19
ATOM     19  C5  <0> d          -0.002   1.279  -2.671  0.00  0.00     0.007 C 
ATOM     20  H10 <0> d          -0.353   1.918  -1.861  0.00  0.00     0.066 H 
ATOM     21  H11 <0> d           1.061   1.456  -2.839  0.00  0.00     0.066 H 
ATOM     22  H12 <0> d          -0.556   1.508  -3.581  0.00  0.00     0.066 H 
ENDBRANCH  18  19
ENDBRANCH   1  18
TORSDOF 6
