REMARK  2 active torsions:
REMARK  status: ('A' for Active; 'I' for Inactive)
REMARK    1  A    between atoms: C1_1  and  C2_2 
REMARK    2  A    between atoms: C7_8  and  O1_10 
ROOT
ATOM      1  C2  <0> d          -0.729   1.579   1.267  0.00  0.00    -0.033 C 
ATOM      2  H1  <0> d          -0.744   2.669   1.273  0.00  0.00     0.043 H 
ATOM      3  C3  <0> d          -2.164   1.050   1.278  0.00  0.00    -0.060 C 
ATOM      4  C4  <0> d          -2.880   1.543   2.537  0.00  0.00    -0.065 C 
ATOM      5  C5  <0> d          -2.140   1.036   3.776  0.00  0.00    -0.063 C 
ATOM      6  C6  <0> d          -0.705   1.566   3.765  0.00  0.00    -0.041 C 
ATOM      7  C7  <0> d           0.011   1.072   2.506  0.00  0.00     0.038 C 
ATOM      8  H2  <0> d           1.034   1.450   2.499  0.00  0.00     0.083 H 
ATOM      9  H6  <0> d          -2.691   1.411   0.395  0.00  0.00     0.033 H 
ATOM     10  H7  <0> d          -2.149  -0.040   1.272  0.00  0.00     0.033 H 
ATOM     11  H8  <0> d          -3.903   1.166   2.544  0.00  0.00     0.033 H 
ATOM     12  H9  <0> d          -2.895   2.633   2.542  0.00  0.00     0.033 H 
ATOM     13  H10 <0> d          -2.126  -0.054   3.770  0.00  0.00     0.033 H 
ATOM     14  H11 <0> d          -2.651   1.388   4.673  0.00  0.00     0.033 H 
ATOM     15  H12 <0> d          -0.178   1.205   4.648  0.00  0.00     0.036 H 
ATOM     16  H13 <0> d          -0.720   2.656   3.771  0.00  0.00     0.036 H 
ENDROOT
BRANCH   1  17
ATOM     17  C1  <0> d          -0.013   1.086   0.008  0.00  0.00    -0.071 C 
ATOM     18  H3  <0> d           0.002  -0.004   0.002  0.00  0.00     0.028 H 
ATOM     19  H4  <0> d           1.010   1.463   0.000  0.00  0.00     0.028 H 
ATOM     20  H5  <0> d          -0.540   1.447  -0.875  0.00  0.00     0.028 H 
ENDBRANCH   1  17
BRANCH   7  21
ATOM     21  O1  <0> d           0.030  -0.356   2.498  0.00  0.00    -0.395 OA
ATOM     22  H14 <0> d           0.485  -0.748   3.257  0.00  0.00     0.210 HD
ENDBRANCH   7  21
TORSDOF 2
