REMARK  2 active torsions:
REMARK  status: ('A' for Active; 'I' for Inactive)
REMARK    1  A    between atoms: C1_1  and  N7_10 
REMARK    2  A    between atoms: C2_4  and  N6_9 
ROOT
ATOM      1  C1  <0> d          -0.016   1.308   0.009  0.00  0.00     0.754 A 
ATOM      2  N1  <0> d           1.276   1.774  -0.001  0.00  0.00     0.057 NA
ATOM      3  N2  <0> d           2.112   0.649  -0.015  0.00  0.00     0.137 N 
ATOM      4  C2  <0> d           3.402   0.210  -0.029  0.00  0.00     0.755 A 
ATOM      5  N3  <0> d           3.386  -1.102  -0.036  0.00  0.00     0.060 NA
ATOM      6  N4  <0> d           2.050  -1.521  -0.026  0.00  0.00     0.063 NA
ATOM      7  C3  <0> d           1.287  -0.449  -0.013  0.00  0.00     0.800 A 
ATOM      8  N5  <0> d           0.002  -0.004   0.002  0.00  0.00     0.135 NA
ENDROOT
BRANCH   1   9
ATOM      9  N7  <0> d          -1.144   2.088   0.029  0.00  0.00    -0.229 N 
ATOM     10  H3  <0> d          -2.020   1.673   0.039  0.00  0.00     0.174 HD
ATOM     11  H4  <0> d          -1.064   3.055   0.034  0.00  0.00     0.174 HD
ENDBRANCH   1   9
BRANCH   4  12
ATOM     12  N6  <0> d           4.536   1.011  -0.036  0.00  0.00    -0.229 N 
ATOM     13  H1  <0> d           4.447   1.977  -0.031  0.00  0.00     0.174 HD
ATOM     14  H2  <0> d           5.417   0.605  -0.047  0.00  0.00     0.174 HD
ENDBRANCH   4  12
TORSDOF 2
