REMARK  1 active torsions:
REMARK  status: ('A' for Active; 'I' for Inactive)
REMARK    1  A    between atoms: C3_3  and  O1_9 
ROOT
ATOM      1  C1  <0> d           0.002  -0.004   0.002  0.00  0.00    -0.077 A 
ATOM      2  C2  <0> d           1.207  -0.681  -0.013  0.00  0.00    -0.049 A 
ATOM      3  C3  <0> d           2.400   0.027  -0.021  0.00  0.00     0.090 A 
ATOM      4  C4  <0> d           2.381   1.415  -0.013  0.00  0.00     0.105 A 
ATOM      5  C5  <0> d           1.172   2.089   0.002  0.00  0.00     0.140 A 
ATOM      6  C6  <0> d          -0.017   1.378   0.010  0.00  0.00    -0.044 A 
ATOM      7  F1  <0> d           1.152   3.439   0.010  0.00  0.00    -0.204 F 
ATOM      8 Cl1  <0> d           3.872   2.304  -0.023  0.00  0.00    -0.078 Cl
ATOM      9  H1  <0> d          -0.926  -0.556   0.008  0.00  0.00     0.083 H 
ATOM     10  H2  <0> d           1.220  -1.761  -0.019  0.00  0.00     0.087 H 
ATOM     11  H3  <0> d          -0.960   1.904   0.017  0.00  0.00     0.088 H 
ENDROOT
BRANCH   3  12
ATOM     12  O1  <0> d           3.585  -0.638  -0.035  0.00  0.00    -0.359 OA
ATOM     13  H4  <0> d           4.531  -0.076  -0.041  0.00  0.00     0.217 HD
ENDBRANCH   3  12
TORSDOF 1
