REMARK  0 active torsions:
REMARK  status: ('A' for Active; 'I' for Inactive)
ROOT
ATOM      1  C1  <0> d           2.488   0.922   0.273  0.00  0.00    -0.064 C 
ATOM      2  C2  <0> d           1.440   1.971  -0.001  0.00  0.00    -0.063 C 
ATOM      3  C3  <0> d          -0.018   1.502   0.010  0.00  0.00    -0.045 C 
ATOM      4  C4  <0> d           0.002  -0.004   0.002  0.00  0.00     0.024 C 
ATOM      5  H1  <0> d           0.345  -0.399   0.958  0.00  0.00     0.073 H 
ATOM      6  C5  <0> d           0.997  -0.401  -1.141  0.00  0.00     0.043 C 
ATOM      7  H2  <0> d           0.947   0.299  -1.976  0.00  0.00     0.057 H 
ATOM      8  C6  <0> d           2.362  -0.394  -0.499  0.00  0.00    -0.052 C 
ATOM      9  C7  <0> d           0.104  -1.558  -1.330  0.00  0.00     0.224 C 
ATOM     10  O1  <0> d           0.207  -2.638  -1.871  0.00  0.00    -0.273 OA
ATOM     11  N1  <0> d          -0.879  -0.911  -0.659  0.00  0.00    -0.355 N 
ATOM     12  H3  <0> d           2.463   0.692   1.339  0.00  0.00     0.033 H 
ATOM     13  H4  <0> d           3.463   1.354   0.048  0.00  0.00     0.033 H 
ATOM     14  H5  <0> d           1.647   2.406  -0.979  0.00  0.00     0.033 H 
ATOM     15  H6  <0> d           1.547   2.758   0.745  0.00  0.00     0.033 H 
ATOM     16  H7  <0> d          -0.535   1.871  -0.876  0.00  0.00     0.036 H 
ATOM     17  H8  <0> d          -0.518   1.861   0.910  0.00  0.00     0.036 H 
ATOM     18  H9  <0> d           2.455  -1.237   0.185  0.00  0.00     0.034 H 
ATOM     19  H10 <0> d           3.134  -0.450  -1.267  0.00  0.00     0.034 H 
ATOM     20  H11 <0> d          -1.842  -1.030  -0.642  0.00  0.00     0.162 HD
ENDROOT
TORSDOF 0
