REMARK  2 active torsions:
REMARK  status: ('A' for Active; 'I' for Inactive)
REMARK    1  A    between atoms: C1_1  and  C3_7 
REMARK    2  A    between atoms: C2_4  and  N3_6 
ROOT
ATOM      1  C1  <0> d           1.300  -0.365  -0.012  0.00  0.00     0.278 A 
ATOM      2  N1  <0> d           2.011   0.725  -0.013  0.00  0.00    -0.115 NA
ATOM      3  N2  <0> d           1.230   1.747  -0.000  0.00  0.00    -0.103 NA
ATOM      4  C2  <0> d          -0.016   1.342   0.009  0.00  0.00     0.265 A 
ATOM      5  O1  <0> d           0.002  -0.004   0.002  0.00  0.00    -0.252 OA
ENDROOT
BRANCH   1   6
ATOM      6  C3  <0> d           1.833  -1.775  -0.024  0.00  0.00     0.460 C 
ATOM      7  F1  <0> d           3.228  -1.747   0.077  0.00  0.00    -0.163 F 
ATOM      8  F2  <0> d           1.300  -2.483   1.058  0.00  0.00    -0.163 F 
ATOM      9  F3  <0> d           1.464  -2.402  -1.219  0.00  0.00    -0.163 F 
ENDBRANCH   1   6
BRANCH   4  10
ATOM     10  N3  <0> d          -1.140   2.146   0.019  0.00  0.00    -0.362 N 
ATOM     11  H1  <0> d          -2.024   1.746   0.022  0.00  0.00     0.159 HD
ATOM     12  H2  <0> d          -1.046   3.112   0.024  0.00  0.00     0.159 HD
ENDBRANCH   4  10
TORSDOF 2
