REMARK  3 active torsions:
REMARK  status: ('A' for Active; 'I' for Inactive)
REMARK    1  A    between atoms: C3_3  and  N1_4 
REMARK    2  A    between atoms: C5_6  and  C8_11 
REMARK    3  A    between atoms: C8_11  and  O2_12 
ROOT
ATOM      1  N1  <0> d           1.774   1.858   1.408  0.00  0.00    -0.347 N 
ATOM      2  C4  <0> d           1.422   1.658  -0.003  0.00  0.00     0.004 C 
ATOM      3  C5  <0> d          -0.013   1.086   0.008  0.00  0.00    -0.010 C 
ATOM      4  H1  <0> d           0.002  -0.004   0.002  0.00  0.00     0.046 H 
ATOM      5  C6  <0> d          -0.557   1.625   1.351  0.00  0.00     0.016 C 
ATOM      6  C7  <0> d           0.681   1.849   2.190  0.00  0.00     0.220 C 
ATOM      7  O1  <0> d           0.688   1.998   3.394  0.00  0.00    -0.273 OA
ATOM      8  H7  <0> d           2.108   0.949  -0.466  0.00  0.00     0.065 H 
ATOM      9  H8  <0> d           1.445   2.608  -0.536  0.00  0.00     0.065 H 
ATOM     10  H9  <0> d          -1.089   2.563   1.198  0.00  0.00     0.048 H 
ATOM     11  H10 <0> d          -1.208   0.888   1.822  0.00  0.00     0.048 H 
ENDROOT
BRANCH   1  12
ATOM     12  C3  <0> d           3.142   2.043   1.900  0.00  0.00     0.015 A 
ATOM     13  C1  <0> d           3.354   2.036   3.415  0.00  0.00    -0.044 A 
ATOM     14  C2  <0> d           3.458   3.348   2.634  0.00  0.00    -0.044 A 
ATOM     15  H2  <0> d           2.477   1.894   4.046  0.00  0.00     0.036 H 
ATOM     16  H3  <0> d           4.280   1.600   3.792  0.00  0.00     0.036 H 
ATOM     17  H4  <0> d           4.451   3.775   2.497  0.00  0.00     0.036 H 
ATOM     18  H5  <0> d           2.648   4.068   2.751  0.00  0.00     0.036 H 
ATOM     19  H6  <0> d           3.927   1.612   1.280  0.00  0.00     0.072 H 
ENDBRANCH   1  12
BRANCH   3  20
ATOM     20  C8  <0> d          -0.827   1.626  -1.170  0.00  0.00     0.022 C 
ATOM     21  H11 <0> d          -0.912   2.709  -1.086  0.00  0.00     0.074 H 
ATOM     22  H12 <0> d          -0.326   1.372  -2.104  0.00  0.00     0.074 H 
BRANCH  20  23
ATOM     23  O2  <0> d          -2.131   1.043  -1.154  0.00  0.00    -0.400 OA
ATOM     24  H13 <0> d          -2.703   1.341  -1.875  0.00  0.00     0.209 HD
ENDBRANCH  20  23
ENDBRANCH   3  20
TORSDOF 3
