REMARK  3 active torsions:
REMARK  status: ('A' for Active; 'I' for Inactive)
REMARK    1  A    between atoms: C1_1  and  C2_2 
REMARK    2  A    between atoms: C2_2  and  N1_3 
REMARK    3  A    between atoms: C4_5  and  C6_8 
ROOT
ATOM      1  C6  <0> d          -4.174  -2.485  -1.233  0.00  0.00     0.041 C 
ATOM      2  C7  <0> d          -4.094  -3.844  -0.674  0.00  0.00     0.063 C 
ATOM      3  N3  <0> d          -4.032  -4.893  -0.242  0.00  0.00    -0.197 NA
ATOM      4  H8  <0> d          -5.184  -2.096  -1.101  0.00  0.00     0.062 H 
ATOM      5  H9  <0> d          -3.933  -2.514  -2.296  0.00  0.00     0.062 H 
ENDROOT
BRANCH   1   6
ATOM      6  C4  <0> d          -3.194  -1.589  -0.520  0.00  0.00    -0.009 A 
ATOM      7  C3  <0> d          -1.907  -1.373  -0.878  0.00  0.00     0.007 A 
ATOM      8  N1  <0> d          -1.372  -0.511   0.012  0.00  0.00    -0.281 N 
ATOM      9  H6  <0> d          -1.400  -1.810  -1.725  0.00  0.00     0.115 H 
ATOM     10  N2  <0> d          -2.361  -0.192   0.952  0.00  0.00    -0.185 NA
ATOM     11  C5  <0> d          -3.455  -0.834   0.628  0.00  0.00     0.030 A 
ATOM     12  H7  <0> d          -4.394  -0.792   1.159  0.00  0.00     0.118 H 
BRANCH   8  13
ATOM     13  C2  <0> d           0.002  -0.004   0.002  0.00  0.00     0.013 C 
ATOM     14  H4  <0> d           0.512  -0.356  -0.895  0.00  0.00     0.066 H 
ATOM     15  H5  <0> d           0.529  -0.365   0.885  0.00  0.00     0.066 H 
BRANCH  13  16
ATOM     16  C1  <0> d          -0.019   1.526   0.010  0.00  0.00    -0.059 C 
ATOM     17  H1  <0> d           1.004   1.903   0.003  0.00  0.00     0.029 H 
ATOM     18  H2  <0> d          -0.546   1.887  -0.873  0.00  0.00     0.029 H 
ATOM     19  H3  <0> d          -0.529   1.877   0.907  0.00  0.00     0.029 H 
ENDBRANCH  13  16
ENDBRANCH   8  13
ENDBRANCH   1   6
TORSDOF 3
