REMARK  1 active torsions:
REMARK  status: ('A' for Active; 'I' for Inactive)
REMARK    1  A    between atoms: C1_1  and  C2_2 
REMARK       I    between atoms: N1_7  and  C7_9 
REMARK       I    between atoms: C7_9  and  N2_11 
ROOT
ATOM      1  C2  <0> d           1.427   1.977  -0.004  0.00  0.00    -0.042 C 
ATOM      2  H1  <0> d           1.910   1.700  -0.953  0.00  0.00     0.042 H 
ATOM      3  C3  <0> d           2.196   1.353   1.163  0.00  0.00    -0.059 C 
ATOM      4  C4  <0> d           2.222  -0.169   1.003  0.00  0.00    -0.050 C 
ATOM      5  C5  <0> d           0.787  -0.705   1.027  0.00  0.00    -0.001 C 
ATOM      6  N1  <0> d           0.003  -0.004   0.001  0.00  0.00    -0.334 N 
ATOM      7  C6  <0> d          -0.016   1.465   0.009  0.00  0.00     0.002 C 
ATOM      8  C7  <0> d          -0.686  -0.695  -0.928  0.00  0.00     0.316 C 
ATOM      9  O1  <0> d          -1.404  -0.108  -1.714  0.00  0.00    -0.247 OA
ATOM     10  N2  <0> d          -0.579  -2.037  -0.987  0.00  0.00    -0.352 N 
ATOM     11  H5  <0> d           3.226   1.738   1.171  0.00  0.00     0.033 H 
ATOM     12  H6  <0> d           1.700   1.613   2.110  0.00  0.00     0.033 H 
ATOM     13  H7  <0> d           2.696  -0.429   0.045  0.00  0.00     0.035 H 
ATOM     14  H8  <0> d           2.796  -0.615   1.829  0.00  0.00     0.035 H 
ATOM     15  H9  <0> d           0.796  -1.785   0.816  0.00  0.00     0.064 H 
ATOM     16  H10 <0> d           0.346  -0.529   2.019  0.00  0.00     0.064 H 
ATOM     17  H11 <0> d          -0.526   1.827   0.914  0.00  0.00     0.065 H 
ATOM     18  H12 <0> d          -0.544   1.836  -0.882  0.00  0.00     0.065 H 
ATOM     19  H13 <0> d          -1.141  -2.601  -1.746  0.00  0.00     0.160 HD
ATOM     20  H14 <0> d           0.071  -2.569  -0.276  0.00  0.00     0.160 HD
ENDROOT
BRANCH   1  21
ATOM     21  C1  <0> d           1.430   3.501   0.140  0.00  0.00    -0.071 C 
ATOM     22  H2  <0> d           2.467   3.868   0.131  0.00  0.00     0.028 H 
ATOM     23  H3  <0> d           0.950   3.780   1.089  0.00  0.00     0.028 H 
ATOM     24  H4  <0> d           0.875   3.949  -0.697  0.00  0.00     0.028 H 
ENDBRANCH   1  21
TORSDOF 1
