REMARK  0 active torsions:
REMARK  status: ('A' for Active; 'I' for Inactive)
ROOT
ATOM      1  C1  <0> d          -2.756   2.335  -0.084  0.00  0.00    -0.061 C 
ATOM      2  C2  <0> d          -2.146   1.617  -1.287  0.00  0.00    -0.058 C 
ATOM      3  C3  <0> d          -0.642   1.677  -1.272  0.00  0.00    -0.016 C 
ATOM      4  H1  <0> d          -0.237   1.175  -2.151  0.00  0.00     0.045 H 
ATOM      5  C4  <0> d          -0.079   3.113  -1.181  0.00  0.00     0.036 C 
ATOM      6  H2  <0> d          -0.109   3.651  -2.128  0.00  0.00     0.056 H 
ATOM      7  C5  <0> d          -0.771   3.866  -0.033  0.00  0.00    -0.049 C 
ATOM      8  C6  <0> d          -1.610   2.855   0.790  0.00  0.00    -0.051 C 
ATOM      9  H3  <0> d          -2.018   3.351   1.670  0.00  0.00     0.040 H 
ATOM     10  C7  <0> d          -0.741   1.655   1.235  0.00  0.00    -0.036 C 
ATOM     11  C8  <0> d          -0.013   1.086   0.008  0.00  0.00     0.052 C 
ATOM     12  H4  <0> d           0.002  -0.004   0.002  0.00  0.00     0.084 H 
ATOM     13  O1  <0> d           1.336   1.670  -0.002  0.00  0.00    -0.315 OA
ATOM     14  C9  <0> d           1.342   2.829  -0.684  0.00  0.00     0.263 C 
ATOM     15  O2  <0> d           2.308   3.530  -0.872  0.00  0.00    -0.265 OA
ATOM     16  H5  <0> d          -3.368   3.170  -0.424  0.00  0.00     0.033 H 
ATOM     17  H6  <0> d          -3.369   1.638   0.488  0.00  0.00     0.033 H 
ATOM     18  H7  <0> d          -2.511   2.085  -2.201  0.00  0.00     0.033 H 
ATOM     19  H8  <0> d          -2.460   0.574  -1.273  0.00  0.00     0.033 H 
ATOM     20  H9  <0> d          -0.017   4.331   0.603  0.00  0.00     0.034 H 
ATOM     21  H10 <0> d          -1.421   4.638  -0.446  0.00  0.00     0.034 H 
ATOM     22  H11 <0> d          -1.374   0.882   1.671  0.00  0.00     0.037 H 
ATOM     23  H12 <0> d          -0.007   1.981   1.972  0.00  0.00     0.037 H 
ENDROOT
TORSDOF 0
