REMARK  0 active torsions:
REMARK  status: ('A' for Active; 'I' for Inactive)
ROOT
ATOM      1  C1  <0> d          -0.017   1.408   0.010  0.00  0.00    -0.042 A 
ATOM      2  C2  <0> d           1.146   2.092   0.002  0.00  0.00    -0.018 A 
ATOM      3  N1  <0> d           2.338   1.438  -0.013  0.00  0.00    -0.333 N 
ATOM      4  H1  <0> d           3.162   1.950  -0.014  0.00  0.00     0.168 HD
ATOM      5  C3  <0> d           2.396   0.095  -0.025  0.00  0.00     0.253 A 
ATOM      6  O1  <0> d           3.479  -0.468  -0.043  0.00  0.00    -0.268 OA
ATOM      7  C4  <0> d           1.216  -0.661  -0.018  0.00  0.00     0.036 A 
ATOM      8  C5  <0> d           0.002  -0.004   0.002  0.00  0.00     0.041 A 
ATOM      9  N2  <0> d          -1.190  -0.705   0.020  0.00  0.00    -0.389 N 
ATOM     10  C6  <0> d          -1.177  -2.141  -0.291  0.00  0.00    -0.007 C 
ATOM     11  C7  <0> d          -0.006  -2.776   0.469  0.00  0.00    -0.046 C 
ATOM     12  C8  <0> d           1.301  -2.163  -0.036  0.00  0.00    -0.032 C 
ATOM     13  H2  <0> d          -0.958   1.937   0.026  0.00  0.00     0.089 H 
ATOM     14  H3  <0> d           1.130   3.172   0.008  0.00  0.00     0.111 H 
ATOM     15  H4  <0> d          -2.023  -0.255   0.234  0.00  0.00     0.159 HD
ATOM     16  H5  <0> d          -2.115  -2.596   0.028  0.00  0.00     0.064 H 
ATOM     17  H6  <0> d          -1.043  -2.285  -1.363  0.00  0.00     0.064 H 
ATOM     18  H7  <0> d          -0.113  -2.579   1.536  0.00  0.00     0.035 H 
ATOM     19  H8  <0> d           0.003  -3.852   0.294  0.00  0.00     0.035 H 
ATOM     20  H9  <0> d           1.486  -2.502  -1.055  0.00  0.00     0.040 H 
ATOM     21  H10 <0> d           2.122  -2.486   0.604  0.00  0.00     0.040 H 
ENDROOT
TORSDOF 0
