REMARK  9 active torsions:
REMARK  status: ('A' for Active; 'I' for Inactive)
REMARK    1  A    between atoms: C1_1  and  C2_2 
REMARK    2  A    between atoms: C2_2  and  O1_3 
REMARK    3  A    between atoms: O1_3  and  C3_4 
REMARK    4  A    between atoms: C3_4  and  C4_6 
REMARK    5  A    between atoms: C3_4  and  O2_7 
REMARK    6  A    between atoms: O2_7  and  C5_8 
REMARK    7  A    between atoms: C5_8  and  C6_9 
REMARK    8  A    between atoms: C5_8  and  C7_10 
REMARK    9  A    between atoms: C5_8  and  C8_11 
ROOT
ATOM      1  C3  <0> d          -1.457  -2.065  -0.092  0.00  0.00     0.128 C 
ATOM      2  H1  <0> d          -0.623  -1.579  -0.599  0.00  0.00     0.128 H 
ENDROOT
BRANCH   1   3
ATOM      3  O1  <0> d          -2.525  -1.130   0.071  0.00  0.00    -0.362 OA
BRANCH   3   4
ATOM      4  C2  <0> d          -2.112   0.143   0.572  0.00  0.00     0.019 C 
ATOM      5  H5  <0> d          -1.381   0.580  -0.108  0.00  0.00     0.073 H 
ATOM      6  H6  <0> d          -1.663   0.018   1.557  0.00  0.00     0.073 H 
BRANCH   4   7
ATOM      7  C1  <0> d          -3.326   1.067   0.678  0.00  0.00    -0.056 C 
ATOM      8  H2  <0> d          -3.011   2.039   1.060  0.00  0.00     0.030 H 
ATOM      9  H3  <0> d          -3.775   1.193  -0.307  0.00  0.00     0.030 H 
ATOM     10  H4  <0> d          -4.058   0.630   1.358  0.00  0.00     0.030 H 
ENDBRANCH   4   7
ENDBRANCH   3   4
ENDBRANCH   1   3
BRANCH   1  11
ATOM     11  C4  <0> d          -1.940  -3.252  -0.928  0.00  0.00    -0.031 C 
ATOM     12  H7  <0> d          -2.267  -2.898  -1.906  0.00  0.00     0.034 H 
ATOM     13  H8  <0> d          -1.125  -3.965  -1.053  0.00  0.00     0.034 H 
ATOM     14  H9  <0> d          -2.774  -3.737  -0.421  0.00  0.00     0.034 H 
ENDBRANCH   1  11
BRANCH   1  15
ATOM     15  O2  <0> d          -1.029  -2.529   1.190  0.00  0.00    -0.352 OA
BRANCH  15  16
ATOM     16  C5  <0> d           0.333  -2.223   1.494  0.00  0.00     0.053 C 
BRANCH  16  17
ATOM     17  C6  <0> d           0.510  -0.705   1.569  0.00  0.00    -0.048 C 
ATOM     18  H10 <0> d          -0.115  -0.305   2.368  0.00  0.00     0.031 H 
ATOM     19  H11 <0> d           1.555  -0.471   1.774  0.00  0.00     0.031 H 
ATOM     20  H12 <0> d           0.217  -0.258   0.620  0.00  0.00     0.031 H 
ENDBRANCH  16  17
BRANCH  16  21
ATOM     21  C7  <0> d           0.708  -2.847   2.840  0.00  0.00    -0.048 C 
ATOM     22  H13 <0> d           0.582  -3.929   2.786  0.00  0.00     0.031 H 
ATOM     23  H14 <0> d           1.747  -2.614   3.072  0.00  0.00     0.031 H 
ATOM     24  H15 <0> d           0.062  -2.444   3.620  0.00  0.00     0.031 H 
ENDBRANCH  16  21
BRANCH  16  25
ATOM     25  C8  <0> d           1.240  -2.789   0.399  0.00  0.00    -0.048 C 
ATOM     26  H16 <0> d           0.973  -2.344  -0.559  0.00  0.00     0.031 H 
ATOM     27  H17 <0> d           2.279  -2.555   0.631  0.00  0.00     0.031 H 
ATOM     28  H18 <0> d           1.114  -3.870   0.346  0.00  0.00     0.031 H 
ENDBRANCH  16  25
ENDBRANCH  15  16
ENDBRANCH   1  15
TORSDOF 9
