REMARK  4 active torsions:
REMARK  status: ('A' for Active; 'I' for Inactive)
REMARK    1  A    between atoms: C1_1  and  C2_2 
REMARK    2  A    between atoms: C2_2  and  C3_4 
REMARK    3  A    between atoms: C6_7  and  O2_10 
REMARK    4  A    between atoms: O2_10  and  C8_11 
ROOT
ATOM      1  C3  <0> d          -0.199   1.217   2.575  0.00  0.00     0.027 A 
ATOM      2  C4  <0> d          -0.848   1.664   3.739  0.00  0.00    -0.064 A 
ATOM      3  C5  <0> d          -0.328   1.308   4.954  0.00  0.00    -0.031 A 
ATOM      4  C6  <0> d           0.819   0.519   5.002  0.00  0.00     0.163 A 
ATOM      5  N1  <0> d           1.413   0.110   3.891  0.00  0.00    -0.236 NA
ATOM      6  C7  <0> d           0.946   0.423   2.701  0.00  0.00     0.018 A 
ATOM      7  H4  <0> d          -1.737   2.274   3.676  0.00  0.00     0.085 H 
ATOM      8  H5  <0> d          -0.803   1.635   5.867  0.00  0.00     0.090 H 
ATOM      9  H6  <0> d           1.453   0.069   1.815  0.00  0.00     0.116 H 
ENDROOT
BRANCH   1  10
ATOM     10  C2  <0> d          -0.718   1.572   1.248  0.00  0.00     0.157 C 
ATOM     11  O1  <0> d          -1.715   2.256   1.150  0.00  0.00    -0.293 OA
BRANCH  10  12
ATOM     12  C1  <0> d          -0.013   1.086   0.008  0.00  0.00    -0.017 C 
ATOM     13  H1  <0> d           0.001   0.086   0.003  0.00  0.00     0.038 H 
ATOM     14  H2  <0> d           1.010   1.463   0.000  0.00  0.00     0.038 H 
ATOM     15  H3  <0> d          -0.540   1.447  -0.875  0.00  0.00     0.038 H 
ENDBRANCH  10  12
ENDBRANCH   1  10
BRANCH   4  16
ATOM     16  O2  <0> d           1.335   0.166   6.203  0.00  0.00    -0.339 OA
BRANCH  16  17
ATOM     17  C8  <0> d           2.513  -0.643   6.191  0.00  0.00     0.012 C 
ATOM     18  H7  <0> d           2.304  -1.580   5.675  0.00  0.00     0.067 H 
ATOM     19  H8  <0> d           3.312  -0.114   5.673  0.00  0.00     0.067 H 
ATOM     20  H9  <0> d           2.820  -0.853   7.215  0.00  0.00     0.067 H 
ENDBRANCH  16  17
ENDBRANCH   4  16
TORSDOF 4
