REMARK  2 active torsions:
REMARK  status: ('A' for Active; 'I' for Inactive)
REMARK    1  A    between atoms: C1_1  and  C2_2 
REMARK    2  A    between atoms: C3_3  and  C4_7 
REMARK       I    between atoms: C4_7  and  N3_9 
ROOT
ATOM      1  C2  <0> d          -0.718   1.572   1.248  0.00  0.00     0.097 A 
ATOM      2  C3  <0> d          -0.146   1.879   2.572  0.00  0.00     0.180 A 
ATOM      3  N1  <0> d          -1.203   2.255   3.260  0.00  0.00    -0.098 NA
ATOM      4  O1  <0> d          -2.180   2.198   2.551  0.00  0.00    -0.106 OA
ATOM      5  N2  <0> d          -1.988   1.831   1.416  0.00  0.00    -0.108 NA
ENDROOT
BRANCH   2   6
ATOM      6  C4  <0> d           1.266   1.788   3.017  0.00  0.00     0.272 C 
ATOM      7  O2  <0> d           2.124   1.417   2.241  0.00  0.00    -0.266 OA
ATOM      8  N3  <0> d           1.597   2.116   4.281  0.00  0.00    -0.365 N 
ATOM      9  H4  <0> d           0.911   2.412   4.901  0.00  0.00     0.159 HD
ATOM     10  H5  <0> d           2.520   2.056   4.572  0.00  0.00     0.159 HD
ENDBRANCH   2   6
BRANCH   1  11
ATOM     11  C1  <0> d          -0.013   1.086   0.008  0.00  0.00    -0.031 C 
ATOM     12  H1  <0> d           0.002  -0.004   0.002  0.00  0.00     0.035 H 
ATOM     13  H2  <0> d           1.010   1.463   0.000  0.00  0.00     0.035 H 
ATOM     14  H3  <0> d          -0.540   1.447  -0.875  0.00  0.00     0.035 H 
ENDBRANCH   1  11
TORSDOF 2
