REMARK  1 active torsions:
REMARK  status: ('A' for Active; 'I' for Inactive)
REMARK    1  A    between atoms: C1_1  and  C2_2 
ROOT
ATOM      1  C2  <0> d           0.002  -0.004   0.002  0.00  0.00     0.164 A 
ATOM      2  N1  <0> d           0.008  -0.769  -1.052  0.00  0.00    -0.128 NA
ATOM      3  N2  <0> d           0.027  -2.002  -0.685  0.00  0.00    -0.136 NA
ATOM      4  C3  <0> d           0.034  -2.066   0.616  0.00  0.00     0.126 A 
ATOM      5  O1  <0> d           0.023  -0.805   1.081  0.00  0.00    -0.286 OA
ATOM      6  H4  <0> d           0.049  -2.966   1.212  0.00  0.00     0.158 H 
ENDROOT
BRANCH   1   7
ATOM      7  C1  <0> d          -0.018   1.503   0.010  0.00  0.00    -0.013 C 
ATOM      8  H1  <0> d           1.004   1.880   0.003  0.00  0.00     0.038 H 
ATOM      9  H2  <0> d          -0.545   1.864  -0.873  0.00  0.00     0.038 H 
ATOM     10  H3  <0> d          -0.529   1.854   0.907  0.00  0.00     0.038 H 
ENDBRANCH   1   7
TORSDOF 1
