REMARK  2 active torsions:
REMARK  status: ('A' for Active; 'I' for Inactive)
REMARK    1  A    between atoms: C1_1  and  O1_2 
REMARK    2  A    between atoms: O1_2  and  C2_3 
ROOT
ATOM      1  C2  <0> d          -1.200  -0.637   0.010  0.00  0.00     0.088 A 
ATOM      2  C3  <0> d          -1.265  -2.027   0.009  0.00  0.00    -0.011 A 
ATOM      3  C4  <0> d          -2.516  -2.628   0.018  0.00  0.00     0.136 A 
ATOM      4  C5  <0> d          -3.648  -1.831   0.028  0.00  0.00     0.039 A 
ATOM      5  N1  <0> d          -3.549  -0.516   0.028  0.00  0.00    -0.267 NA
ATOM      6  C6  <0> d          -2.380   0.093   0.025  0.00  0.00     0.034 A 
ATOM      7  F1  <0> d          -2.627  -3.974   0.017  0.00  0.00    -0.204 F 
ATOM      8  H4  <0> d          -0.365  -2.623   0.001  0.00  0.00     0.092 H 
ATOM      9  H5  <0> d          -4.625  -2.292   0.035  0.00  0.00     0.119 H 
ATOM     10  H6  <0> d          -2.340   1.172   0.030  0.00  0.00     0.119 H 
ENDROOT
BRANCH   1  11
ATOM     11  O1  <0> d           0.002  -0.004   0.002  0.00  0.00    -0.354 OA
BRANCH  11  12
ATOM     12  C1  <0> d          -0.017   1.425   0.010  0.00  0.00     0.010 C 
ATOM     13  H1  <0> d           1.005   1.802   0.002  0.00  0.00     0.066 H 
ATOM     14  H2  <0> d          -0.544   1.786  -0.873  0.00  0.00     0.066 H 
ATOM     15  H3  <0> d          -0.527   1.776   0.907  0.00  0.00     0.066 H 
ENDBRANCH  11  12
ENDBRANCH   1  11
TORSDOF 2
