REMARK  0 active torsions:
REMARK  status: ('A' for Active; 'I' for Inactive)
ROOT
ATOM      1  C1  <0> d          -0.017   1.377   0.010  0.00  0.00    -0.081 A 
ATOM      2  C2  <0> d           1.170   2.089   0.002  0.00  0.00    -0.080 A 
ATOM      3  C3  <0> d           2.381   1.425  -0.013  0.00  0.00    -0.048 A 
ATOM      4  C4  <0> d           2.410   0.040  -0.021  0.00  0.00     0.107 A 
ATOM      5  C5  <0> d           1.214  -0.677  -0.013  0.00  0.00     0.070 A 
ATOM      6  C6  <0> d           0.002  -0.004   0.002  0.00  0.00    -0.054 A 
ATOM      7  N1  <0> d           1.559  -2.028  -0.024  0.00  0.00    -0.300 N 
ATOM      8  C7  <0> d           2.904  -2.103  -0.038  0.00  0.00     0.370 A 
ATOM      9  O1  <0> d           3.421  -0.864  -0.036  0.00  0.00    -0.259 OA
ATOM     10  O2  <0> d           3.550  -3.133  -0.050  0.00  0.00    -0.238 OA
ATOM     11  H1  <0> d          -0.960   1.903   0.026  0.00  0.00     0.083 H 
ATOM     12  H2  <0> d           1.149   3.169   0.008  0.00  0.00     0.083 H 
ATOM     13  H3  <0> d           3.305   1.986  -0.019  0.00  0.00     0.087 H 
ATOM     14  H4  <0> d          -0.925  -0.558   0.008  0.00  0.00     0.087 H 
ATOM     15  H5  <0> d           0.943  -2.777  -0.022  0.00  0.00     0.171 HD
ENDROOT
TORSDOF 0
