REMARK  1 active torsions:
REMARK  status: ('A' for Active; 'I' for Inactive)
REMARK    1  A    between atoms: C1_1  and  C2_2 
REMARK       I    between atoms: N2_6  and  C5_7 
REMARK       I    between atoms: C5_7  and  N3_9 
ROOT
ATOM      1  C2  <0> d          -2.428   1.300   0.015  0.00  0.00     0.039 A 
ATOM      2  C3  <0> d          -3.336   2.301   0.031  0.00  0.00    -0.041 A 
ATOM      3  C4  <0> d          -2.640   3.517   0.033  0.00  0.00     0.024 A 
ATOM      4  N1  <0> d          -1.359   3.260   0.026  0.00  0.00    -0.176 NA
ATOM      5  N2  <0> d          -1.191   1.869   0.018  0.00  0.00    -0.188 N 
ATOM      6  C5  <0> d          -0.014   1.211   0.009  0.00  0.00     0.341 C 
ATOM      7  O1  <0> d           0.002  -0.004   0.002  0.00  0.00    -0.245 OA
ATOM      8  N3  <0> d           1.143   1.900   0.001  0.00  0.00    -0.350 N 
ATOM      9  H4  <0> d          -4.410   2.184   0.035  0.00  0.00     0.088 H 
ATOM     10  H5  <0> d          -3.086   4.500   0.040  0.00  0.00     0.117 H 
ATOM     11  H6  <0> d           1.990   1.427  -0.009  0.00  0.00     0.160 HD
ATOM     12  H7  <0> d           1.130   2.870   0.007  0.00  0.00     0.160 HD
ENDROOT
BRANCH   1  13
ATOM     13  C1  <0> d          -2.730  -0.176   0.001  0.00  0.00    -0.035 C 
ATOM     14  H1  <0> d          -2.801  -0.542   1.025  0.00  0.00     0.035 H 
ATOM     15  H2  <0> d          -3.676  -0.348  -0.512  0.00  0.00     0.035 H 
ATOM     16  H3  <0> d          -1.933  -0.705  -0.520  0.00  0.00     0.035 H 
ENDBRANCH   1  13
TORSDOF 1
