REMARK  5 active torsions:
REMARK  status: ('A' for Active; 'I' for Inactive)
REMARK    1  A    between atoms: C1_1  and  C2_2 
REMARK    2  A    between atoms: C2_2  and  C3_4 
REMARK    3  A    between atoms: C2_2  and  O2_8 
REMARK    4  A    between atoms: C3_4  and  C4_6 
REMARK    5  A    between atoms: C3_4  and  O1_7 
ROOT
ATOM      1  C2  <0> d          -0.019   1.526   0.010  0.00  0.00     0.056 C 
ATOM      2  H1  <0> d           1.004   1.903   0.003  0.00  0.00     0.086 H 
ENDROOT
BRANCH   1   3
ATOM      3  C1  <0> d          -0.735   2.019   1.269  0.00  0.00    -0.050 C 
ATOM      4  H3  <0> d          -0.208   1.658   2.152  0.00  0.00     0.031 H 
ATOM      5  H4  <0> d          -0.750   3.109   1.275  0.00  0.00     0.031 H 
ATOM      6  H5  <0> d          -1.757   1.642   1.277  0.00  0.00     0.031 H 
ENDBRANCH   1   3
BRANCH   1   7
ATOM      7  C3  <0> d           0.002  -0.004   0.002  0.00  0.00     0.056 C 
ATOM      8  H2  <0> d           0.604  -0.364   0.836  0.00  0.00     0.086 H 
BRANCH   7   9
ATOM      9  C4  <0> d           0.606  -0.499  -1.314  0.00  0.00    -0.050 C 
ATOM     10  H6  <0> d           0.621  -1.589  -1.320  0.00  0.00     0.031 H 
ATOM     11  H7  <0> d           0.004  -0.139  -2.148  0.00  0.00     0.031 H 
ATOM     12  H8  <0> d           1.624  -0.121  -1.411  0.00  0.00     0.031 H 
ENDBRANCH   7   9
BRANCH   7  13
ATOM     13  O1  <0> d          -1.332  -0.499   0.130  0.00  0.00    -0.393 OA
ATOM     14  H9  <0> d          -1.395  -1.464   0.132  0.00  0.00     0.210 HD
ENDBRANCH   7  13
ENDBRANCH   1   7
BRANCH   1  15
ATOM     15  O2  <0> d          -0.710   1.999  -1.147  0.00  0.00    -0.393 OA
ATOM     16  H10 <0> d          -0.762   2.963  -1.208  0.00  0.00     0.210 HD
ENDBRANCH   1  15
TORSDOF 5
