REMARK  9 active torsions:
REMARK  status: ('A' for Active; 'I' for Inactive)
REMARK    1  A    between atoms: C1_1  and  C2_2 
REMARK    2  A    between atoms: C2_2  and  C3_3 
REMARK    3  A    between atoms: C2_2  and  O2_7 
REMARK    4  A    between atoms: C2_2  and  O3_9 
REMARK    5  A    between atoms: C3_3  and  C4_4 
REMARK    6  A    between atoms: C4_4  and  O1_5 
REMARK    7  A    between atoms: O1_5  and  C5_6 
REMARK    8  A    between atoms: O2_7  and  C6_8 
REMARK    9  A    between atoms: O3_9  and  C7_10 
ROOT
ATOM      1  C2  <0> d          -0.017   1.425   0.010  0.00  0.00     0.161 C 
ENDROOT
BRANCH   1   2
ATOM      2  C1  <0> d          -0.733   1.918   1.269  0.00  0.00    -0.025 C 
ATOM      3  H1  <0> d          -0.206   1.557   2.152  0.00  0.00     0.035 H 
ATOM      4  H2  <0> d          -0.748   3.008   1.275  0.00  0.00     0.035 H 
ATOM      5  H3  <0> d          -1.756   1.541   1.276  0.00  0.00     0.035 H 
ENDBRANCH   1   2
BRANCH   1   6
ATOM      6  C3  <0> d          -0.757   1.932  -1.230  0.00  0.00     0.006 C 
ATOM      7  H4  <0> d          -0.696   3.019  -1.270  0.00  0.00     0.044 H 
ATOM      8  H5  <0> d          -0.300   1.508  -2.124  0.00  0.00     0.044 H 
BRANCH   6   9
ATOM      9  C4  <0> d          -2.225   1.506  -1.157  0.00  0.00     0.024 C 
ATOM     10  H6  <0> d          -2.287   0.419  -1.116  0.00  0.00     0.074 H 
ATOM     11  H7  <0> d          -2.682   1.930  -0.262  0.00  0.00     0.074 H 
BRANCH   9  12
ATOM     12  O1  <0> d          -2.916   1.980  -2.314  0.00  0.00    -0.396 OA
BRANCH  12  13
ATOM     13  C5  <0> d          -4.303   1.635  -2.345  0.00  0.00     0.004 C 
ATOM     14  H8  <0> d          -4.408   0.550  -2.329  0.00  0.00     0.066 H 
ATOM     15  H9  <0> d          -4.803   2.061  -1.476  0.00  0.00     0.066 H 
ATOM     16  H10 <0> d          -4.755   2.030  -3.255  0.00  0.00     0.066 H 
ENDBRANCH  12  13
ENDBRANCH   9  12
ENDBRANCH   6   9
ENDBRANCH   1   6
BRANCH   1  17
ATOM     17  O2  <0> d           0.002  -0.004   0.002  0.00  0.00    -0.360 OA
BRANCH  17  18
ATOM     18  C6  <0> d           0.748  -0.569  -1.078  0.00  0.00     0.007 C 
ATOM     19  H11 <0> d           1.784  -0.234  -1.018  0.00  0.00     0.066 H 
ATOM     20  H12 <0> d           0.715  -1.657  -1.013  0.00  0.00     0.066 H 
ATOM     21  H13 <0> d           0.316  -0.248  -2.025  0.00  0.00     0.066 H 
ENDBRANCH  17  18
ENDBRANCH   1  17
BRANCH   1  22
ATOM     22  O3  <0> d           1.323   1.919  -0.000  0.00  0.00    -0.360 OA
BRANCH  22  23
ATOM     23  C7  <0> d           2.138   1.412   1.059  0.00  0.00     0.007 C 
ATOM     24  H14 <0> d           1.700   1.689   2.018  0.00  0.00     0.066 H 
ATOM     25  H15 <0> d           2.195   0.326   0.985  0.00  0.00     0.066 H 
ATOM     26  H16 <0> d           3.140   1.835   0.981  0.00  0.00     0.066 H 
ENDBRANCH  22  23
ENDBRANCH   1  22
TORSDOF 9
