REMARK  2 active torsions:
REMARK  status: ('A' for Active; 'I' for Inactive)
REMARK    1  A    between atoms: C1_1  and  C2_2 
REMARK    2  A    between atoms: C5_5  and  N3_12 
ROOT
ATOM      1  C2  <0> d          -1.393  -0.434   0.013  0.00  0.00     0.063 A 
ATOM      2  C3  <0> d           0.002  -0.004   0.002  0.00  0.00     0.020 A 
ATOM      3  C4  <0> d           1.227  -0.681  -0.013  0.00  0.00    -0.044 A 
ATOM      4  C5  <0> d           2.403   0.042  -0.021  0.00  0.00     0.026 A 
ATOM      5  C6  <0> d           2.372   1.437  -0.013  0.00  0.00    -0.056 A 
ATOM      6  C7  <0> d           1.184   2.109   0.002  0.00  0.00    -0.053 A 
ATOM      7  C8  <0> d          -0.017   1.403   0.010  0.00  0.00     0.062 A 
ATOM      8  N1  <0> d          -1.337   1.780   0.030  0.00  0.00    -0.277 N 
ATOM      9  H1  <0> d          -1.605   2.846   0.045  0.00  0.00     0.189 HD
ATOM     10  N2  <0> d          -2.139   0.634   0.027  0.00  0.00    -0.179 NA
ATOM     11  H5  <0> d           1.252  -1.761  -0.020  0.00  0.00     0.088 H 
ATOM     12  H6  <0> d           3.299   1.991  -0.018  0.00  0.00     0.087 H 
ATOM     13  H7  <0> d           1.175   3.189   0.008  0.00  0.00     0.087 H 
ENDROOT
BRANCH   1  14
ATOM     14  C1  <0> d          -1.882  -1.859   0.011  0.00  0.00    -0.033 C 
ATOM     15  H2  <0> d          -1.020  -2.543  -0.002  0.00  0.00     0.035 H 
ATOM     16  H3  <0> d          -2.501  -2.033  -0.882  0.00  0.00     0.035 H 
ATOM     17  H4  <0> d          -2.483  -2.042   0.914  0.00  0.00     0.035 H 
ENDBRANCH   1  14
BRANCH   4  18
ATOM     18  N3  <0> d           3.632  -0.628  -0.036  0.00  0.00    -0.399 N 
ATOM     19  H8  <0> d           4.570  -0.054  -0.042  0.00  0.00     0.156 HD
ATOM     20  H9  <0> d           3.659  -1.727  -0.043  0.00  0.00     0.156 HD
ENDBRANCH   4  18
TORSDOF 2
