REMARK  2 active torsions:
REMARK  status: ('A' for Active; 'I' for Inactive)
REMARK    1  A    between atoms: C1_1  and  C2_2 
REMARK    2  A    between atoms: C2_2  and  C6_8 
ROOT
ATOM      1  C2  <0> d           2.148   0.641   0.667  0.00  0.00     0.043 C 
ATOM      2  C3  <0> d           1.474   1.860  -0.002  0.00  0.00    -0.029 C 
ATOM      3  C4  <0> d          -0.018   1.454   0.010  0.00  0.00     0.030 C 
ATOM      4  O1  <0> d           0.002  -0.004   0.002  0.00  0.00    -0.321 OA
ATOM      5  C5  <0> d           1.099  -0.449   0.631  0.00  0.00     0.267 C 
ATOM      6  O2  <0> d           1.231  -1.555   1.099  0.00  0.00    -0.264 OA
ATOM      7  H4  <0> d           1.833   1.990  -1.023  0.00  0.00     0.037 H 
ATOM      8  H5  <0> d           1.635   2.764   0.585  0.00  0.00     0.037 H 
ATOM      9  H6  <0> d          -0.522   1.833  -0.879  0.00  0.00     0.075 H 
ATOM     10  H7  <0> d          -0.505   1.823   0.912  0.00  0.00     0.075 H 
ENDROOT
BRANCH   1  11
ATOM     11  C1  <0> d           2.525   0.969   2.113  0.00  0.00    -0.060 C 
ATOM     12  H1  <0> d           2.948   0.084   2.588  0.00  0.00     0.029 H 
ATOM     13  H2  <0> d           3.261   1.773   2.123  0.00  0.00     0.029 H 
ATOM     14  H3  <0> d           1.636   1.284   2.659  0.00  0.00     0.029 H 
ENDBRANCH   1  11
BRANCH   1  15
ATOM     15  C6  <0> d           3.386   0.216  -0.125  0.00  0.00    -0.060 C 
ATOM     16  H8  <0> d           3.102   0.001  -1.155  0.00  0.00     0.029 H 
ATOM     17  H9  <0> d           4.120   1.022  -0.111  0.00  0.00     0.029 H 
ATOM     18  H10 <0> d           3.817  -0.677   0.328  0.00  0.00     0.029 H 
ENDBRANCH   1  15
TORSDOF 2
