REMARK  2 active torsions:
REMARK  status: ('A' for Active; 'I' for Inactive)
REMARK    1  A    between atoms: C1_1  and  C2_2 
REMARK    2  A    between atoms: C4_5  and  C5_7 
ROOT
ATOM      1  C2  <0> d           1.335   1.811  -0.001  0.00  0.00    -0.044 A 
ATOM      2  H1  <0> d           2.236   1.198  -0.013  0.00  0.00     0.040 H 
ATOM      3  C3  <0> d           0.484   1.792   1.271  0.00  0.00    -0.048 A 
ATOM      4  C4  <0> d          -0.013   1.086   0.008  0.00  0.00     0.034 A 
ATOM      5  H2  <0> d           0.002  -0.004   0.002  0.00  0.00     0.057 H 
ATOM      6  H6  <0> d          -0.012   2.719   1.558  0.00  0.00     0.034 H 
ATOM      7  H7  <0> d           0.826   1.167   2.096  0.00  0.00     0.034 H 
ENDROOT
BRANCH   1   8
ATOM      8  C1  <0> d           1.423   3.129  -0.773  0.00  0.00    -0.072 C 
ATOM      9  H3  <0> d           0.714   3.843  -0.354  0.00  0.00     0.028 H 
ATOM     10  H4  <0> d           2.433   3.530  -0.693  0.00  0.00     0.028 H 
ATOM     11  H5  <0> d           1.183   2.952  -1.821  0.00  0.00     0.028 H 
ENDBRANCH   1   8
BRANCH   4  12
ATOM     12  C5  <0> d          -1.151   1.724  -0.745  0.00  0.00     0.177 C 
ATOM     13  O1  <0> d          -0.980   2.769  -1.326  0.00  0.00    -0.648 OA
ATOM     14  O2  <0> d          -2.356   1.133  -0.768  0.00  0.00    -0.648 OA
ENDBRANCH   4  12
TORSDOF 2
