REMARK  1 active torsions:
REMARK  status: ('A' for Active; 'I' for Inactive)
REMARK    1  A    between atoms: C2_2  and  C4_7 
ROOT
ATOM      1  C1  <0> d          -0.019   1.526   0.010  0.00  0.00    -0.020 A 
ATOM      2  C2  <0> d           1.317   0.779  -0.006  0.00  0.00     0.062 A 
ATOM      3  H1  <0> d           1.906   0.782   0.910  0.00  0.00     0.061 H 
ATOM      4  C3  <0> d           0.002  -0.004   0.002  0.00  0.00     0.093 A 
ATOM      5  H2  <0> d          -0.290  -0.506  -0.920  0.00  0.00     0.092 H 
ATOM      6  F1  <0> d          -0.351  -0.661   1.185  0.00  0.00    -0.248 F 
ATOM      7  H3  <0> d          -0.307   2.020   0.938  0.00  0.00     0.038 H 
ATOM      8  H4  <0> d          -0.325   2.030  -0.906  0.00  0.00     0.038 H 
ENDROOT
BRANCH   2   9
ATOM      9  C4  <0> d           2.108   0.797  -1.289  0.00  0.00     0.179 C 
ATOM     10  O1  <0> d           3.321   0.918  -1.255  0.00  0.00    -0.648 OA
ATOM     11  O2  <0> d           1.536   0.691  -2.360  0.00  0.00    -0.648 OA
ENDBRANCH   2   9
TORSDOF 1
