REMARK  3 active torsions:
REMARK  status: ('A' for Active; 'I' for Inactive)
REMARK    1  A    between atoms: C1_1  and  C2_2 
REMARK    2  A    between atoms: C7_8  and  C8_10 
REMARK    3  A    between atoms: C8_10  and  O1_11 
ROOT
ATOM      1  C2  <0> d          -0.750   3.109   1.275  0.00  0.00    -0.052 C 
ATOM      2  H1  <0> d           0.273   3.486   1.268  0.00  0.00     0.040 H 
ATOM      3  C3  <0> d          -0.729   1.579   1.267  0.00  0.00    -0.062 C 
ATOM      4  C4  <0> d          -0.013   1.086   0.008  0.00  0.00    -0.065 C 
ATOM      5  C5  <0> d          -0.753   1.593  -1.232  0.00  0.00    -0.065 C 
ATOM      6  C6  <0> d          -0.773   3.123  -1.223  0.00  0.00    -0.059 C 
ATOM      7  C7  <0> d          -1.490   3.616   0.036  0.00  0.00    -0.030 C 
ATOM      8  H2  <0> d          -2.512   3.239   0.043  0.00  0.00     0.043 H 
ATOM      9  H6  <0> d          -1.751   1.202   1.275  0.00  0.00     0.033 H 
ATOM     10  H7  <0> d          -0.202   1.218   2.150  0.00  0.00     0.033 H 
ATOM     11  H8  <0> d           0.002  -0.004   0.002  0.00  0.00     0.033 H 
ATOM     12  H9  <0> d           1.010   1.463   0.000  0.00  0.00     0.033 H 
ATOM     13  H10 <0> d          -0.242   1.241  -2.128  0.00  0.00     0.033 H 
ATOM     14  H11 <0> d          -1.775   1.215  -1.224  0.00  0.00     0.033 H 
ATOM     15  H12 <0> d           0.249   3.500  -1.231  0.00  0.00     0.033 H 
ATOM     16  H13 <0> d          -1.301   3.484  -2.106  0.00  0.00     0.033 H 
ENDROOT
BRANCH   7  17
ATOM     17  C8  <0> d          -1.510   5.146   0.044  0.00  0.00     0.020 C 
ATOM     18  H14 <0> d          -1.941   5.498   0.982  0.00  0.00     0.074 H 
ATOM     19  H15 <0> d          -0.492   5.524  -0.053  0.00  0.00     0.074 H 
BRANCH  17  20
ATOM     20  O1  <0> d          -2.300   5.617  -1.050  0.00  0.00    -0.400 OA
ATOM     21  H16 <0> d          -2.357   6.581  -1.106  0.00  0.00     0.209 HD
ENDBRANCH  17  20
ENDBRANCH   7  17
BRANCH   1  22
ATOM     22  C1  <0> d          -1.466   3.603   2.534  0.00  0.00    -0.072 C 
ATOM     23  H3  <0> d          -2.488   3.225   2.542  0.00  0.00     0.028 H 
ATOM     24  H4  <0> d          -0.939   3.241   3.417  0.00  0.00     0.028 H 
ATOM     25  H5  <0> d          -1.480   4.692   2.540  0.00  0.00     0.028 H 
ENDBRANCH   1  22
TORSDOF 3
