REMARK  2 active torsions:
REMARK  status: ('A' for Active; 'I' for Inactive)
REMARK    1  A    between atoms: C1_1  and  C2_2 
REMARK    2  A    between atoms: C2_2  and  C3_3 
ROOT
ATOM      1  C2  <0> d          -0.022   1.799   0.012  0.00  0.00     0.106 C 
ATOM      2 Cl1  <0> d           0.002  -0.004   0.002  0.00  0.00    -0.102 Cl
ATOM      3 Cl2  <0> d           1.669   2.423  -0.001  0.00  0.00    -0.102 Cl
ENDROOT
BRANCH   1   4
ATOM      4  C1  <0> d          -0.762   2.306  -1.228  0.00  0.00    -0.044 C 
ATOM      5  H1  <0> d          -1.785   1.928  -1.220  0.00  0.00     0.031 H 
ATOM      6  H2  <0> d          -0.777   3.396  -1.222  0.00  0.00     0.031 H 
ATOM      7  H3  <0> d          -0.252   1.954  -2.124  0.00  0.00     0.031 H 
ENDBRANCH   1   4
BRANCH   1   8
ATOM      8  C3  <0> d          -0.739   2.292   1.271  0.00  0.00    -0.044 C 
ATOM      9  H4  <0> d          -0.211   1.931   2.154  0.00  0.00     0.031 H 
ATOM     10  H5  <0> d          -0.753   3.382   1.277  0.00  0.00     0.031 H 
ATOM     11  H6  <0> d          -1.761   1.915   1.278  0.00  0.00     0.031 H 
ENDBRANCH   1   8
TORSDOF 2
