REMARK  1 active torsions:
REMARK  status: ('A' for Active; 'I' for Inactive)
REMARK    1  A    between atoms: C1_1  and  N1_2 
ROOT
ATOM      1  N1  <0> d           0.002  -0.004   0.002  0.00  0.00    -0.330 N 
ATOM      2  C2  <0> d           0.025  -0.866   1.194  0.00  0.00     0.020 A 
ATOM      3  C3  <0> d           0.038  -2.293   0.614  0.00  0.00     0.045 A 
ATOM      4  O1  <0> d           0.022  -2.089  -0.828  0.00  0.00    -0.302 OA
ATOM      5  C4  <0> d          -0.004  -0.777  -1.092  0.00  0.00     0.362 A 
ATOM      6  O2  <0> d          -0.026  -0.329  -2.221  0.00  0.00    -0.238 OA
ATOM      7  H4  <0> d           0.925  -0.683   1.781  0.00  0.00     0.067 H 
ATOM      8  H5  <0> d          -0.868  -0.707   1.799  0.00  0.00     0.067 H 
ATOM      9  H6  <0> d           0.945  -2.820   0.915  0.00  0.00     0.077 H 
ATOM     10  H7  <0> d          -0.847  -2.843   0.932  0.00  0.00     0.077 H 
ENDROOT
BRANCH   1  11
ATOM     11  C1  <0> d          -0.018   1.461   0.010  0.00  0.00    -0.014 C 
ATOM     12  H1  <0> d           1.005   1.838   0.002  0.00  0.00     0.056 H 
ATOM     13  H2  <0> d          -0.545   1.822  -0.873  0.00  0.00     0.056 H 
ATOM     14  H3  <0> d          -0.528   1.812   0.907  0.00  0.00     0.056 H 
ENDBRANCH   1  11
TORSDOF 1
