REMARK  0 active torsions:
REMARK  status: ('A' for Active; 'I' for Inactive)
ROOT
ATOM      1  C1  <0> d           2.394   0.041  -0.021  0.00  0.00    -0.082 A 
ATOM      2  C2  <0> d           2.375   1.432  -0.013  0.00  0.00    -0.082 A 
ATOM      3  C3  <0> d           1.194   2.116   0.002  0.00  0.00    -0.072 A 
ATOM      4  C4  <0> d          -0.017   1.412   0.010  0.00  0.00    -0.026 A 
ATOM      5  C5  <0> d          -1.137   2.279   0.031  0.00  0.00    -0.069 A 
ATOM      6  C6  <0> d          -2.453   1.949   0.035  0.00  0.00    -0.034 A 
ATOM      7  C7  <0> d          -3.043   0.663   0.034  0.00  0.00     0.172 A 
ATOM      8  O1  <0> d          -4.264   0.646   0.044  0.00  0.00    -0.289 OA
ATOM      9  C8  <0> d          -2.419  -0.606   0.021  0.00  0.00    -0.034 A 
ATOM     10  C9  <0> d          -1.094  -0.901   0.008  0.00  0.00    -0.069 A 
ATOM     11  C10 <0> d           0.002  -0.004   0.002  0.00  0.00    -0.026 A 
ATOM     12  C11 <0> d           1.232  -0.675  -0.013  0.00  0.00    -0.072 A 
ATOM     13  H1  <0> d           3.341  -0.478  -0.033  0.00  0.00     0.083 H 
ATOM     14  H2  <0> d           3.307   1.978  -0.019  0.00  0.00     0.083 H 
ATOM     15  H3  <0> d           1.194   3.196   0.007  0.00  0.00     0.084 H 
ATOM     16  H4  <0> d          -0.915   3.336   0.033  0.00  0.00     0.085 H 
ATOM     17  H5  <0> d          -3.143   2.779   0.046  0.00  0.00     0.089 H 
ATOM     18  H6  <0> d          -3.086  -1.455   0.023  0.00  0.00     0.089 H 
ATOM     19  H7  <0> d          -0.844  -1.952  -0.000  0.00  0.00     0.085 H 
ATOM     20  H8  <0> d           1.261  -1.755  -0.020  0.00  0.00     0.084 H 
ENDROOT
TORSDOF 0
