REMARK  1 active torsions:
REMARK  status: ('A' for Active; 'I' for Inactive)
REMARK    1  A    between atoms: C1_1  and  C2_2 
ROOT
ATOM      1  C2  <0> d          -0.742   1.585  -1.213  0.00  0.00     0.105 A 
ATOM      2  N1  <0> d          -0.870   2.913  -1.404  0.00  0.00    -0.310 N 
ATOM      3  C3  <0> d          -1.518   3.384  -2.489  0.00  0.00     0.273 A 
ATOM      4  C4  <0> d          -2.051   2.465  -3.408  0.00  0.00     0.157 A 
ATOM      5  C5  <0> d          -1.887   1.116  -3.159  0.00  0.00     0.229 A 
ATOM      6  N2  <0> d          -1.228   0.720  -2.061  0.00  0.00    -0.207 NA
ATOM      7  O1  <0> d          -2.387   0.199  -4.020  0.00  0.00    -0.168 OA
ATOM      8 Cl1  <0> d          -2.896   3.011  -4.823  0.00  0.00    -0.073 Cl
ATOM      9  O2  <0> d          -1.640   4.585  -2.669  0.00  0.00    -0.266 OA
ATOM     10  H4  <0> d          -0.495   3.533  -0.758  0.00  0.00     0.170 HD
ENDROOT
BRANCH   1  11
ATOM     11  C1  <0> d          -0.013   1.086   0.008  0.00  0.00    -0.021 C 
ATOM     12  H1  <0> d           0.002  -0.004   0.002  0.00  0.00     0.037 H 
ATOM     13  H2  <0> d           1.010   1.463   0.000  0.00  0.00     0.037 H 
ATOM     14  H3  <0> d          -0.523   1.437   0.905  0.00  0.00     0.037 H 
ENDBRANCH   1  11
TORSDOF 1
