REMARK  1 active torsions:
REMARK  status: ('A' for Active; 'I' for Inactive)
REMARK    1  A    between atoms: C6_6  and  O1_7 
ROOT
ATOM      1  C1  <0> d          -0.753   1.593  -1.232  0.00  0.00    -0.036 C 
ATOM      2  C2  <0> d          -0.013   1.086   0.008  0.00  0.00    -0.002 C 
ATOM      3  C3  <0> d          -0.729   1.579   1.267  0.00  0.00     0.243 C 
ATOM      4  C4  <0> d          -0.750   3.109   1.275  0.00  0.00    -0.002 C 
ATOM      5  C5  <0> d          -1.490   3.616   0.036  0.00  0.00    -0.036 C 
ATOM      6  C6  <0> d          -0.773   3.123  -1.223  0.00  0.00     0.036 C 
ATOM      7  F1  <0> d          -2.041   1.095   1.277  0.00  0.00    -0.206 F 
ATOM      8  F2  <0> d          -0.052   1.116   2.400  0.00  0.00    -0.206 F 
ATOM      9  H1  <0> d          -1.785   1.212  -1.224  0.00  0.00     0.037 H 
ATOM     10  H2  <0> d          -0.238   1.238  -2.136  0.00  0.00     0.037 H 
ATOM     11  H3  <0> d           0.002  -0.014   0.002  0.00  0.00     0.042 H 
ATOM     12  H4  <0> d           1.019   1.466   0.000  0.00  0.00     0.042 H 
ATOM     13  H5  <0> d          -1.264   3.464   2.180  0.00  0.00     0.042 H 
ATOM     14  H6  <0> d           0.282   3.490   1.267  0.00  0.00     0.042 H 
ATOM     15  H7  <0> d          -2.522   3.235   0.043  0.00  0.00     0.037 H 
ATOM     16  H8  <0> d          -1.505   4.716   0.042  0.00  0.00     0.037 H 
ATOM     17  H9  <0> d           0.244   3.535  -1.291  0.00  0.00     0.082 H 
ENDROOT
BRANCH   6  18
ATOM     18  O1  <0> d          -1.465   3.596  -2.381  0.00  0.00    -0.396 OA
ATOM     19  H10 <0> d          -1.581   4.677  -2.548  0.00  0.00     0.210 HD
ENDBRANCH   6  18
TORSDOF 1
