REMARK  3 active torsions:
REMARK  status: ('A' for Active; 'I' for Inactive)
REMARK    1  A    between atoms: C1_1  and  N1_2 
REMARK       I    between atoms: N1_2  and  C2_3 
REMARK    2  A    between atoms: C2_3  and  C3_5 
REMARK    3  A    between atoms: C3_5  and  C4_6 
ROOT
ATOM      1  C3  <0> d           0.625  -2.182   0.995  0.00  0.00     0.034 C 
ATOM      2  H5  <0> d          -0.398  -2.559   1.003  0.00  0.00     0.054 H 
ATOM      3  H6  <0> d           1.135  -2.534   0.099  0.00  0.00     0.054 H 
ENDROOT
BRANCH   1   4
ATOM      4  C2  <0> d           0.604  -0.675   1.004  0.00  0.00     0.221 C 
ATOM      5  N1  <0> d           0.002  -0.004   0.002  0.00  0.00    -0.365 N 
ATOM      6  H4  <0> d          -0.418  -0.491  -0.724  0.00  0.00     0.161 HD
ATOM      7  O1  <0> d           1.130  -0.067   1.911  0.00  0.00    -0.273 OA
BRANCH   5   8
ATOM      8  C1  <0> d          -0.018   1.461   0.010  0.00  0.00    -0.018 C 
ATOM      9  H1  <0> d           1.005   1.838   0.002  0.00  0.00     0.056 H 
ATOM     10  H2  <0> d          -0.545   1.822  -0.873  0.00  0.00     0.056 H 
ATOM     11  H3  <0> d          -0.528   1.812   0.907  0.00  0.00     0.056 H 
ENDBRANCH   5   8
ENDBRANCH   1   4
BRANCH   1  12
ATOM     12  C4  <0> d           1.354  -2.681   2.216  0.00  0.00    -0.032 A 
ATOM     13  C8  <0> d           0.666  -2.930   3.389  0.00  0.00     0.008 A 
ATOM     14  N2  <0> d           1.296  -3.373   4.459  0.00  0.00    -0.273 NA
ATOM     15  H10 <0> d          -0.401  -2.765   3.427  0.00  0.00     0.115 H 
ATOM     16  C7  <0> d           2.598  -3.584   4.460  0.00  0.00     0.002 A 
ATOM     17  C6  <0> d           3.352  -3.351   3.326  0.00  0.00    -0.066 A 
ATOM     18  H9  <0> d           3.080  -3.942   5.358  0.00  0.00     0.114 H 
ATOM     19  C5  <0> d           2.724  -2.891   2.179  0.00  0.00    -0.074 A 
ATOM     20  H8  <0> d           4.418  -3.526   3.333  0.00  0.00     0.085 H 
ATOM     21  H7  <0> d           3.288  -2.701   1.278  0.00  0.00     0.084 H 
ENDBRANCH   1  12
TORSDOF 3
