REMARK  2 active torsions:
REMARK  status: ('A' for Active; 'I' for Inactive)
REMARK    1  A    between atoms: C2_2  and  C4_8 
REMARK    2  A    between atoms: C3_3  and  N3_7 
ROOT
ATOM      1  C4  <0> d           1.190  -0.456  -0.364  0.00  0.00    -0.046 C 
ATOM      2  C5  <0> d           0.002  -0.004   0.002  0.00  0.00    -0.096 C 
ATOM      3  C6  <0> d          -0.018   1.507   0.010  0.00  0.00    -0.049 C 
ATOM      4  C7  <0> d           1.470   1.923  -0.002  0.00  0.00    -0.058 C 
ATOM      5  C8  <0> d           2.134   0.688  -0.654  0.00  0.00    -0.040 C 
ATOM      6  H5  <0> d          -0.803  -0.712   0.249  0.00  0.00     0.077 H 
ATOM      7  H6  <0> d          -0.550   1.871  -0.881  0.00  0.00     0.038 H 
ATOM      8  H7  <0> d          -0.533   1.862   0.915  0.00  0.00     0.038 H 
ATOM      9  H8  <0> d           1.589   2.842  -0.593  0.00  0.00     0.033 H 
ATOM     10  H9  <0> d           1.809   2.103   1.029  0.00  0.00     0.033 H 
ATOM     11  H10 <0> d           3.118   0.473  -0.211  0.00  0.00     0.040 H 
ATOM     12  H11 <0> d           2.240   0.809  -1.742  0.00  0.00     0.040 H 
ENDROOT
BRANCH   1  13
ATOM     13  C2  <0> d           1.546  -1.885  -0.476  0.00  0.00     0.034 A 
ATOM     14  C1  <0> d           1.696  -2.619  -1.671  0.00  0.00     0.036 A 
ATOM     15  N2  <0> d           2.013  -3.847  -1.359  0.00  0.00    -0.185 NA
ATOM     16  H2  <0> d           1.571  -2.232  -2.672  0.00  0.00     0.118 H 
ATOM     17  N1  <0> d           2.081  -3.961   0.034  0.00  0.00    -0.263 N 
ATOM     18  C3  <0> d           1.800  -2.755   0.574  0.00  0.00     0.127 A 
ATOM     19  H1  <0> d           2.310  -4.816   0.687  0.00  0.00     0.191 HD
BRANCH  18  20
ATOM     20  N3  <0> d           1.768  -2.445   1.925  0.00  0.00    -0.384 N 
ATOM     21  H3  <0> d           1.988  -3.221   2.673  0.00  0.00     0.157 HD
ATOM     22  H4  <0> d           1.523  -1.423   2.250  0.00  0.00     0.157 HD
ENDBRANCH  18  20
ENDBRANCH   1  13
TORSDOF 2
