REMARK  7 active torsions:
REMARK  status: ('A' for Active; 'I' for Inactive)
REMARK    1  A    between atoms: C1_1  and  C2_2 
REMARK    2  A    between atoms: C2_2  and  C3_3 
REMARK    3  A    between atoms: C2_2  and  C5_6 
REMARK    4  A    between atoms: C3_3  and  C4_4 
REMARK    5  A    between atoms: C4_4  and  O1_5 
REMARK    6  A    between atoms: C5_6  and  C6_7 
REMARK    7  A    between atoms: C6_7  and  O2_8 
ROOT
ATOM      1  C2  <0> d          -0.013   1.086   0.008  0.00  0.00    -0.054 C 
ATOM      2  H4  <0> d           0.002  -0.004   0.002  0.00  0.00     0.039 H 
ENDROOT
BRANCH   1   3
ATOM      3  C1  <0> d           1.423   1.615  -0.003  0.00  0.00    -0.073 C 
ATOM      4  H1  <0> d           1.950   1.254   0.880  0.00  0.00     0.028 H 
ATOM      5  H2  <0> d           1.933   1.264  -0.900  0.00  0.00     0.028 H 
ATOM      6  H3  <0> d           1.408   2.705   0.003  0.00  0.00     0.028 H 
ENDBRANCH   1   3
BRANCH   1   7
ATOM      7  C3  <0> d          -0.753   1.593  -1.232  0.00  0.00    -0.042 C 
ATOM      8  H5  <0> d          -1.798   1.290  -1.179  0.00  0.00     0.036 H 
ATOM      9  H6  <0> d          -0.691   2.680  -1.272  0.00  0.00     0.036 H 
BRANCH   7  10
ATOM     10  C4  <0> d          -0.111   0.998  -2.487  0.00  0.00     0.017 C 
ATOM     11  H7  <0> d           0.934   1.301  -2.539  0.00  0.00     0.073 H 
ATOM     12  H8  <0> d          -0.173  -0.089  -2.446  0.00  0.00     0.073 H 
BRANCH  10  13
ATOM     13  O1  <0> d          -0.803   1.472  -3.645  0.00  0.00    -0.401 OA
ATOM     14  H9  <0> d          -0.449   1.134  -4.479  0.00  0.00     0.209 HD
ENDBRANCH  10  13
ENDBRANCH   7  10
ENDBRANCH   1   7
BRANCH   1  15
ATOM     15  C5  <0> d          -0.729   1.579   1.267  0.00  0.00    -0.042 C 
ATOM     16  H10 <0> d          -0.666   2.666   1.318  0.00  0.00     0.036 H 
ATOM     17  H11 <0> d          -1.776   1.277   1.232  0.00  0.00     0.036 H 
BRANCH  15  18
ATOM     18  C6  <0> d          -0.064   0.971   2.503  0.00  0.00     0.017 C 
ATOM     19  H12 <0> d          -0.126  -0.116   2.452  0.00  0.00     0.073 H 
ATOM     20  H13 <0> d           0.983   1.274   2.539  0.00  0.00     0.073 H 
BRANCH  18  21
ATOM     21  O2  <0> d          -0.733   1.432   3.679  0.00  0.00    -0.401 OA
ATOM     22  H14 <0> d          -0.363   1.086   4.503  0.00  0.00     0.209 HD
ENDBRANCH  18  21
ENDBRANCH  15  18
ENDBRANCH   1  15
TORSDOF 7
