REMARK  8 active torsions:
REMARK  status: ('A' for Active; 'I' for Inactive)
REMARK    1  A    between atoms: C1_1  and  C2_2 
REMARK    2  A    between atoms: C2_2  and  C3_3 
REMARK    3  A    between atoms: C3_3  and  C4_4 
REMARK    4  A    between atoms: C4_4  and  C5_6 
REMARK    5  A    between atoms: C4_4  and  O2_11 
REMARK    6  A    between atoms: C5_6  and  C6_8 
REMARK    7  A    between atoms: C6_8  and  C7_9 
REMARK    8  A    between atoms: C7_9  and  C8_10 
ROOT
ATOM      1  C4  <0> d          -0.580   1.471  -3.833  0.00  0.00     0.092 C 
ATOM      2  H1  <0> d          -0.817   2.442  -3.850  0.00  0.00     0.095 H 
ENDROOT
BRANCH   1   3
ATOM      3  C3  <0> d          -1.827   0.637  -4.133  0.00  0.00    -0.035 C 
ATOM      4  H7  <0> d          -1.552  -0.415  -4.203  0.00  0.00     0.037 H 
ATOM      5  H8  <0> d          -2.554   0.770  -3.332  0.00  0.00     0.037 H 
BRANCH   3   6
ATOM      6  C2  <0> d          -2.440   1.093  -5.458  0.00  0.00    -0.066 C 
ATOM      7  H5  <0> d          -2.715   2.146  -5.388  0.00  0.00     0.032 H 
ATOM      8  H6  <0> d          -1.713   0.960  -6.260  0.00  0.00     0.032 H 
BRANCH   6   9
ATOM      9  C1  <0> d          -3.687   0.259  -5.758  0.00  0.00    -0.076 C 
ATOM     10  H2  <0> d          -3.412  -0.793  -5.828  0.00  0.00     0.027 H 
ATOM     11  H3  <0> d          -4.414   0.393  -4.957  0.00  0.00     0.027 H 
ATOM     12  H4  <0> d          -4.123   0.585  -6.702  0.00  0.00     0.027 H 
ENDBRANCH   6   9
ENDBRANCH   3   6
ENDBRANCH   1   3
BRANCH   1  13
ATOM     13  C5  <0> d          -0.047   1.107  -2.471  0.00  0.00     0.155 C 
ATOM     14  O1  <0> d           0.945   0.425  -2.374  0.00  0.00    -0.295 OA
BRANCH  13  15
ATOM     15  C6  <0> d          -0.753   1.593  -1.232  0.00  0.00    -0.007 C 
ATOM     16  H9  <0> d          -1.691   1.247  -1.224  0.00  0.00     0.044 H 
ATOM     17  H10 <0> d          -0.767   2.683  -1.226  0.00  0.00     0.044 H 
BRANCH  15  18
ATOM     18  C7  <0> d          -0.013   1.086   0.008  0.00  0.00    -0.062 C 
ATOM     19  H11 <0> d           0.002  -0.004   0.002  0.00  0.00     0.033 H 
ATOM     20  H12 <0> d           1.010   1.463   0.000  0.00  0.00     0.033 H 
BRANCH  18  21
ATOM     21  C8  <0> d          -0.729   1.579   1.267  0.00  0.00    -0.076 C 
ATOM     22  H13 <0> d          -0.744   2.669   1.273  0.00  0.00     0.027 H 
ATOM     23  H14 <0> d          -1.751   1.202   1.275  0.00  0.00     0.027 H 
ATOM     24  H15 <0> d          -0.202   1.218   2.150  0.00  0.00     0.027 H 
ENDBRANCH  18  21
ENDBRANCH  15  18
ENDBRANCH  13  15
ENDBRANCH   1  13
BRANCH   1  25
ATOM     25  O2  <0> d           0.418   1.207  -4.821  0.00  0.00    -0.388 OA
ATOM     26  H16 <0> d           0.696   0.282  -4.862  0.00  0.00     0.210 HD
ENDBRANCH   1  25
TORSDOF 8
