REMARK  0 active torsions:
REMARK  status: ('A' for Active; 'I' for Inactive)
ROOT
ATOM      1  C1  <0> d          -0.841   3.133   1.144  0.00  0.00    -0.064 C 
ATOM      2  C2  <0> d           0.552   3.754   1.057  0.00  0.00    -0.060 C 
ATOM      3  C3  <0> d           1.337   3.168  -0.107  0.00  0.00    -0.038 C 
ATOM      4  H1  <0> d           2.352   3.564  -0.053  0.00  0.00     0.042 H 
ATOM      5  C4  <0> d           1.416   1.645  -0.003  0.00  0.00    -0.049 C 
ATOM      6  C5  <0> d          -0.013   1.086   0.008  0.00  0.00     0.024 C 
ATOM      7  H2  <0> d           0.002  -0.004   0.002  0.00  0.00     0.054 H 
ATOM      8  C6  <0> d          -0.717   1.611   1.271  0.00  0.00    -0.054 C 
ATOM      9  C7  <0> d          -0.752   1.613  -1.195  0.00  0.00     0.221 C 
ATOM     10  O1  <0> d          -1.681   0.970  -1.635  0.00  0.00    -0.273 OA
ATOM     11  N1  <0> d          -0.424   2.769  -1.785  0.00  0.00    -0.360 N 
ATOM     12  C8  <0> d           0.743   3.570  -1.449  0.00  0.00    -0.002 C 
ATOM     13  H3  <0> d          -1.361   3.529   2.016  0.00  0.00     0.033 H 
ATOM     14  H4  <0> d          -1.405   3.377   0.243  0.00  0.00     0.033 H 
ATOM     15  H5  <0> d           1.089   3.559   1.985  0.00  0.00     0.033 H 
ATOM     16  H6  <0> d           0.456   4.830   0.918  0.00  0.00     0.033 H 
ATOM     17  H7  <0> d           1.926   1.366   0.919  0.00  0.00     0.034 H 
ATOM     18  H8  <0> d           1.960   1.246  -0.859  0.00  0.00     0.034 H 
ATOM     19  H9  <0> d          -1.704   1.157   1.358  0.00  0.00     0.034 H 
ATOM     20  H10 <0> d          -0.121   1.371   2.152  0.00  0.00     0.034 H 
ATOM     21  H11 <0> d          -1.002   3.090  -2.495  0.00  0.00     0.162 HD
ATOM     22  H12 <0> d           0.453   4.620  -1.409  0.00  0.00     0.064 H 
ATOM     23  H13 <0> d           1.498   3.441  -2.225  0.00  0.00     0.064 H 
ENDROOT
TORSDOF 0
