REMARK  3 active torsions:
REMARK  status: ('A' for Active; 'I' for Inactive)
REMARK    1  A    between atoms: C1_1  and  C2_2 
REMARK    2  A    between atoms: C4_7  and  C5_8 
REMARK    3  A    between atoms: C5_8  and  C6_9 
ROOT
ATOM      1  C2  <0> d          -0.514   1.623   1.341  0.00  0.00     0.071 C 
ATOM      2  N1  <0> d           0.466   2.290   1.819  0.00  0.00    -0.129 NA
ATOM      3  O1  <0> d           1.114   0.365   1.820  0.00  0.00    -0.170 OA
ATOM      4  C3  <0> d           1.139   0.209   0.483  0.00  0.00     0.315 C 
ATOM      5  O2  <0> d           1.894  -0.463  -0.179  0.00  0.00    -0.257 OA
ATOM      6  C4  <0> d          -0.013   1.086   0.008  0.00  0.00     0.055 C 
ENDROOT
BRANCH   6   7
ATOM      7  C5  <0> d          -0.840   1.632  -1.157  0.00  0.00     0.047 C 
ATOM      8  H4  <0> d          -0.754   2.728  -1.187  0.00  0.00     0.056 H 
ATOM      9  H5  <0> d          -1.895   1.350  -1.022  0.00  0.00     0.056 H 
BRANCH   7  10
ATOM     10  C6  <0> d          -0.328   1.053  -2.451  0.00  0.00     0.177 C 
ATOM     11  O3  <0> d           0.603   0.283  -2.442  0.00  0.00    -0.648 OA
ATOM     12  O4  <0> d          -0.907   1.393  -3.614  0.00  0.00    -0.648 OA
ENDBRANCH   7  10
ENDBRANCH   6   7
BRANCH   1  13
ATOM     13  C1  <0> d          -1.871   1.415   1.962  0.00  0.00    -0.033 C 
ATOM     14  H1  <0> d          -2.487   0.792   1.296  0.00  0.00     0.035 H 
ATOM     15  H2  <0> d          -2.360   2.389   2.110  0.00  0.00     0.035 H 
ATOM     16  H3  <0> d          -1.756   0.911   2.933  0.00  0.00     0.035 H 
ENDBRANCH   1  13
TORSDOF 3
