REMARK  5 active torsions:
REMARK  status: ('A' for Active; 'I' for Inactive)
REMARK    1  A    between atoms: C1_1  and  C2_2 
REMARK    2  A    between atoms: C2_2  and  O1_3 
REMARK    3  A    between atoms: O1_3  and  C3_4 
REMARK    4  A    between atoms: C3_4  and  C4_6 
REMARK    5  A    between atoms: C5_7  and  C8_11 
ROOT
ATOM      1  C4  <0> d           1.449  -2.344  -2.517  0.00  0.00     0.155 A 
ATOM      2  C5  <0> d           1.619  -3.669  -2.805  0.00  0.00    -0.020 A 
ATOM      3  C6  <0> d           2.311  -3.731  -4.024  0.00  0.00    -0.053 A 
ATOM      4  C7  <0> d           2.529  -2.458  -4.423  0.00  0.00     0.020 A 
ATOM      5  O3  <0> d           2.005  -1.626  -3.514  0.00  0.00    -0.316 OA
ATOM      6  H6  <0> d           2.611  -4.627  -4.546  0.00  0.00     0.087 H 
ATOM      7  H7  <0> d           3.040  -2.161  -5.327  0.00  0.00     0.123 H 
ENDROOT
BRANCH   1   8
ATOM      8  C3  <0> d           0.776  -1.800  -1.335  0.00  0.00     0.317 C 
ATOM      9  O2  <0> d           0.312  -2.552  -0.499  0.00  0.00    -0.257 OA
BRANCH   8  10
ATOM     10  O1  <0> d           0.671  -0.465  -1.174  0.00  0.00    -0.316 OA
BRANCH  10  11
ATOM     11  C2  <0> d           0.002  -0.004   0.002  0.00  0.00     0.026 C 
ATOM     12  H4  <0> d           0.529  -0.365   0.885  0.00  0.00     0.074 H 
ATOM     13  H5  <0> d          -1.020  -0.381   0.010  0.00  0.00     0.074 H 
BRANCH  11  14
ATOM     14  C1  <0> d          -0.019   1.526   0.010  0.00  0.00    -0.056 C 
ATOM     15  H1  <0> d           1.004   1.903   0.003  0.00  0.00     0.030 H 
ATOM     16  H2  <0> d          -0.546   1.887  -0.873  0.00  0.00     0.030 H 
ATOM     17  H3  <0> d          -0.529   1.877   0.907  0.00  0.00     0.030 H 
ENDBRANCH  11  14
ENDBRANCH  10  11
ENDBRANCH   8  10
ENDBRANCH   1   8
BRANCH   2  18
ATOM     18  C8  <0> d           1.155  -4.837  -1.974  0.00  0.00    -0.048 C 
ATOM     19  H8  <0> d           0.149  -5.124  -2.280  0.00  0.00     0.033 H 
ATOM     20  H9  <0> d           1.832  -5.679  -2.119  0.00  0.00     0.033 H 
ATOM     21  H10 <0> d           1.148  -4.555  -0.921  0.00  0.00     0.033 H 
ENDBRANCH   2  18
TORSDOF 5
