REMARK  1 active torsions:
REMARK  status: ('A' for Active; 'I' for Inactive)
REMARK    1  A    between atoms: C2_2  and  C3_3 
ROOT
ATOM      1  C1  <0> d           0.018  -1.178  -0.004  0.00  0.00    -0.149 C 
ATOM      2  C2  <0> d           0.002  -0.004   0.002  0.00  0.00    -0.076 C 
ATOM      3  H1  <0> d           0.032  -2.228  -0.010  0.00  0.00     0.166 H 
ENDROOT
BRANCH   2   4
ATOM      4  C3  <0> d          -0.017   1.428   0.010  0.00  0.00     0.040 A 
ATOM      5  C8  <0> d           1.191   2.153   0.002  0.00  0.00     0.063 A 
ATOM      6  C7  <0> d           1.157   3.549   0.005  0.00  0.00    -0.059 A 
ATOM      7  C9  <0> d           2.445   1.463  -0.014  0.00  0.00     0.101 C 
ATOM      8  C6  <0> d          -0.053   4.209   0.026  0.00  0.00    -0.044 A 
ATOM      9  H4  <0> d           2.078   4.112  -0.006  0.00  0.00     0.086 H 
ATOM     10  C5  <0> d          -1.244   3.495   0.039  0.00  0.00     0.117 A 
ATOM     11  H3  <0> d          -0.075   5.289   0.031  0.00  0.00     0.088 H 
ATOM     12  C4  <0> d          -1.231   2.112   0.031  0.00  0.00    -0.026 A 
ATOM     13  F1  <0> d          -2.422   4.155   0.059  0.00  0.00    -0.206 F 
ATOM     14  H2  <0> d          -2.161   1.563   0.041  0.00  0.00     0.090 H 
ATOM     15  N1  <0> d           3.441   0.916  -0.027  0.00  0.00    -0.191 NA
ENDBRANCH   2   4
TORSDOF 1
