REMARK  4 active torsions:
REMARK  status: ('A' for Active; 'I' for Inactive)
REMARK    1  A    between atoms: C1_1  and  C2_2 
REMARK    2  A    between atoms: C1_1  and  C4_8 
REMARK    3  A    between atoms: C2_2  and  C3_4 
REMARK    4  A    between atoms: C2_2  and  O3_7 
ROOT
ATOM      1  C2  <0> d           0.002  -0.004   0.002  0.00  0.00     0.128 C 
ATOM      2  H1  <0> d           0.604  -0.364   0.836  0.00  0.00     0.100 H 
ENDROOT
BRANCH   1   3
ATOM      3  C1  <0> d          -0.019   1.526   0.010  0.00  0.00     0.049 C 
ATOM      4  H2  <0> d          -0.546   1.887  -0.873  0.00  0.00     0.053 H 
ATOM      5  H3  <0> d          -0.529   1.877   0.907  0.00  0.00     0.053 H 
BRANCH   3   6
ATOM      6  C4  <0> d           1.395   2.047  -0.000  0.00  0.00     0.175 C 
ATOM      7  O4  <0> d           2.333   1.268  -0.013  0.00  0.00    -0.648 OA
ATOM      8  O5  <0> d           1.602   3.249   0.004  0.00  0.00    -0.648 OA
ENDBRANCH   3   6
ENDBRANCH   1   3
BRANCH   1   9
ATOM      9  C3  <0> d          -1.405  -0.526   0.137  0.00  0.00     0.203 C 
ATOM     10  O1  <0> d          -1.913  -1.152  -0.778  0.00  0.00    -0.646 OA
ATOM     11  O2  <0> d          -2.036  -0.323   1.160  0.00  0.00    -0.646 OA
ENDBRANCH   1   9
BRANCH   1  12
ATOM     12  O3  <0> d           0.566  -0.466  -1.227  0.00  0.00    -0.384 OA
ATOM     13  H4  <0> d           0.080  -0.183  -2.014  0.00  0.00     0.210 HD
ENDBRANCH   1  12
TORSDOF 4
