REMARK  0 active torsions:
REMARK  status: ('A' for Active; 'I' for Inactive)
ROOT
ATOM      1  C1  <0> d          -0.013   1.076   0.008  0.00  0.00    -0.064 A 
ATOM      2  C2  <0> d           1.173   1.794   0.001  0.00  0.00    -0.059 A 
ATOM      3  C3  <0> d           1.106   3.180   0.008  0.00  0.00     0.051 A 
ATOM      4  C4  <0> d          -0.133   3.794   0.023  0.00  0.00     0.023 A 
ATOM      5  N1  <0> d          -1.240   3.078   0.029  0.00  0.00    -0.271 NA
ATOM      6  C5  <0> d          -1.214   1.759   0.017  0.00  0.00     0.002 A 
ATOM      7 Cl1  <0> d           2.559   4.130  -0.000  0.00  0.00    -0.083 Cl
ATOM      8  H1  <0> d           0.002  -0.004   0.002  0.00  0.00     0.085 H 
ATOM      9  H2  <0> d           2.127   1.287  -0.011  0.00  0.00     0.086 H 
ATOM     10  H3  <0> d          -0.195   4.872   0.029  0.00  0.00     0.117 H 
ATOM     11  H4  <0> d          -2.142   1.207   0.019  0.00  0.00     0.114 H 
ENDROOT
TORSDOF 0
