REMARK  1 active torsions:
REMARK  status: ('A' for Active; 'I' for Inactive)
REMARK    1  A    between atoms: C3_4  and  C4_6 
ROOT
ATOM      1  C1  <0> d           1.387   1.728  -0.002  0.00  0.00    -0.011 C 
ATOM      2  C2  <0> d           1.282   1.711   1.535  0.00  0.00     0.024 C 
ATOM      3  O1  <0> d          -0.143   1.660   1.324  0.00  0.00    -0.375 OA
ATOM      4  C3  <0> d          -0.013   1.086   0.008  0.00  0.00     0.123 C 
ATOM      5  H1  <0> d           0.002  -0.004   0.002  0.00  0.00     0.100 H 
ATOM      6  H2  <0> d           2.167   1.077  -0.397  0.00  0.00     0.040 H 
ATOM      7  H3  <0> d           1.409   2.730  -0.431  0.00  0.00     0.040 H 
ATOM      8  H4  <0> d           1.693   0.812   1.995  0.00  0.00     0.074 H 
ATOM      9  H5  <0> d           1.627   2.629   2.010  0.00  0.00     0.074 H 
ENDROOT
BRANCH   4  10
ATOM     10  C4  <0> d          -0.958   1.668  -1.011  0.00  0.00     0.203 C 
ATOM     11  O2  <0> d          -1.921   2.302  -0.649  0.00  0.00    -0.646 OA
ATOM     12  O3  <0> d          -0.730   1.484  -2.321  0.00  0.00    -0.646 OA
ENDBRANCH   4  10
TORSDOF 1
