REMARK  0 active torsions:
REMARK  status: ('A' for Active; 'I' for Inactive)
ROOT
ATOM      1  C1  <0> d          -1.558   4.317   0.040  0.00  0.00    -0.032 A 
ATOM      2  C2  <0> d          -0.892   5.524   0.040  0.00  0.00     0.006 A 
ATOM      3  N1  <0> d           0.429   5.584   0.028  0.00  0.00    -0.248 NA
ATOM      4  C3  <0> d           1.180   4.500   0.015  0.00  0.00     0.138 A 
ATOM      5  C4  <0> d           0.586   3.240   0.014  0.00  0.00     0.040 A 
ATOM      6  C5  <0> d          -0.818   3.139   0.027  0.00  0.00     0.089 A 
ATOM      7  O1  <0> d          -1.126   1.831   0.017  0.00  0.00    -0.322 OA
ATOM      8  C6  <0> d          -0.013   1.076   0.008  0.00  0.00     0.020 A 
ATOM      9  C7  <0> d           1.076   1.858   0.002  0.00  0.00    -0.046 A 
ATOM     10 Cl1  <0> d           2.910   4.643  -0.000  0.00  0.00    -0.061 Cl
ATOM     11  H1  <0> d          -2.638   4.287   0.051  0.00  0.00     0.090 H 
ATOM     12  H2  <0> d          -1.462   6.441   0.051  0.00  0.00     0.114 H 
ATOM     13  H3  <0> d           0.002  -0.004   0.002  0.00  0.00     0.123 H 
ATOM     14  H4  <0> d           2.107   1.535  -0.010  0.00  0.00     0.087 H 
ENDROOT
TORSDOF 0
