REMARK  3 active torsions:
REMARK  status: ('A' for Active; 'I' for Inactive)
REMARK    1  A    between atoms: C1_1  and  N1_2 
REMARK       I    between atoms: N1_2  and  C2_3 
REMARK    2  A    between atoms: C2_3  and  C3_5 
REMARK    3  A    between atoms: C7_9  and  N3_11 
ROOT
ATOM      1  C3  <0> d           0.625  -2.157   0.995  0.00  0.00     0.126 A 
ATOM      2  C4  <0> d           1.243  -2.843   2.036  0.00  0.00    -0.050 A 
ATOM      3  C5  <0> d           1.256  -4.231   2.018  0.00  0.00    -0.077 A 
ATOM      4  C6  <0> d           0.650  -4.885   0.962  0.00  0.00    -0.039 A 
ATOM      5  C7  <0> d           0.048  -4.137  -0.049  0.00  0.00     0.122 A 
ATOM      6  N2  <0> d           0.047  -2.817  -0.002  0.00  0.00    -0.226 NA
ATOM      7  H5  <0> d           1.708  -2.302   2.847  0.00  0.00     0.087 H 
ATOM      8  H6  <0> d           1.730  -4.788   2.813  0.00  0.00     0.083 H 
ATOM      9  H7  <0> d           0.644  -5.964   0.919  0.00  0.00     0.089 H 
ENDROOT
BRANCH   1  10
ATOM     10  C2  <0> d           0.604  -0.675   1.004  0.00  0.00     0.269 C 
ATOM     11  N1  <0> d           0.002  -0.004   0.002  0.00  0.00    -0.360 N 
ATOM     12  H4  <0> d          -0.418  -0.491  -0.724  0.00  0.00     0.162 HD
ATOM     13  O1  <0> d           1.131  -0.066   1.913  0.00  0.00    -0.266 OA
BRANCH  11  14
ATOM     14  C1  <0> d          -0.018   1.461   0.010  0.00  0.00    -0.018 C 
ATOM     15  H1  <0> d           1.005   1.838   0.002  0.00  0.00     0.056 H 
ATOM     16  H2  <0> d          -0.545   1.822  -0.873  0.00  0.00     0.056 H 
ATOM     17  H3  <0> d          -0.528   1.812   0.907  0.00  0.00     0.056 H 
ENDBRANCH  11  14
ENDBRANCH   1  10
BRANCH   5  18
ATOM     18  N3  <0> d          -0.563  -4.787  -1.115  0.00  0.00    -0.384 N 
ATOM     19  H8  <0> d          -0.569  -5.756  -1.152  0.00  0.00     0.157 HD
ATOM     20  H9  <0> d          -0.984  -4.272  -1.821  0.00  0.00     0.157 HD
ENDBRANCH   5  18
TORSDOF 3
