REMARK  8 active torsions:
REMARK  status: ('A' for Active; 'I' for Inactive)
REMARK    1  A    between atoms: C1_1  and  C2_2 
REMARK    2  A    between atoms: C2_2  and  C3_4 
REMARK    3  A    between atoms: C2_2  and  O2_10 
REMARK    4  A    between atoms: C3_4  and  C4_5 
REMARK    5  A    between atoms: C4_5  and  C5_6 
REMARK    6  A    between atoms: C4_5  and  C6_7 
REMARK    7  A    between atoms: C4_5  and  O1_8 
REMARK    8  A    between atoms: O1_8  and  C7_9 
ROOT
ATOM      1  C4  <0> d          -0.753   1.593  -1.232  0.00  0.00     0.055 C 
ENDROOT
BRANCH   1   2
ATOM      2  C3  <0> d          -0.013   1.086   0.008  0.00  0.00    -0.013 C 
ATOM      3  H5  <0> d           0.002  -0.004   0.002  0.00  0.00     0.041 H 
ATOM      4  H6  <0> d           1.010   1.463   0.000  0.00  0.00     0.041 H 
BRANCH   2   5
ATOM      5  C2  <0> d          -0.729   1.579   1.267  0.00  0.00     0.035 C 
ATOM      6  H1  <0> d          -1.776   1.277   1.232  0.00  0.00     0.082 H 
BRANCH   5   7
ATOM      7  C1  <0> d          -0.064   0.971   2.503  0.00  0.00    -0.052 C 
ATOM      8  H2  <0> d          -0.574   1.323   3.400  0.00  0.00     0.030 H 
ATOM      9  H3  <0> d          -0.126  -0.116   2.452  0.00  0.00     0.030 H 
ATOM     10  H4  <0> d           0.983   1.274   2.539  0.00  0.00     0.030 H 
ENDBRANCH   5   7
BRANCH   5  11
ATOM     11  O2  <0> d          -0.647   3.004   1.334  0.00  0.00    -0.396 OA
ATOM     12  H16 <0> d          -1.081   3.387   2.109  0.00  0.00     0.210 HD
ENDBRANCH   5  11
ENDBRANCH   2   5
ENDBRANCH   1   2
BRANCH   1  13
ATOM     13  C5  <0> d          -0.111   0.998  -2.487  0.00  0.00    -0.048 C 
ATOM     14  H7  <0> d          -0.173  -0.089  -2.446  0.00  0.00     0.031 H 
ATOM     15  H8  <0> d          -0.639   1.359  -3.370  0.00  0.00     0.031 H 
ATOM     16  H9  <0> d           0.934   1.301  -2.539  0.00  0.00     0.031 H 
ENDBRANCH   1  13
BRANCH   1  17
ATOM     17  C6  <0> d          -2.221   1.167  -1.159  0.00  0.00    -0.048 C 
ATOM     18  H10 <0> d          -2.678   1.591  -0.264  0.00  0.00     0.031 H 
ATOM     19  H11 <0> d          -2.748   1.529  -2.042  0.00  0.00     0.031 H 
ATOM     20  H12 <0> d          -2.282   0.080  -1.118  0.00  0.00     0.031 H 
ENDBRANCH   1  17
BRANCH   1  21
ATOM     21  O1  <0> d          -0.672   3.018  -1.285  0.00  0.00    -0.386 OA
BRANCH  21  22
ATOM     22  C7  <0> d          -1.335   3.596  -2.411  0.00  0.00     0.005 C 
ATOM     23  H13 <0> d          -1.227   4.681  -2.379  0.00  0.00     0.066 H 
ATOM     24  H14 <0> d          -0.890   3.215  -3.330  0.00  0.00     0.066 H 
ATOM     25  H15 <0> d          -2.393   3.335  -2.384  0.00  0.00     0.066 H 
ENDBRANCH  21  22
ENDBRANCH   1  21
TORSDOF 8
