REMARK  2 active torsions:
REMARK  status: ('A' for Active; 'I' for Inactive)
REMARK    1  A    between atoms: C1_1  and  C2_2 
REMARK    2  A    between atoms: C3_3  and  C4_4 
ROOT
ATOM      1  C2  <0> d           0.002  -0.004   0.002  0.00  0.00    -0.102 C 
ATOM      2  C3  <0> d          -1.123  -0.674   0.009  0.00  0.00    -0.006 C 
ATOM      3  H4  <0> d           0.945  -0.531  -0.010  0.00  0.00     0.076 H 
ATOM      4  H5  <0> d          -2.066  -0.147   0.021  0.00  0.00     0.090 H 
ENDROOT
BRANCH   1   5
ATOM      5  C1  <0> d          -0.018   1.503   0.010  0.00  0.00    -0.060 C 
ATOM      6  H1  <0> d           1.004   1.880   0.003  0.00  0.00     0.032 H 
ATOM      7  H2  <0> d          -0.545   1.864  -0.873  0.00  0.00     0.032 H 
ATOM      8  H3  <0> d          -0.529   1.854   0.907  0.00  0.00     0.032 H 
ENDBRANCH   1   5
BRANCH   2   9
ATOM      9  C4  <0> d          -1.103  -2.181   0.001  0.00  0.00     0.407 C 
ATOM     10  F1  <0> d           0.222  -2.630  -0.014  0.00  0.00    -0.167 F 
ATOM     11  F2  <0> d          -1.745  -2.663   1.147  0.00  0.00    -0.167 F 
ATOM     12  F3  <0> d          -1.767  -2.650  -1.138  0.00  0.00    -0.167 F 
ENDBRANCH   2   9
TORSDOF 2
