REMARK  4 active torsions:
REMARK  status: ('A' for Active; 'I' for Inactive)
REMARK    1  A    between atoms: C1_1  and  C2_2 
REMARK    2  A    between atoms: C6_6  and  C8_8 
REMARK    3  A    between atoms: C8_8  and  C9_10 
REMARK    4  A    between atoms: C8_8  and  O1_11 
ROOT
ATOM      1  C2  <0> d          -0.050   3.840   0.022  0.00  0.00    -0.061 A 
ATOM      2  C3  <0> d          -1.238   3.133   0.029  0.00  0.00    -0.077 A 
ATOM      3  C4  <0> d          -1.219   1.751   0.017  0.00  0.00    -0.082 A 
ATOM      4  C5  <0> d          -0.013   1.076   0.008  0.00  0.00    -0.074 A 
ATOM      5  C6  <0> d           1.175   1.783   0.000  0.00  0.00    -0.029 A 
ATOM      6  C7  <0> d           1.156   3.166   0.008  0.00  0.00    -0.069 A 
ATOM      7  H5  <0> d          -2.180   3.660   0.040  0.00  0.00     0.084 H 
ATOM      8  H6  <0> d          -2.147   1.198   0.019  0.00  0.00     0.083 H 
ATOM      9  H7  <0> d           0.002  -0.004   0.002  0.00  0.00     0.084 H 
ATOM     10  H8  <0> d           2.084   3.718   0.003  0.00  0.00     0.085 H 
ENDROOT
BRANCH   5  11
ATOM     11  C8  <0> d           2.490   1.047  -0.016  0.00  0.00     0.057 C 
ATOM     12  H1  <0> d           3.275   1.715  -0.371  0.00  0.00     0.089 H 
BRANCH  11  13
ATOM     13  C9  <0> d           2.826   0.573   1.399  0.00  0.00    -0.049 C 
ATOM     14  H9  <0> d           3.777   0.041   1.388  0.00  0.00     0.031 H 
ATOM     15  H10 <0> d           2.900   1.434   2.064  0.00  0.00     0.031 H 
ATOM     16  H11 <0> d           2.041  -0.095   1.755  0.00  0.00     0.031 H 
ENDBRANCH  11  13
BRANCH  11  17
ATOM     17  O1  <0> d           2.394  -0.081  -0.886  0.00  0.00    -0.391 OA
ATOM     18  H12 <0> d           3.206  -0.603  -0.946  0.00  0.00     0.210 HD
ENDBRANCH  11  17
ENDBRANCH   5  11
BRANCH   1  19
ATOM     19  C1  <0> d          -0.070   5.347   0.030  0.00  0.00    -0.051 C 
ATOM     20  H2  <0> d          -0.085   5.716  -0.996  0.00  0.00     0.033 H 
ATOM     21  H3  <0> d          -0.961   5.696   0.554  0.00  0.00     0.033 H 
ATOM     22  H4  <0> d           0.819   5.720   0.538  0.00  0.00     0.033 H 
ENDBRANCH   1  19
TORSDOF 4
