REMARK  6 active torsions:
REMARK  status: ('A' for Active; 'I' for Inactive)
REMARK    1  A    between atoms: C1_1  and  C2_2 
REMARK    2  A    between atoms: C2_2  and  C3_3 
REMARK    3  A    between atoms: C3_3  and  C4_5 
REMARK    4  A    between atoms: C3_3  and  O1_8 
REMARK    5  A    between atoms: O1_8  and  C6_9 
REMARK    6  A    between atoms: C6_9  and  C7_10 
ROOT
ATOM      1  C4  <0> d          -0.405   2.009   3.466  0.00  0.00     0.039 C 
ATOM      2  C5  <0> d           0.219   3.315   3.200  0.00  0.00     0.061 C 
ATOM      3  N1  <0> d           0.701   4.324   2.995  0.00  0.00    -0.197 NA
ATOM      4  H7  <0> d          -1.487   2.127   3.518  0.00  0.00     0.058 H 
ATOM      5  H8  <0> d          -0.035   1.615   4.413  0.00  0.00     0.058 H 
ENDROOT
BRANCH   1   6
ATOM      6  C3  <0> d          -0.052   1.037   2.338  0.00  0.00     0.049 C 
ATOM      7  H1  <0> d           1.031   0.987   2.227  0.00  0.00     0.084 H 
BRANCH   6   8
ATOM      8  C2  <0> d          -0.595  -0.354   2.674  0.00  0.00    -0.043 C 
ATOM      9  H5  <0> d          -0.224  -0.662   3.652  0.00  0.00     0.036 H 
ATOM     10  H6  <0> d          -1.684  -0.324   2.693  0.00  0.00     0.036 H 
BRANCH   8  11
ATOM     11  C1  <0> d          -0.130  -1.353   1.613  0.00  0.00    -0.074 C 
ATOM     12  H2  <0> d          -0.455  -2.356   1.892  0.00  0.00     0.027 H 
ATOM     13  H3  <0> d          -0.562  -1.087   0.649  0.00  0.00     0.027 H 
ATOM     14  H4  <0> d           0.957  -1.330   1.544  0.00  0.00     0.027 H 
ENDBRANCH   8  11
ENDBRANCH   6   8
BRANCH   6  15
ATOM     15  O1  <0> d          -0.636   1.493   1.116  0.00  0.00    -0.385 OA
BRANCH  15  16
ATOM     16  C6  <0> d           0.318   1.887   0.128  0.00  0.00     0.017 C 
ATOM     17  H9  <0> d           0.895   1.018  -0.188  0.00  0.00     0.073 H 
ATOM     18  H10 <0> d           0.990   2.635   0.549  0.00  0.00     0.073 H 
BRANCH  16  19
ATOM     19  C7  <0> d          -0.412   2.481  -1.079  0.00  0.00    -0.056 C 
ATOM     20  H11 <0> d           0.315   2.782  -1.832  0.00  0.00     0.030 H 
ATOM     21  H12 <0> d          -1.084   1.733  -1.500  0.00  0.00     0.030 H 
ATOM     22  H13 <0> d          -0.989   3.350  -0.763  0.00  0.00     0.030 H 
ENDBRANCH  16  19
ENDBRANCH  15  16
ENDBRANCH   6  15
ENDBRANCH   1   6
TORSDOF 6
