REMARK  4 active torsions:
REMARK  status: ('A' for Active; 'I' for Inactive)
REMARK    1  A    between atoms: C1_1  and  C2_2 
REMARK    2  A    between atoms: C5_6  and  C9_12 
REMARK    3  A    between atoms: C6_8  and  C8_11 
REMARK    4  A    between atoms: C9_12  and  O1_13 
ROOT
ATOM      1  C2  <0> d           0.002  -0.004   0.002  0.00  0.00    -0.057 C 
ATOM      2  H1  <0> d           0.529  -0.365   0.885  0.00  0.00     0.039 H 
ATOM      3  C3  <0> d          -0.019   1.526   0.010  0.00  0.00    -0.062 C 
ATOM      4  C4  <0> d           1.417   2.055  -0.000  0.00  0.00    -0.059 C 
ATOM      5  C5  <0> d           2.133   1.562  -1.259  0.00  0.00    -0.030 C 
ATOM      6  H2  <0> d           1.606   1.923  -2.142  0.00  0.00     0.043 H 
ATOM      7  C6  <0> d           2.154   0.032  -1.268  0.00  0.00    -0.052 C 
ATOM      8  H3  <0> d           2.664  -0.319  -2.164  0.00  0.00     0.040 H 
ATOM      9  C7  <0> d           0.718  -0.497  -1.257  0.00  0.00    -0.059 C 
ATOM     10  H7  <0> d          -0.546   1.887  -0.873  0.00  0.00     0.033 H 
ATOM     11  H8  <0> d          -0.529   1.877   0.907  0.00  0.00     0.033 H 
ATOM     12  H9  <0> d           1.402   3.145   0.006  0.00  0.00     0.033 H 
ATOM     13  H10 <0> d           1.944   1.694   0.883  0.00  0.00     0.033 H 
ATOM     14  H11 <0> d           0.733  -1.587  -1.263  0.00  0.00     0.034 H 
ATOM     15  H12 <0> d           0.191  -0.136  -2.140  0.00  0.00     0.034 H 
ENDROOT
BRANCH   5  16
ATOM     16  C9  <0> d           3.568   2.091  -1.270  0.00  0.00     0.020 C 
ATOM     17  H16 <0> d           4.068   1.805  -0.345  0.00  0.00     0.074 H 
ATOM     18  H17 <0> d           4.105   1.669  -2.119  0.00  0.00     0.074 H 
BRANCH  16  19
ATOM     19  O1  <0> d           3.550   3.516  -1.380  0.00  0.00    -0.400 OA
ATOM     20  H18 <0> d           4.428   3.921  -1.393  0.00  0.00     0.209 HD
ENDBRANCH  16  19
ENDBRANCH   5  16
BRANCH   7  21
ATOM     21  C8  <0> d           2.894  -0.475  -0.028  0.00  0.00    -0.072 C 
ATOM     22  H13 <0> d           2.908  -1.565  -0.034  0.00  0.00     0.028 H 
ATOM     23  H14 <0> d           3.916  -0.098  -0.036  0.00  0.00     0.028 H 
ATOM     24  H15 <0> d           2.383  -0.123   0.869  0.00  0.00     0.028 H 
ENDBRANCH   7  21
BRANCH   1  25
ATOM     25  C1  <0> d          -1.433  -0.534   0.013  0.00  0.00    -0.073 C 
ATOM     26  H4  <0> d          -1.960  -0.173  -0.870  0.00  0.00     0.028 H 
ATOM     27  H5  <0> d          -1.419  -1.623   0.007  0.00  0.00     0.028 H 
ATOM     28  H6  <0> d          -1.944  -0.182   0.910  0.00  0.00     0.028 H 
ENDBRANCH   1  25
TORSDOF 4
