REMARK  0 active torsions:
REMARK  status: ('A' for Active; 'I' for Inactive)
ROOT
ATOM      1  C1  <0> d           2.347  -0.043  -0.029  0.00  0.00    -0.065 A 
ATOM      2  C2  <0> d           2.371   1.342  -0.019  0.00  0.00    -0.072 A 
ATOM      3  C3  <0> d           1.165   2.031   0.002  0.00  0.00    -0.006 A 
ATOM      4  C4  <0> d          -0.016   1.320   0.009  0.00  0.00     0.043 A 
ATOM      5  N1  <0> d           0.002  -0.004   0.002  0.00  0.00    -0.265 NA
ATOM      6  C5  <0> d           1.126  -0.690  -0.017  0.00  0.00     0.003 A 
ATOM      7  C6  <0> d          -1.353   2.018   0.019  0.00  0.00     0.001 C 
ATOM      8  C7  <0> d          -1.178   3.475   0.447  0.00  0.00     0.117 C 
ATOM      9  N2  <0> d          -0.112   4.078  -0.368  0.00  0.00     0.087 N 
ATOM     10  C8  <0> d           1.193   3.535   0.021  0.00  0.00     0.137 C 
ATOM     11  H1  <0> d           3.267  -0.608  -0.045  0.00  0.00     0.085 H 
ATOM     12  H2  <0> d           3.310   1.876  -0.028  0.00  0.00     0.084 H 
ATOM     13  H3  <0> d           1.093  -1.769  -0.022  0.00  0.00     0.114 H 
ATOM     14  H4  <0> d          -1.791   1.986  -0.989  0.00  0.00     0.044 H 
ATOM     15  H5  <0> d          -2.026   1.510   0.727  0.00  0.00     0.044 H 
ATOM     16  H6  <0> d          -2.122   4.018   0.292  0.00  0.00     0.080 H 
ATOM     17  H7  <0> d          -0.903   3.514   1.512  0.00  0.00     0.080 H 
ATOM     18  H8  <0> d          -0.292   3.855  -1.430  0.00  0.00     0.316 HD
ATOM     19  H9  <0> d           1.437   3.884   1.036  0.00  0.00     0.087 H 
ATOM     20  H10 <0> d           1.956   3.897  -0.684  0.00  0.00     0.087 H 
ENDROOT
TORSDOF 0
