REMARK  3 active torsions:
REMARK  status: ('A' for Active; 'I' for Inactive)
REMARK    1  A    between atoms: C1_1  and  C2_2 
REMARK    2  A    between atoms: C2_2  and  C3_3 
REMARK    3  A    between atoms: C3_3  and  C4_4 
ROOT
ATOM      1  C4  <0> d           1.208  -0.683  -0.013  0.00  0.00    -0.058 A 
ATOM      2  C5  <0> d           0.002  -0.004   0.002  0.00  0.00    -0.075 A 
ATOM      3  C6  <0> d          -0.017   1.375   0.010  0.00  0.00    -0.062 A 
ATOM      4  C7  <0> d           1.185   2.087   0.002  0.00  0.00     0.044 A 
ATOM      5  C8  <0> d           2.398   1.395  -0.013  0.00  0.00    -0.062 A 
ATOM      6  C9  <0> d           2.402   0.016  -0.020  0.00  0.00    -0.075 A 
ATOM      7  C10 <0> d           1.173   3.518   0.009  0.00  0.00     0.099 C 
ATOM      8  N1  <0> d           1.164   4.654   0.015  0.00  0.00    -0.191 NA
ATOM      9  H8  <0> d          -0.926  -0.555   0.008  0.00  0.00     0.084 H 
ATOM     10  H9  <0> d          -0.959   1.904   0.017  0.00  0.00     0.085 H 
ATOM     11  H10 <0> d           3.331   1.939  -0.020  0.00  0.00     0.085 H 
ATOM     12  H11 <0> d           3.340  -0.520  -0.031  0.00  0.00     0.084 H 
ENDROOT
BRANCH   1  13
ATOM     13  C3  <0> d           1.220  -2.190  -0.020  0.00  0.00    -0.041 C 
ATOM     14  H6  <0> d           2.118  -2.548   0.484  0.00  0.00     0.040 H 
ATOM     15  H7  <0> d           0.338  -2.563   0.501  0.00  0.00     0.040 H 
BRANCH  13  16
ATOM     16  C2  <0> d           1.211  -2.693  -1.465  0.00  0.00    -0.065 C 
ATOM     17  H4  <0> d           0.313  -2.334  -1.968  0.00  0.00     0.032 H 
ATOM     18  H5  <0> d           2.093  -2.320  -1.985  0.00  0.00     0.032 H 
BRANCH  16  19
ATOM     19  C1  <0> d           1.223  -4.223  -1.472  0.00  0.00    -0.076 C 
ATOM     20  H1  <0> d           1.216  -4.581  -2.501  0.00  0.00     0.027 H 
ATOM     21  H2  <0> d           2.121  -4.581  -0.969  0.00  0.00     0.027 H 
ATOM     22  H3  <0> d           0.341  -4.596  -0.952  0.00  0.00     0.027 H 
ENDBRANCH  16  19
ENDBRANCH  13  16
ENDBRANCH   1  13
TORSDOF 3
