REMARK  2 active torsions:
REMARK  status: ('A' for Active; 'I' for Inactive)
REMARK    1  A    between atoms: C2_2  and  O1_8 
REMARK    2  A    between atoms: C4_5  and  N3_7 
ROOT
ATOM      1  C1  <0> d          -2.355   3.646   0.034  0.00  0.00     0.054 A 
ATOM      2  C2  <0> d          -3.559   2.950   0.036  0.00  0.00     0.101 A 
ATOM      3  C3  <0> d          -3.521   1.561   0.028  0.00  0.00     0.054 A 
ATOM      4  N1  <0> d          -2.349   0.948   0.018  0.00  0.00    -0.073 NA
ATOM      5  C4  <0> d          -1.221   1.643   0.017  0.00  0.00     0.719 A 
ATOM      6  N2  <0> d          -1.220   2.967   0.029  0.00  0.00    -0.073 NA
ATOM      7  H1  <0> d          -2.347   4.726   0.040  0.00  0.00     0.120 H 
ATOM      8  H2  <0> d          -4.437   0.989   0.029  0.00  0.00     0.120 H 
ENDROOT
BRANCH   5   9
ATOM      9  N3  <0> d          -0.011   0.966   0.007  0.00  0.00    -0.231 N 
ATOM     10  H3  <0> d           0.934   1.529   0.006  0.00  0.00     0.174 HD
ATOM     11  H4  <0> d           0.004  -0.134   0.001  0.00  0.00     0.174 HD
ENDBRANCH   5   9
BRANCH   2  12
ATOM     12  O1  <0> d          -4.746   3.615   0.045  0.00  0.00    -0.358 OA
ATOM     13  H5  <0> d          -5.691   3.052   0.047  0.00  0.00     0.217 HD
ENDBRANCH   2  12
TORSDOF 2
