REMARK  1 active torsions:
REMARK  status: ('A' for Active; 'I' for Inactive)
REMARK    1  A    between atoms: C4_4  and  C7_7 
ROOT
ATOM      1  C7  <0> d           2.843  -0.443  -2.479  0.00  0.00    -0.085 C 
ATOM      2  C8  <0> d           3.392  -0.821  -3.445  0.00  0.00     0.005 C 
ATOM      3 Cl1  <0> d           4.160  -1.350  -4.794  0.00  0.00    -0.023 Cl
ENDROOT
BRANCH   1   4
ATOM      4  C4  <0> d           2.154   0.032  -1.268  0.00  0.00     0.007 C 
ATOM      5  C3  <0> d           2.133   1.562  -1.259  0.00  0.00    -0.052 C 
ATOM      6  C2  <0> d           1.417   2.055  -0.000  0.00  0.00    -0.064 C 
ATOM      7  H5  <0> d           1.606   1.923  -2.142  0.00  0.00     0.034 H 
ATOM      8  H6  <0> d           3.155   1.939  -1.267  0.00  0.00     0.034 H 
ATOM      9  C1  <0> d          -0.019   1.526   0.010  0.00  0.00    -0.065 C 
ATOM     10  H3  <0> d           1.402   3.145   0.006  0.00  0.00     0.033 H 
ATOM     11  H4  <0> d           1.944   1.694   0.883  0.00  0.00     0.033 H 
ATOM     12  C6  <0> d           0.002  -0.004   0.002  0.00  0.00    -0.064 C 
ATOM     13  H1  <0> d          -0.529   1.877   0.907  0.00  0.00     0.033 H 
ATOM     14  H2  <0> d          -0.546   1.887  -0.873  0.00  0.00     0.033 H 
ATOM     15  C5  <0> d           0.718  -0.497  -1.257  0.00  0.00    -0.052 C 
ATOM     16  H10 <0> d           0.529  -0.365   0.885  0.00  0.00     0.033 H 
ATOM     17  H11 <0> d          -1.020  -0.381   0.010  0.00  0.00     0.033 H 
ATOM     18  H8  <0> d           0.191  -0.136  -2.140  0.00  0.00     0.034 H 
ATOM     19  H9  <0> d           0.733  -1.587  -1.263  0.00  0.00     0.034 H 
ATOM     20  H7  <0> d           2.681  -0.329  -0.385  0.00  0.00     0.059 H 
ENDBRANCH   1   4
TORSDOF 1
