REMARK  4 active torsions:
REMARK  status: ('A' for Active; 'I' for Inactive)
REMARK    1  A    between atoms: C1_1  and  C2_2 
REMARK    2  A    between atoms: C4_5  and  C8_12 
REMARK    3  A    between atoms: C4_5  and  C9_13 
REMARK    4  A    between atoms: C5_7  and  C6_10 
ROOT
ATOM      1  C2  <0> d          -0.729   1.579   1.267  0.00  0.00     0.041 C 
ATOM      2  H1  <0> d          -0.744   2.669   1.274  0.00  0.00     0.083 H 
ATOM      3  C3  <0> d           0.008   1.068   2.510  0.00  0.00    -0.013 C 
ATOM      4  C4  <0> d          -0.799   1.451   3.756  0.00  0.00     0.059 C 
ATOM      5  O1  <0> d          -2.135   0.959   3.613  0.00  0.00    -0.348 OA
ATOM      6  C5  <0> d          -2.808   1.446   2.450  0.00  0.00     0.149 C 
ATOM      7  H2  <0> d          -2.885   2.532   2.504  0.00  0.00     0.136 H 
ATOM      8  O2  <0> d          -2.070   1.081   1.281  0.00  0.00    -0.353 OA
ATOM      9  H6  <0> d           0.105  -0.016   2.457  0.00  0.00     0.041 H 
ATOM     10  H7  <0> d           0.997   1.523   2.561  0.00  0.00     0.041 H 
ENDROOT
BRANCH   4  11
ATOM     11  C8  <0> d          -0.153   0.829   4.995  0.00  0.00    -0.048 C 
ATOM     12  H11 <0> d           0.868   1.197   5.097  0.00  0.00     0.031 H 
ATOM     13  H12 <0> d          -0.728   1.102   5.880  0.00  0.00     0.031 H 
ATOM     14  H13 <0> d          -0.139  -0.256   4.891  0.00  0.00     0.031 H 
ENDBRANCH   4  11
BRANCH   4  15
ATOM     15  C9  <0> d          -0.825   2.974   3.901  0.00  0.00    -0.048 C 
ATOM     16  H14 <0> d          -1.288   3.415   3.019  0.00  0.00     0.031 H 
ATOM     17  H15 <0> d          -1.398   3.244   4.787  0.00  0.00     0.031 H 
ATOM     18  H16 <0> d           0.195   3.346   4.001  0.00  0.00     0.031 H 
ENDBRANCH   4  15
BRANCH   1  19
ATOM     19  C1  <0> d          -0.013   1.086   0.008  0.00  0.00    -0.052 C 
ATOM     20  H3  <0> d           0.002  -0.004   0.002  0.00  0.00     0.030 H 
ATOM     21  H4  <0> d           1.010   1.463   0.000  0.00  0.00     0.030 H 
ATOM     22  H5  <0> d          -0.540   1.447  -0.875  0.00  0.00     0.030 H 
ENDBRANCH   1  19
BRANCH   6  23
ATOM     23  C6  <0> d          -4.189   0.847   2.380  0.00  0.00    -0.060 C 
ATOM     24  C7  <0> d          -5.242   1.626   2.391  0.00  0.00    -0.120 C 
ATOM     25  H9  <0> d          -6.232   1.196   2.341  0.00  0.00     0.066 H 
ATOM     26  H10 <0> d          -5.121   2.697   2.450  0.00  0.00     0.066 H 
ATOM     27  H8  <0> d          -4.310  -0.225   2.322  0.00  0.00     0.083 H 
ENDBRANCH   6  23
TORSDOF 4
