REMARK  6 active torsions:
REMARK  status: ('A' for Active; 'I' for Inactive)
REMARK    1  A    between atoms: C1_1  and  C2_2 
REMARK    2  A    between atoms: C4_6  and  C5_8 
REMARK    3  A    between atoms: C4_6  and  C6_9 
REMARK    4  A    between atoms: C6_9  and  C7_10 
REMARK    5  A    between atoms: C6_9  and  C8_11 
REMARK    6  A    between atoms: C6_9  and  C9_12 
ROOT
ATOM      1  C2  <0> d          -0.019   1.538   0.011  0.00  0.00     0.059 C 
ATOM      2  H1  <0> d          -0.509   1.905   0.912  0.00  0.00     0.086 H 
ATOM      3  C3  <0> d           0.002  -0.004   0.002  0.00  0.00     0.047 C 
ATOM      4  O1  <0> d           1.401  -0.357  -0.013  0.00  0.00    -0.352 OA
ATOM      5  C4  <0> d           2.073   0.792   0.547  0.00  0.00     0.167 C 
ATOM      6  O2  <0> d           1.370   1.928  -0.001  0.00  0.00    -0.348 OA
ATOM      7  H5  <0> d          -0.478  -0.395   0.900  0.00  0.00     0.078 H 
ATOM      8  H6  <0> d          -0.496  -0.385  -0.889  0.00  0.00     0.078 H 
ENDROOT
BRANCH   5   9
ATOM      9  C5  <0> d           1.964   0.782   2.073  0.00  0.00    -0.025 C 
ATOM     10  H7  <0> d           2.436  -0.118   2.465  0.00  0.00     0.035 H 
ATOM     11  H8  <0> d           2.464   1.661   2.479  0.00  0.00     0.035 H 
ATOM     12  H9  <0> d           0.913   0.796   2.362  0.00  0.00     0.035 H 
ENDBRANCH   5   9
BRANCH   5  13
ATOM     13  C6  <0> d           3.541   0.813   0.118  0.00  0.00     0.005 C 
BRANCH  13  14
ATOM     14  C7  <0> d           3.627   0.844  -1.409  0.00  0.00    -0.065 C 
ATOM     15  H10 <0> d           3.126   1.738  -1.782  0.00  0.00     0.028 H 
ATOM     16  H11 <0> d           4.673   0.859  -1.714  0.00  0.00     0.028 H 
ATOM     17  H12 <0> d           3.141  -0.042  -1.818  0.00  0.00     0.028 H 
ENDBRANCH  13  14
BRANCH  13  18
ATOM     18  C8  <0> d           4.223   2.056   0.693  0.00  0.00    -0.065 C 
ATOM     19  H13 <0> d           4.162   2.034   1.781  0.00  0.00     0.028 H 
ATOM     20  H14 <0> d           5.269   2.071   0.388  0.00  0.00     0.028 H 
ATOM     21  H15 <0> d           3.723   2.950   0.320  0.00  0.00     0.028 H 
ENDBRANCH  13  18
BRANCH  13  22
ATOM     22  C9  <0> d           4.243  -0.442   0.642  0.00  0.00    -0.065 C 
ATOM     23  H16 <0> d           3.758  -1.328   0.233  0.00  0.00     0.028 H 
ATOM     24  H17 <0> d           5.290  -0.427   0.337  0.00  0.00     0.028 H 
ATOM     25  H18 <0> d           4.183  -0.464   1.730  0.00  0.00     0.028 H 
ENDBRANCH  13  22
ENDBRANCH   5  13
BRANCH   1  26
ATOM     26  C1  <0> d          -0.731   2.067  -1.236  0.00  0.00    -0.050 C 
ATOM     27  H2  <0> d          -1.756   1.697  -1.254  0.00  0.00     0.031 H 
ATOM     28  H3  <0> d          -0.737   3.156  -1.216  0.00  0.00     0.031 H 
ATOM     29  H4  <0> d          -0.205   1.723  -2.128  0.00  0.00     0.031 H 
ENDBRANCH   1  26
TORSDOF 6
