REMARK  0 active torsions:
REMARK  status: ('A' for Active; 'I' for Inactive)
ROOT
ATOM      1  C1  <0> d           4.078   1.408  -2.439  0.00  0.00     0.019 A 
ATOM      2  C2  <0> d           3.656   0.245  -3.060  0.00  0.00     0.019 A 
ATOM      3  N1  <0> d           2.522  -0.318  -2.693  0.00  0.00    -0.262 NA
ATOM      4  C3  <0> d           1.780   0.220  -1.731  0.00  0.00     0.059 A 
ATOM      5  C4  <0> d           2.203   1.375  -1.109  0.00  0.00     0.059 A 
ATOM      6  N2  <0> d           3.345   1.942  -1.483  0.00  0.00    -0.262 NA
ATOM      7  C5  <0> d           1.424   2.031  -0.001  0.00  0.00    -0.023 C 
ATOM      8  C6  <0> d          -0.019   1.529   0.010  0.00  0.00    -0.060 C 
ATOM      9  C7  <0> d           0.002  -0.004   0.002  0.00  0.00    -0.060 C 
ATOM     10  C8  <0> d           0.494  -0.473  -1.366  0.00  0.00    -0.023 C 
ATOM     11  H1  <0> d           5.005   1.875  -2.737  0.00  0.00     0.117 H 
ATOM     12  H2  <0> d           4.253  -0.199  -3.842  0.00  0.00     0.117 H 
ATOM     13  H3  <0> d           1.427   3.111  -0.149  0.00  0.00     0.042 H 
ATOM     14  H4  <0> d           1.893   1.799   0.955  0.00  0.00     0.042 H 
ATOM     15  H5  <0> d          -0.541   1.894  -0.874  0.00  0.00     0.033 H 
ATOM     16  H6  <0> d          -0.524   1.884   0.908  0.00  0.00     0.033 H 
ATOM     17  H7  <0> d           0.676  -0.366   0.778  0.00  0.00     0.033 H 
ATOM     18  H8  <0> d          -1.003  -0.386   0.181  0.00  0.00     0.033 H 
ATOM     19  H9  <0> d           0.661  -1.549  -1.339  0.00  0.00     0.042 H 
ATOM     20  H10 <0> d          -0.262  -0.245  -2.118  0.00  0.00     0.042 H 
ENDROOT
TORSDOF 0
