REMARK  0 active torsions:
REMARK  status: ('A' for Active; 'I' for Inactive)
ROOT
ATOM      1  C1  <0> d          -0.013   1.076   0.008  0.00  0.00     0.040 A 
ATOM      2  C2  <0> d          -1.230   1.758   0.017  0.00  0.00     0.155 A 
ATOM      3  N1  <0> d          -1.242   3.089   0.030  0.00  0.00    -0.223 NA
ATOM      4  C3  <0> d          -0.104   3.757   0.022  0.00  0.00     0.144 A 
ATOM      5  C4  <0> d           1.105   3.074   0.008  0.00  0.00     0.041 A 
ATOM      6  N2  <0> d           1.121   1.753   0.001  0.00  0.00    -0.267 NA
ATOM      7 Cl1  <0> d          -0.118   5.493   0.031  0.00  0.00    -0.061 Cl
ATOM      8  C5  <0> d          -2.462   1.029   0.019  0.00  0.00     0.121 C 
ATOM      9  N3  <0> d          -3.440   0.450   0.021  0.00  0.00    -0.190 NA
ATOM     10  H1  <0> d           0.002  -0.004   0.002  0.00  0.00     0.119 H 
ATOM     11  H2  <0> d           2.034   3.624   0.001  0.00  0.00     0.119 H 
ENDROOT
TORSDOF 0
