REMARK  4 active torsions:
REMARK  status: ('A' for Active; 'I' for Inactive)
REMARK    1  A    between atoms: C1_1  and  C2_2 
REMARK    2  A    between atoms: C2_2  and  C3_3 
REMARK    3  A    between atoms: C3_3  and  C4_5 
REMARK    4  A    between atoms: C4_5  and  C5_6 
ROOT
ATOM      1  C4  <0> d          -1.293  -0.775   0.010  0.00  0.00     0.035 C 
ATOM      2  H6  <0> d          -1.812  -0.545   0.833  0.00  0.00     0.054 H 
ATOM      3  H7  <0> d          -1.876  -0.515  -0.873  0.00  0.00     0.054 H 
ENDROOT
BRANCH   1   4
ATOM      4  C3  <0> d           0.002  -0.004   0.002  0.00  0.00     0.132 C 
ATOM      5  O1  <0> d           1.056  -0.594  -0.011  0.00  0.00    -0.298 OA
BRANCH   4   6
ATOM      6  C2  <0> d          -0.018   1.503   0.010  0.00  0.00    -0.013 C 
ATOM      7  H4  <0> d          -0.502   1.834  -0.800  0.00  0.00     0.043 H 
ATOM      8  H5  <0> d          -0.529   1.854   0.907  0.00  0.00     0.043 H 
BRANCH   6   9
ATOM      9  C1  <0> d           1.417   2.032  -0.001  0.00  0.00    -0.070 C 
ATOM     10  H1  <0> d           1.944   1.671   0.882  0.00  0.00     0.028 H 
ATOM     11  H2  <0> d           1.927   1.681  -0.897  0.00  0.00     0.028 H 
ATOM     12  H3  <0> d           1.402   3.122   0.005  0.00  0.00     0.028 H 
ENDBRANCH   6   9
ENDBRANCH   4   6
ENDBRANCH   1   4
BRANCH   1  13
ATOM     13  C5  <0> d          -0.997  -2.253  -0.001  0.00  0.00     0.059 A 
ATOM     14  O2  <0> d          -0.859  -3.018  -1.095  0.00  0.00    -0.327 OA
ATOM     15  C8  <0> d          -0.597  -4.283  -0.728  0.00  0.00     0.019 A 
ATOM     16  C7  <0> d          -0.575  -4.339   0.616  0.00  0.00    -0.059 A 
ATOM     17  H10 <0> d          -0.437  -5.115  -1.397  0.00  0.00     0.123 H 
ATOM     18  C6  <0> d          -0.833  -3.030   1.085  0.00  0.00    -0.052 A 
ATOM     19  H9  <0> d          -0.394  -5.215   1.221  0.00  0.00     0.086 H 
ATOM     20  H8  <0> d          -0.886  -2.715   2.116  0.00  0.00     0.087 H 
ENDBRANCH   1  13
TORSDOF 4
