REMARK  3 active torsions:
REMARK  status: ('A' for Active; 'I' for Inactive)
REMARK    1  A    between atoms: C1_1  and  C2_2 
REMARK    2  A    between atoms: C3_3  and  C8_11 
REMARK    3  A    between atoms: C4_6  and  C7_10 
ROOT
ATOM      1  C2  <0> d           0.002  -0.004   0.002  0.00  0.00    -0.017 A 
ATOM      2  C3  <0> d           0.008  -0.804  -1.079  0.00  0.00     0.013 A 
ATOM      3  N1  <0> d           0.029  -2.104  -0.666  0.00  0.00    -0.362 N 
ATOM      4  H1  <0> d           0.037  -2.874  -1.256  0.00  0.00     0.165 HD
ATOM      5  C4  <0> d           0.036  -2.166   0.681  0.00  0.00     0.027 A 
ATOM      6  C5  <0> d           0.026  -0.889   1.171  0.00  0.00     0.074 A 
ATOM      7  C6  <0> d           0.033  -0.496   2.548  0.00  0.00     0.102 C 
ATOM      8  N2  <0> d           0.039  -0.184   3.640  0.00  0.00    -0.191 NA
ENDROOT
BRANCH   1   9
ATOM      9  C1  <0> d          -0.018   1.503   0.010  0.00  0.00    -0.048 C 
ATOM     10  H2  <0> d           1.004   1.880   0.003  0.00  0.00     0.033 H 
ATOM     11  H3  <0> d          -0.545   1.864  -0.873  0.00  0.00     0.033 H 
ATOM     12  H4  <0> d          -0.529   1.854   0.907  0.00  0.00     0.033 H 
ENDBRANCH   1   9
BRANCH   5  13
ATOM     13  C7  <0> d           0.058  -3.427   1.506  0.00  0.00    -0.036 C 
ATOM     14  H5  <0> d           1.090  -3.716   1.701  0.00  0.00     0.035 H 
ATOM     15  H6  <0> d          -0.455  -3.251   2.452  0.00  0.00     0.035 H 
ATOM     16  H7  <0> d          -0.447  -4.225   0.963  0.00  0.00     0.035 H 
ENDBRANCH   5  13
BRANCH   2  17
ATOM     17  C8  <0> d          -0.006  -0.341  -2.513  0.00  0.00    -0.037 C 
ATOM     18  H8  <0> d           1.018  -0.214  -2.864  0.00  0.00     0.035 H 
ATOM     19  H9  <0> d          -0.512  -1.083  -3.130  0.00  0.00     0.035 H 
ATOM     20  H10 <0> d          -0.534   0.611  -2.582  0.00  0.00     0.035 H 
ENDBRANCH   2  17
TORSDOF 3
