REMARK  5 active torsions:
REMARK  status: ('A' for Active; 'I' for Inactive)
REMARK    1  A    between atoms: C4_4  and  C7_7 
REMARK    2  A    between atoms: C7_7  and  C8_8 
REMARK    3  A    between atoms: C7_7  and  C9_10 
REMARK    4  A    between atoms: C8_8  and  O1_9 
REMARK    5  A    between atoms: C9_10  and  O2_11 
ROOT
ATOM      1  C7  <0> d           0.002  -0.004   0.002  0.00  0.00     0.012 C 
ATOM      2  H6  <0> d           1.049  -0.342  -0.010  0.00  0.00     0.053 H 
ENDROOT
BRANCH   1   3
ATOM      3  C4  <0> d          -0.018   1.503   0.010  0.00  0.00    -0.050 A 
ATOM      4  C3  <0> d           1.169   2.210   0.003  0.00  0.00    -0.076 A 
ATOM      5  C2  <0> d           1.151   3.592   0.010  0.00  0.00    -0.082 A 
ATOM      6  H3  <0> d           2.112   1.683  -0.009  0.00  0.00     0.084 H 
ATOM      7  C1  <0> d          -0.056   4.267   0.025  0.00  0.00    -0.083 A 
ATOM      8  H2  <0> d           2.078   4.145   0.004  0.00  0.00     0.083 H 
ATOM      9  C6  <0> d          -1.244   3.560   0.032  0.00  0.00    -0.082 A 
ATOM     10  H1  <0> d          -0.070   5.347   0.031  0.00  0.00     0.083 H 
ATOM     11  C5  <0> d          -1.225   2.178   0.020  0.00  0.00    -0.076 A 
ATOM     12  H5  <0> d          -2.186   4.087   0.044  0.00  0.00     0.083 H 
ATOM     13  H4  <0> d          -2.153   1.625   0.021  0.00  0.00     0.084 H 
ENDBRANCH   1   3
BRANCH   1  14
ATOM     14  C8  <0> d          -0.700  -0.530   1.255  0.00  0.00     0.026 C 
ATOM     15  H7  <0> d          -0.234  -0.090   2.149  0.00  0.00     0.075 H 
ATOM     16  H8  <0> d          -1.764  -0.254   1.223  0.00  0.00     0.075 H 
BRANCH  14  17
ATOM     17  O1  <0> d          -0.580  -1.954   1.307  0.00  0.00    -0.400 OA
ATOM     18  H9  <0> d          -1.025  -2.514   2.142  0.00  0.00     0.209 HD
ENDBRANCH  14  17
ENDBRANCH   1  14
BRANCH   1  19
ATOM     19  C9  <0> d          -0.724  -0.517  -1.243  0.00  0.00     0.026 C 
ATOM     20  H10 <0> d          -0.788  -1.615  -1.204  0.00  0.00     0.075 H 
ATOM     21  H11 <0> d          -1.738  -0.092  -1.277  0.00  0.00     0.075 H 
BRANCH  19  22
ATOM     22  O2  <0> d          -0.002  -0.123  -2.412  0.00  0.00    -0.400 OA
ATOM     23  H12 <0> d          -0.374  -0.403  -3.408  0.00  0.00     0.209 HD
ENDBRANCH  19  22
ENDBRANCH   1  19
TORSDOF 5
