REMARK  4 active torsions:
REMARK  status: ('A' for Active; 'I' for Inactive)
REMARK    1  A    between atoms: C1_1  and  C2_2 
REMARK    2  A    between atoms: C2_2  and  O1_3 
REMARK    3  A    between atoms: O1_3  and  C3_4 
REMARK    4  A    between atoms: C4_6  and  N3_9 
ROOT
ATOM      1  C3  <0> d           1.723  -0.222  -0.016  0.00  0.00     0.245 A 
ATOM      2  N1  <0> d           2.151   1.031  -0.013  0.00  0.00    -0.029 NA
ATOM      3  C4  <0> d           1.262   2.002   0.001  0.00  0.00     0.730 A 
ATOM      4  N2  <0> d          -0.021   1.708   0.011  0.00  0.00    -0.020 NA
ATOM      5  S1  <0> d           0.002  -0.004   0.002  0.00  0.00     0.077 SA
ENDROOT
BRANCH   1   6
ATOM      6  O1  <0> d           2.440  -1.371  -0.028  0.00  0.00    -0.328 OA
BRANCH   6   7
ATOM      7  C2  <0> d           1.704  -2.595  -0.028  0.00  0.00     0.025 C 
ATOM      8  H4  <0> d           1.084  -2.646   0.868  0.00  0.00     0.074 H 
ATOM      9  H5  <0> d           1.068  -2.637  -0.912  0.00  0.00     0.074 H 
BRANCH   7  10
ATOM     10  C1  <0> d           2.677  -3.776  -0.043  0.00  0.00    -0.056 C 
ATOM     11  H1  <0> d           3.296  -3.724  -0.939  0.00  0.00     0.030 H 
ATOM     12  H2  <0> d           3.313  -3.734   0.841  0.00  0.00     0.030 H 
ATOM     13  H3  <0> d           2.115  -4.710  -0.043  0.00  0.00     0.030 H 
ENDBRANCH   7  10
ENDBRANCH   6   7
ENDBRANCH   1   6
BRANCH   3  14
ATOM     14  N3  <0> d           1.676   3.334   0.004  0.00  0.00    -0.230 N 
ATOM     15  H6  <0> d           1.018   4.046   0.014  0.00  0.00     0.174 HD
ATOM     16  H7  <0> d           2.622   3.547  -0.005  0.00  0.00     0.174 HD
ENDBRANCH   3  14
TORSDOF 4
