REMARK  6 active torsions:
REMARK  status: ('A' for Active; 'I' for Inactive)
REMARK    1  A    between atoms: C1_1  and  C2_2 
REMARK    2  A    between atoms: C2_2  and  C3_3 
REMARK    3  A    between atoms: C2_2  and  C4_4 
REMARK    4  A    between atoms: C4_4  and  C5_6 
REMARK    5  A    between atoms: C4_4  and  N1_8 
REMARK       I    between atoms: N1_8  and  C6_9 
REMARK    6  A    between atoms: C6_9  and  C7_11 
ROOT
ATOM      1  C4  <0> d          -1.329   1.940   0.019  0.00  0.00     0.099 C 
ATOM      2  H1  <0> d          -1.400   2.570  -0.867  0.00  0.00     0.090 H 
ENDROOT
BRANCH   1   3
ATOM      3  C2  <0> d          -1.417   2.811   1.273  0.00  0.00    -0.032 C 
ATOM      4  H5  <0> d          -2.402   3.274   1.326  0.00  0.00     0.042 H 
BRANCH   3   5
ATOM      5  C1  <0> d          -1.193   1.944   2.514  0.00  0.00    -0.071 C 
ATOM      6  H2  <0> d          -0.208   1.481   2.461  0.00  0.00     0.028 H 
ATOM      7  H3  <0> d          -1.255   2.565   3.407  0.00  0.00     0.028 H 
ATOM      8  H4  <0> d          -1.957   1.168   2.557  0.00  0.00     0.028 H 
ENDBRANCH   3   5
BRANCH   3   9
ATOM      9  C3  <0> d          -0.344   3.901   1.213  0.00  0.00    -0.071 C 
ATOM     10  H6  <0> d          -0.503   4.519   0.329  0.00  0.00     0.028 H 
ATOM     11  H7  <0> d          -0.406   4.522   2.107  0.00  0.00     0.028 H 
ATOM     12  H8  <0> d           0.641   3.438   1.160  0.00  0.00     0.028 H 
ENDBRANCH   3   9
ENDBRANCH   1   3
BRANCH   1  13
ATOM     13  C5  <0> d          -0.014   1.204   0.009  0.00  0.00     0.197 C 
ATOM     14  O1  <0> d           0.002  -0.004   0.002  0.00  0.00    -0.646 OA
ATOM     15  O3  <0> d           1.139   1.891   0.001  0.00  0.00    -0.646 OA
ENDBRANCH   1  13
BRANCH   1  16
ATOM     16  N1  <0> d          -2.430   0.973   0.019  0.00  0.00    -0.346 N 
ATOM     17  C6  <0> d          -2.875   0.458  -1.145  0.00  0.00     0.214 C 
ATOM     18  O2  <0> d          -2.364   0.795  -2.192  0.00  0.00    -0.274 OA
ATOM     19  H9  <0> d          -2.839   0.703   0.856  0.00  0.00     0.163 HD
BRANCH  17  20
ATOM     20  C7  <0> d          -4.007  -0.537  -1.145  0.00  0.00    -0.003 C 
ATOM     21  H10 <0> d          -4.334  -0.715  -0.120  0.00  0.00     0.040 H 
ATOM     22  H11 <0> d          -4.838  -0.141  -1.728  0.00  0.00     0.040 H 
ATOM     23  H12 <0> d          -3.667  -1.474  -1.586  0.00  0.00     0.040 H 
ENDBRANCH  17  20
ENDBRANCH   1  16
TORSDOF 6
