REMARK  7 active torsions:
REMARK  status: ('A' for Active; 'I' for Inactive)
REMARK    1  A    between atoms: C1_1  and  C2_2 
REMARK    2  A    between atoms: C2_2  and  C3_3 
REMARK    3  A    between atoms: C2_2  and  C4_4 
REMARK    4  A    between atoms: C4_4  and  C5_5 
REMARK    5  A    between atoms: C4_4  and  O1_8 
REMARK    6  A    between atoms: C5_5  and  C6_6 
REMARK    7  A    between atoms: C5_5  and  C7_7 
ROOT
ATOM      1  C4  <0> d           1.177   1.727  -0.061  0.00  0.00     0.041 C 
ATOM      2  H8  <0> d           1.306   2.810  -0.047  0.00  0.00     0.084 H 
ENDROOT
BRANCH   1   3
ATOM      3  C2  <0> d           1.651   1.139   1.269  0.00  0.00    -0.036 C 
ATOM      4  H4  <0> d           2.721   1.317   1.384  0.00  0.00     0.042 H 
BRANCH   3   5
ATOM      5  C1  <0> d           0.897   1.808   2.420  0.00  0.00    -0.071 C 
ATOM      6  H1  <0> d           1.296   1.454   3.370  0.00  0.00     0.028 H 
ATOM      7  H2  <0> d           1.019   2.890   2.355  0.00  0.00     0.028 H 
ATOM      8  H3  <0> d          -0.162   1.558   2.355  0.00  0.00     0.028 H 
ENDBRANCH   3   5
BRANCH   3   9
ATOM      9  C3  <0> d           1.379  -0.366   1.288  0.00  0.00    -0.071 C 
ATOM     10  H5  <0> d           1.916  -0.843   0.468  0.00  0.00     0.028 H 
ATOM     11  H6  <0> d           1.717  -0.785   2.236  0.00  0.00     0.028 H 
ATOM     12  H7  <0> d           0.309  -0.543   1.173  0.00  0.00     0.028 H 
ENDBRANCH   3   9
ENDBRANCH   1   3
BRANCH   1  13
ATOM     13  C5  <0> d           2.001   1.131  -1.205  0.00  0.00    -0.036 C 
ATOM     14  H9  <0> d           1.955   0.043  -1.157  0.00  0.00     0.042 H 
BRANCH  13  15
ATOM     15  C6  <0> d           1.434   1.607  -2.544  0.00  0.00    -0.071 C 
ATOM     16  H10 <0> d           1.480   2.695  -2.592  0.00  0.00     0.028 H 
ATOM     17  H11 <0> d           2.021   1.182  -3.358  0.00  0.00     0.028 H 
ATOM     18  H12 <0> d           0.397   1.283  -2.635  0.00  0.00     0.028 H 
ENDBRANCH  13  15
BRANCH  13  19
ATOM     19  C7  <0> d           3.456   1.586  -1.076  0.00  0.00    -0.071 C 
ATOM     20  H13 <0> d           4.034   1.197  -1.915  0.00  0.00     0.028 H 
ATOM     21  H14 <0> d           3.498   2.675  -1.080  0.00  0.00     0.028 H 
ATOM     22  H15 <0> d           3.873   1.209  -0.142  0.00  0.00     0.028 H 
ENDBRANCH  13  19
ENDBRANCH   1  13
BRANCH   1  23
ATOM     23  O1  <0> d          -0.203   1.415  -0.255  0.00  0.00    -0.395 OA
ATOM     24  H16 <0> d          -0.393   0.467  -0.279  0.00  0.00     0.210 HD
ENDBRANCH   1  23
TORSDOF 7
