REMARK  2 active torsions:
REMARK  status: ('A' for Active; 'I' for Inactive)
REMARK    1  A    between atoms: C1_1  and  N1_2 
REMARK    2  A    between atoms: C3_5  and  C4_9 
REMARK       I    between atoms: C4_9  and  N4_11 
ROOT
ATOM      1  N1  <0> d          -3.499   2.375   0.032  0.00  0.00    -0.244 N 
ATOM      2  C2  <0> d          -2.644   1.325   0.016  0.00  0.00     0.299 A 
ATOM      3  O1  <0> d          -2.925   0.141   0.005  0.00  0.00    -0.264 OA
ATOM      4  C3  <0> d          -1.298   1.930   0.019  0.00  0.00     0.214 A 
ATOM      5  N2  <0> d          -1.466   3.234   0.026  0.00  0.00    -0.147 NA
ATOM      6  N3  <0> d          -2.713   3.534   0.034  0.00  0.00    -0.214 N 
ATOM      7  H1  <0> d          -3.064   4.438   0.040  0.00  0.00     0.211 HD
ENDROOT
BRANCH   4   8
ATOM      8  C4  <0> d          -0.014   1.212   0.009  0.00  0.00     0.275 C 
ATOM      9  O2  <0> d           0.002  -0.004   0.002  0.00  0.00    -0.266 OA
ATOM     10  N4  <0> d           1.143   1.902   0.001  0.00  0.00    -0.364 N 
ATOM     11  H5  <0> d           1.990   1.428  -0.009  0.00  0.00     0.159 HD
ATOM     12  H6  <0> d           1.130   2.872   0.007  0.00  0.00     0.159 HD
ENDBRANCH   4   8
BRANCH   1  13
ATOM     13  C1  <0> d          -4.962   2.311   0.039  0.00  0.00     0.005 C 
ATOM     14  H2  <0> d          -5.370   3.322   0.046  0.00  0.00     0.059 H 
ATOM     15  H3  <0> d          -5.307   1.786  -0.852  0.00  0.00     0.059 H 
ATOM     16  H4  <0> d          -5.298   1.777   0.928  0.00  0.00     0.059 H 
ENDBRANCH   1  13
TORSDOF 2
