REMARK  2 active torsions:
REMARK  status: ('A' for Active; 'I' for Inactive)
REMARK    1  A    between atoms: C1_1  and  C2_2 
REMARK    2  A    between atoms: C11_11  and  O1_12 
ROOT
ATOM      1  C2  <0> d           0.002  -0.004   0.002  0.00  0.00    -0.028 A 
ATOM      2  C3  <0> d           0.005  -0.684  -1.213  0.00  0.00    -0.074 A 
ATOM      3  C4  <0> d           0.024  -2.045  -1.257  0.00  0.00    -0.072 A 
ATOM      4  C5  <0> d           0.040  -2.781  -0.060  0.00  0.00    -0.023 A 
ATOM      5  C6  <0> d           0.059  -4.186  -0.068  0.00  0.00    -0.072 A 
ATOM      6  C7  <0> d           0.074  -4.866   1.111  0.00  0.00    -0.082 A 
ATOM      7  C8  <0> d           0.071  -4.190   2.329  0.00  0.00    -0.082 A 
ATOM      8  C9  <0> d           0.052  -2.829   2.375  0.00  0.00    -0.070 A 
ATOM      9  C10 <0> d           0.036  -2.094   1.179  0.00  0.00     0.008 A 
ATOM     10  C11 <0> d           0.023  -0.684   1.187  0.00  0.00     0.082 A 
ATOM     11  H4  <0> d          -0.007  -0.123  -2.136  0.00  0.00     0.084 H 
ATOM     12  H5  <0> d           0.026  -2.556  -2.208  0.00  0.00     0.084 H 
ATOM     13  H6  <0> d           0.062  -4.724  -1.005  0.00  0.00     0.084 H 
ATOM     14  H7  <0> d           0.089  -5.946   1.102  0.00  0.00     0.083 H 
ATOM     15  H8  <0> d           0.083  -4.753   3.251  0.00  0.00     0.083 H 
ATOM     16  H9  <0> d           0.050  -2.318   3.327  0.00  0.00     0.085 H 
ENDROOT
BRANCH   1  17
ATOM     17  C1  <0> d          -0.018   1.503   0.010  0.00  0.00    -0.049 C 
ATOM     18  H1  <0> d           1.004   1.880   0.003  0.00  0.00     0.033 H 
ATOM     19  H2  <0> d          -0.545   1.864  -0.873  0.00  0.00     0.033 H 
ATOM     20  H3  <0> d          -0.529   1.854   0.907  0.00  0.00     0.033 H 
ENDBRANCH   1  17
BRANCH  10  21
ATOM     21  O1  <0> d           0.024  -0.007   2.364  0.00  0.00    -0.359 OA
ATOM     22  H10 <0> d          -0.858   0.177   2.713  0.00  0.00     0.217 HD
ENDBRANCH  10  21
TORSDOF 2
