REMARK  0 active torsions:
REMARK  status: ('A' for Active; 'I' for Inactive)
ROOT
ATOM      1  C1  <0> d          -0.017   1.384   0.010  0.00  0.00    -0.039 A 
ATOM      2  C2  <0> d           0.002  -0.004   0.002  0.00  0.00    -0.039 A 
ATOM      3  C3  <0> d           1.236  -0.638  -0.013  0.00  0.00     0.148 A 
ATOM      4  N1  <0> d           2.344   0.080  -0.020  0.00  0.00    -0.137 NA
ATOM      5  N2  <0> d           2.326   1.363  -0.013  0.00  0.00    -0.137 NA
ATOM      6  C4  <0> d           1.200   2.051   0.002  0.00  0.00     0.148 A 
ATOM      7 Cl1  <0> d           1.240   3.787   0.011  0.00  0.00    -0.061 Cl
ATOM      8 Cl2  <0> d           1.323  -2.372  -0.023  0.00  0.00    -0.061 Cl
ATOM      9  H1  <0> d          -0.950   1.928   0.017  0.00  0.00     0.088 H 
ATOM     10  H2  <0> d          -0.916  -0.573   0.007  0.00  0.00     0.088 H 
ENDROOT
TORSDOF 0
