REMARK  1 active torsions:
REMARK  status: ('A' for Active; 'I' for Inactive)
REMARK    1  A    between atoms: C3_3  and  N2_9 
ROOT
ATOM      1  C1  <0> d          -2.491   3.681   0.033  0.00  0.00     0.019 A 
ATOM      2  C2  <0> d          -1.268   3.043   0.030  0.00  0.00     0.161 A 
ATOM      3  C3  <0> d          -1.229   1.647   0.017  0.00  0.00     0.110 A 
ATOM      4  C4  <0> d          -2.436   0.952   0.019  0.00  0.00     0.199 A 
ATOM      5  C5  <0> d          -3.624   1.667   0.028  0.00  0.00     0.220 A 
ATOM      6  N1  <0> d          -3.617   2.990   0.035  0.00  0.00    -0.339 N 
ATOM      7  O1  <0> d          -4.808   1.002   0.030  0.00  0.00    -0.169 OA
ATOM      8  F1  <0> d          -2.449  -0.399   0.011  0.00  0.00    -0.199 F 
ATOM      9  F2  <0> d          -0.123   3.760   0.035  0.00  0.00    -0.202 F 
ATOM     10  H1  <0> d          -2.529   4.761   0.039  0.00  0.00     0.116 H 
ATOM     11  H4  <0> d          -4.584   3.515   0.042  0.00  0.00     0.167 HD
ENDROOT
BRANCH   3  12
ATOM     12  N2  <0> d          -0.011   0.966   0.007  0.00  0.00    -0.394 N 
ATOM     13  H2  <0> d           0.004  -0.134  -0.003  0.00  0.00     0.156 HD
ATOM     14  H3  <0> d           0.934   1.529   0.011  0.00  0.00     0.156 HD
ENDBRANCH   3  12
TORSDOF 1
