REMARK  0 active torsions:
REMARK  status: ('A' for Active; 'I' for Inactive)
ROOT
ATOM      1  C1  <0> d           3.426   3.637  -0.264  0.00  0.00    -0.034 C 
ATOM      2  C2  <0> d           2.071   4.119  -0.784  0.00  0.00     0.011 C 
ATOM      3  N1  <0> d           1.015   3.407  -0.048  0.00  0.00    -0.224 N 
ATOM      4  C3  <0> d           1.093   2.041   0.003  0.00  0.00     0.701 C 
ATOM      5  N2  <0> d          -0.016   1.323   0.009  0.00  0.00    -0.028 NA
ATOM      6  C4  <0> d           0.002  -0.004   0.002  0.00  0.00     0.262 C 
ATOM      7  O1  <0> d          -1.046  -0.618   0.051  0.00  0.00    -0.271 OA
ATOM      8  C5  <0> d           1.305  -0.759  -0.067  0.00  0.00     0.027 C 
ATOM      9  C6  <0> d           2.401   0.077   0.604  0.00  0.00     0.019 C 
ATOM     10  N3  <0> d           2.317   1.449   0.076  0.00  0.00    -0.216 N 
ATOM     11  C7  <0> d           3.530   2.122  -0.369  0.00  0.00     0.013 C 
ATOM     12  H1  <0> d           3.536   3.933   0.780  0.00  0.00     0.037 H 
ATOM     13  H2  <0> d           4.221   4.094  -0.853  0.00  0.00     0.037 H 
ATOM     14  H3  <0> d           1.974   5.192  -0.620  0.00  0.00     0.064 H 
ATOM     15  H4  <0> d           1.988   3.901  -1.849  0.00  0.00     0.064 H 
ATOM     16  H5  <0> d           0.291   3.887   0.384  0.00  0.00     0.177 HD
ATOM     17  H6  <0> d           1.203  -1.712   0.453  0.00  0.00     0.049 H 
ATOM     18  H7  <0> d           1.568  -0.940  -1.109  0.00  0.00     0.049 H 
ATOM     19  H8  <0> d           2.246   0.088   1.683  0.00  0.00     0.065 H 
ATOM     20  H9  <0> d           3.379  -0.346   0.377  0.00  0.00     0.065 H 
ATOM     21  H10 <0> d           4.367   1.783   0.241  0.00  0.00     0.065 H 
ATOM     22  H11 <0> d           3.721   1.855  -1.409  0.00  0.00     0.065 H 
ENDROOT
TORSDOF 0
