REMARK  4 active torsions:
REMARK  status: ('A' for Active; 'I' for Inactive)
REMARK    1  A    between atoms: C1_1  and  N1_2 
REMARK    2  A    between atoms: N1_2  and  C2_3 
REMARK    3  A    between atoms: C6_8  and  O1_9 
REMARK    4  A    between atoms: O1_9  and  C7_10 
ROOT
ATOM      1  C2  <0> d           0.608  -0.690  -1.057  0.00  0.00     0.081 A 
ATOM      2  C3  <0> d           1.198   0.008  -2.104  0.00  0.00    -0.052 A 
ATOM      3  C4  <0> d           1.786  -0.716  -3.131  0.00  0.00    -0.064 A 
ATOM      4  C5  <0> d           1.768  -2.095  -3.084  0.00  0.00     0.005 A 
ATOM      5  N2  <0> d           1.200  -2.733  -2.078  0.00  0.00    -0.235 NA
ATOM      6  C6  <0> d           0.632  -2.085  -1.076  0.00  0.00     0.190 A 
ATOM      7  H5  <0> d           1.199   1.088  -2.117  0.00  0.00     0.087 H 
ATOM      8  H6  <0> d           2.254  -0.204  -3.960  0.00  0.00     0.085 H 
ATOM      9  H7  <0> d           2.224  -2.661  -3.883  0.00  0.00     0.114 H 
ENDROOT
BRANCH   1  10
ATOM     10  N1  <0> d           0.002  -0.004   0.002  0.00  0.00    -0.391 N 
ATOM     11  H4  <0> d          -0.404  -0.499   0.731  0.00  0.00     0.159 HD
BRANCH  10  12
ATOM     12  C1  <0> d          -0.018   1.461   0.010  0.00  0.00    -0.021 C 
ATOM     13  H1  <0> d           1.005   1.838   0.002  0.00  0.00     0.056 H 
ATOM     14  H2  <0> d          -0.545   1.822  -0.873  0.00  0.00     0.056 H 
ATOM     15  H3  <0> d          -0.528   1.812   0.907  0.00  0.00     0.056 H 
ENDBRANCH  10  12
ENDBRANCH   1  10
BRANCH   6  16
ATOM     16  O1  <0> d           0.065  -2.782  -0.058  0.00  0.00    -0.338 OA
BRANCH  16  17
ATOM     17  C7  <0> d           0.124  -4.207  -0.136  0.00  0.00     0.012 C 
ATOM     18  H8  <0> d          -0.365  -4.640   0.737  0.00  0.00     0.067 H 
ATOM     19  H9  <0> d          -0.384  -4.543  -1.040  0.00  0.00     0.067 H 
ATOM     20  H10 <0> d           1.166  -4.527  -0.165  0.00  0.00     0.067 H 
ENDBRANCH  16  17
ENDBRANCH   6  16
TORSDOF 4
