REMARK  6 active torsions:
REMARK  status: ('A' for Active; 'I' for Inactive)
REMARK    1  A    between atoms: C1_1  and  C2_2 
REMARK    2  A    between atoms: C2_2  and  C3_4 
REMARK    3  A    between atoms: C3_4  and  O2_5 
REMARK    4  A    between atoms: C3_4  and  O3_7 
REMARK    5  A    between atoms: O2_5  and  C4_6 
REMARK    6  A    between atoms: O3_7  and  C5_8 
ROOT
ATOM      1  C3  <0> d          -0.211   0.864   0.274  0.00  0.00     0.187 C 
ATOM      2  H4  <0> d          -0.300  -0.102   0.519  0.00  0.00     0.141 H 
ENDROOT
BRANCH   1   3
ATOM      3  C2  <0> d          -1.127   1.688   1.142  0.00  0.00     0.177 C 
ATOM      4  O1  <0> d          -2.259   1.910   0.786  0.00  0.00    -0.293 OA
BRANCH   3   5
ATOM      5  C1  <0> d          -0.629   2.236   2.454  0.00  0.00    -0.016 C 
ATOM      6  H1  <0> d           0.322   1.960   2.592  0.00  0.00     0.037 H 
ATOM      7  H2  <0> d          -0.693   3.324   2.442  0.00  0.00     0.037 H 
ATOM      8  H3  <0> d          -1.242   1.846   3.267  0.00  0.00     0.037 H 
ENDBRANCH   3   5
ENDBRANCH   1   3
BRANCH   1   9
ATOM      9  O2  <0> d           1.140   1.284   0.472  0.00  0.00    -0.359 OA
BRANCH   9  10
ATOM     10  C4  <0> d           2.114   0.330   0.046  0.00  0.00     0.007 C 
ATOM     11  H5  <0> d           1.861  -0.652   0.446  0.00  0.00     0.066 H 
ATOM     12  H6  <0> d           2.127   0.286  -1.043  0.00  0.00     0.066 H 
ATOM     13  H7  <0> d           3.098   0.627   0.409  0.00  0.00     0.066 H 
ENDBRANCH   9  10
ENDBRANCH   1   9
BRANCH   1  14
ATOM     14  O3  <0> d          -0.569   1.041  -1.098  0.00  0.00    -0.359 OA
BRANCH  14  15
ATOM     15  C5  <0> d          -0.021   0.054  -1.974  0.00  0.00     0.007 C 
ATOM     16  H8  <0> d          -0.083  -0.926  -1.501  0.00  0.00     0.066 H 
ATOM     17  H9  <0> d          -0.584   0.043  -2.907  0.00  0.00     0.066 H 
ATOM     18  H10 <0> d           1.022   0.292  -2.182  0.00  0.00     0.066 H 
ENDBRANCH  14  15
ENDBRANCH   1  14
TORSDOF 6
