REMARK  0 active torsions:
REMARK  status: ('A' for Active; 'I' for Inactive)
ROOT
ATOM      1  C1  <0> d          -1.230   2.408   0.021  0.00  0.00     0.041 A 
ATOM      2  C2  <0> d          -0.021   1.732   0.012  0.00  0.00     0.145 A 
ATOM      3  N1  <0> d           1.115   2.409   0.004  0.00  0.00    -0.222 NA
ATOM      4  C3  <0> d           1.096   3.731   0.012  0.00  0.00     0.145 A 
ATOM      5  C4  <0> d          -0.114   4.406   0.027  0.00  0.00     0.041 A 
ATOM      6  N2  <0> d          -1.248   3.729   0.034  0.00  0.00    -0.267 NA
ATOM      7 Cl1  <0> d           2.587   4.621   0.002  0.00  0.00    -0.061 Cl
ATOM      8 Cl2  <0> d           0.002  -0.004   0.002  0.00  0.00    -0.061 Cl
ATOM      9  H1  <0> d          -2.158   1.855   0.022  0.00  0.00     0.119 H 
ATOM     10  H2  <0> d          -0.129   5.486   0.033  0.00  0.00     0.119 H 
ENDROOT
TORSDOF 0
