REMARK  4 active torsions:
REMARK  status: ('A' for Active; 'I' for Inactive)
REMARK    1  A    between atoms: C1_1  and  C2_2 
REMARK    2  A    between atoms: C5_7  and  C8_11 
REMARK    3  A    between atoms: C8_11  and  C9_12 
REMARK    4  A    between atoms: C8_11  and  C10_13 
ROOT
ATOM      1  C2  <0> d          -0.597   3.482   1.389  0.00  0.00     0.005 C 
ATOM      2  H1  <0> d          -0.252   4.319   0.963  0.00  0.00     0.051 H 
ATOM      3  C3  <0> d           0.419   2.330   1.249  0.00  0.00    -0.036 A 
ATOM      4  H2  <0> d           0.757   1.834   2.159  0.00  0.00     0.042 H 
ATOM      5  C4  <0> d           1.304   2.295   0.002  0.00  0.00    -0.052 A 
ATOM      6  C5  <0> d          -0.019   1.526   0.010  0.00  0.00    -0.026 A 
ATOM      7  C6  <0> d          -1.271   2.224  -0.560  0.00  0.00    -0.002 C 
ATOM      8  C7  <0> d          -1.844   2.977   0.670  0.00  0.00     0.131 C 
ATOM      9  O1  <0> d          -3.001   3.129   0.981  0.00  0.00    -0.298 OA
ATOM     10  H6  <0> d           2.224   1.712   0.055  0.00  0.00     0.034 H 
ATOM     11  H7  <0> d           1.355   3.200  -0.603  0.00  0.00     0.034 H 
ATOM     12  H8  <0> d          -1.001   2.841  -1.299  0.00  0.00     0.045 H 
ATOM     13  H9  <0> d          -1.974   1.488  -0.948  0.00  0.00     0.045 H 
ENDROOT
BRANCH   6  14
ATOM     14  C8  <0> d           0.002  -0.004   0.002  0.00  0.00    -0.053 C 
ATOM     15  H10 <0> d          -0.649  -0.381   0.791  0.00  0.00     0.040 H 
BRANCH  14  16
ATOM     16  C9  <0> d          -0.492  -0.513  -1.354  0.00  0.00    -0.072 C 
ATOM     17  H11 <0> d          -0.477  -1.603  -1.360  0.00  0.00     0.028 H 
ATOM     18  H12 <0> d          -1.510  -0.163  -1.524  0.00  0.00     0.028 H 
ATOM     19  H13 <0> d           0.159  -0.137  -2.142  0.00  0.00     0.028 H 
ENDBRANCH  14  16
BRANCH  14  20
ATOM     20  C10 <0> d           1.431  -0.496   0.242  0.00  0.00    -0.072 C 
ATOM     21  H14 <0> d           1.783  -0.133   1.208  0.00  0.00     0.028 H 
ATOM     22  H15 <0> d           1.446  -1.586   0.236  0.00  0.00     0.028 H 
ATOM     23  H16 <0> d           2.082  -0.119  -0.547  0.00  0.00     0.028 H 
ENDBRANCH  14  20
ENDBRANCH   6  14
BRANCH   1  24
ATOM     24  C1  <0> d          -0.902   3.750   2.864  0.00  0.00    -0.066 C 
ATOM     25  H3  <0> d           0.017   4.024   3.382  0.00  0.00     0.028 H 
ATOM     26  H4  <0> d          -1.621   4.566   2.945  0.00  0.00     0.028 H 
ATOM     27  H5  <0> d          -1.321   2.852   3.318  0.00  0.00     0.028 H 
ENDBRANCH   1  24
TORSDOF 4
