REMARK  0 active torsions:
REMARK  status: ('A' for Active; 'I' for Inactive)
ROOT
ATOM      1  C1  <0> d          -0.017   1.374   0.010  0.00  0.00    -0.060 A 
ATOM      2  C2  <0> d           0.002  -0.004   0.002  0.00  0.00    -0.044 A 
ATOM      3  C3  <0> d           1.210  -0.683  -0.013  0.00  0.00     0.116 A 
ATOM      4  C4  <0> d           2.406   0.018  -0.020  0.00  0.00    -0.044 A 
ATOM      5  C5  <0> d           2.400   1.397  -0.013  0.00  0.00    -0.060 A 
ATOM      6  C6  <0> d           1.185   2.086   0.002  0.00  0.00     0.044 A 
ATOM      7  C7  <0> d           1.172   3.518   0.009  0.00  0.00     0.099 C 
ATOM      8  N1  <0> d           1.161   4.654   0.015  0.00  0.00    -0.191 NA
ATOM      9  F1  <0> d           1.223  -2.034  -0.021  0.00  0.00    -0.206 F 
ATOM     10  H1  <0> d          -0.959   1.903   0.017  0.00  0.00     0.086 H 
ATOM     11  H2  <0> d          -0.926  -0.556   0.008  0.00  0.00     0.088 H 
ATOM     12  H3  <0> d           3.345  -0.516  -0.032  0.00  0.00     0.088 H 
ATOM     13  H4  <0> d           3.332   1.942  -0.018  0.00  0.00     0.086 H 
ENDROOT
TORSDOF 0
