REMARK  2 active torsions:
REMARK  status: ('A' for Active; 'I' for Inactive)
REMARK    1  A    between atoms: C1_1  and  C2_2 
REMARK    2  A    between atoms: C2_2  and  C3_3 
ROOT
ATOM      1  C3  <0> d          -1.412  -0.526   0.013  0.00  0.00    -0.053 A 
ATOM      2  C4  <0> d          -2.050  -0.766   1.215  0.00  0.00    -0.040 A 
ATOM      3  C5  <0> d          -3.349  -1.246   1.226  0.00  0.00     0.119 A 
ATOM      4  C6  <0> d          -4.008  -1.484   0.032  0.00  0.00    -0.009 A 
ATOM      5  C7  <0> d          -3.368  -1.243  -1.171  0.00  0.00     0.119 A 
ATOM      6  C8  <0> d          -2.071  -0.758  -1.179  0.00  0.00    -0.040 A 
ATOM      7  F1  <0> d          -4.010  -1.475  -2.337  0.00  0.00    -0.206 F 
ATOM      8  F2  <0> d          -3.973  -1.481   2.401  0.00  0.00    -0.206 F 
ATOM      9  H6  <0> d          -1.536  -0.580   2.146  0.00  0.00     0.089 H 
ATOM     10  H7  <0> d          -5.021  -1.859   0.040  0.00  0.00     0.092 H 
ATOM     11  H8  <0> d          -1.573  -0.566  -2.118  0.00  0.00     0.089 H 
ENDROOT
BRANCH   1  12
ATOM     12  C2  <0> d           0.002  -0.004   0.002  0.00  0.00    -0.044 C 
ATOM     13  H4  <0> d           0.512  -0.356  -0.895  0.00  0.00     0.039 H 
ATOM     14  H5  <0> d           0.529  -0.365   0.885  0.00  0.00     0.039 H 
BRANCH  12  15
ATOM     15  C1  <0> d          -0.019   1.526   0.010  0.00  0.00    -0.073 C 
ATOM     16  H1  <0> d           1.004   1.903   0.003  0.00  0.00     0.028 H 
ATOM     17  H2  <0> d          -0.546   1.887  -0.873  0.00  0.00     0.028 H 
ATOM     18  H3  <0> d          -0.529   1.877   0.907  0.00  0.00     0.028 H 
ENDBRANCH  12  15
ENDBRANCH   1  12
TORSDOF 2
