REMARK  4 active torsions:
REMARK  status: ('A' for Active; 'I' for Inactive)
REMARK    1  A    between atoms: C1_1  and  C2_2 
REMARK    2  A    between atoms: C2_2  and  O1_13 
REMARK    3  A    between atoms: C8_10  and  C9_11 
REMARK    4  A    between atoms: C8_10  and  C10_12 
ROOT
ATOM      1  C2  <0> d           0.039  -0.087  -0.051  0.00  0.00     0.065 C 
ATOM      2  C3  <0> d           0.940  -0.630  -1.201  0.00  0.00    -0.024 C 
ATOM      3  H1  <0> d           0.817  -0.148  -2.171  0.00  0.00     0.044 H 
ATOM      4  C4  <0> d           0.720  -2.174  -1.174  0.00  0.00    -0.059 C 
ATOM      5  C5  <0> d           1.416  -2.645   0.124  0.00  0.00    -0.060 C 
ATOM      6  C6  <0> d           1.991  -1.341   0.758  0.00  0.00    -0.044 C 
ATOM      7  H2  <0> d           2.792  -1.478   1.484  0.00  0.00     0.041 H 
ATOM      8  C7  <0> d           2.359  -0.507  -0.541  0.00  0.00    -0.055 C 
ATOM      9  C8  <0> d           0.746  -0.540   1.247  0.00  0.00    -0.013 C 
ATOM     10  H6  <0> d          -0.345  -2.405  -1.140  0.00  0.00     0.033 H 
ATOM     11  H7  <0> d           1.183  -2.639  -2.044  0.00  0.00     0.033 H 
ATOM     12  H8  <0> d           0.693  -3.107   0.796  0.00  0.00     0.033 H 
ATOM     13  H9  <0> d           2.221  -3.342  -0.109  0.00  0.00     0.033 H 
ATOM     14  H10 <0> d           3.129  -1.001  -1.133  0.00  0.00     0.034 H 
ATOM     15  H11 <0> d           2.619   0.528  -0.321  0.00  0.00     0.034 H 
ENDROOT
BRANCH   9  16
ATOM     16  C9  <0> d          -0.167  -1.463   2.057  0.00  0.00    -0.066 C 
ATOM     17  H12 <0> d          -0.545  -2.257   1.412  0.00  0.00     0.028 H 
ATOM     18  H13 <0> d           0.398  -1.901   2.880  0.00  0.00     0.028 H 
ATOM     19  H14 <0> d          -1.003  -0.889   2.455  0.00  0.00     0.028 H 
ENDBRANCH   9  16
BRANCH   9  20
ATOM     20  C10 <0> d           1.155   0.674   2.083  0.00  0.00    -0.066 C 
ATOM     21  H15 <0> d           0.269   1.251   2.345  0.00  0.00     0.028 H 
ATOM     22  H16 <0> d           1.652   0.338   2.993  0.00  0.00     0.028 H 
ATOM     23  H17 <0> d           1.838   1.299   1.506  0.00  0.00     0.028 H 
ENDBRANCH   9  20
BRANCH   1  24
ATOM     24  C1  <0> d          -0.040   1.440  -0.111  0.00  0.00    -0.047 C 
ATOM     25  H3  <0> d           0.968   1.857  -0.091  0.00  0.00     0.031 H 
ATOM     26  H4  <0> d          -0.540   1.743  -1.030  0.00  0.00     0.031 H 
ATOM     27  H5  <0> d          -0.602   1.809   0.747  0.00  0.00     0.031 H 
ENDBRANCH   1  24
BRANCH   1  28
ATOM     28  O1  <0> d          -1.270  -0.655  -0.130  0.00  0.00    -0.389 OA
ATOM     29  H18 <0> d          -1.751  -0.424  -0.936  0.00  0.00     0.210 HD
ENDBRANCH   1  28
TORSDOF 4
