REMARK  0 active torsions:
REMARK  status: ('A' for Active; 'I' for Inactive)
ROOT
ATOM      1  C1  <0> d          -0.017   1.410   0.010  0.00  0.00    -0.019 A 
ATOM      2  C2  <0> d           1.141   2.105   0.003  0.00  0.00     0.005 A 
ATOM      3  N1  <0> d           2.357   1.550  -0.012  0.00  0.00    -0.274 NA
ATOM      4  C3  <0> d           2.564   0.271  -0.021  0.00  0.00     0.019 A 
ATOM      5  C4  <0> d           1.371  -0.662  -0.015  0.00  0.00     0.165 A 
ATOM      6  H1  <0> d           1.448  -1.306   0.862  0.00  0.00     0.109 H 
ATOM      7  C5  <0> d           0.002  -0.004   0.002  0.00  0.00     0.187 A 
ATOM      8  O1  <0> d          -1.022  -0.657   0.008  0.00  0.00    -0.290 OA
ATOM      9  O2  <0> d           1.447  -1.490  -1.177  0.00  0.00    -0.221 OA
ATOM     10  H2  <0> d          -0.960   1.935   0.026  0.00  0.00     0.091 H 
ATOM     11  H3  <0> d           1.081   3.183   0.009  0.00  0.00     0.114 H 
ATOM     12  H4  <0> d           3.570  -0.122  -0.033  0.00  0.00     0.112 H 
ENDROOT
TORSDOF 0
