REMARK  8 active torsions:
REMARK  status: ('A' for Active; 'I' for Inactive)
REMARK    1  A    between atoms: C1_1  and  C2_2 
REMARK    2  A    between atoms: C2_2  and  C3_4 
REMARK    3  A    between atoms: C2_2  and  O2_6 
REMARK    4  A    between atoms: C3_4  and  O1_5 
REMARK    5  A    between atoms: O2_6  and  C4_7 
REMARK    6  A    between atoms: C4_7  and  C5_9 
REMARK    7  A    between atoms: C4_7  and  C6_10 
REMARK    8  A    between atoms: C6_10  and  O3_11 
ROOT
ATOM      1  O2  <0> d          -0.647   3.004   1.334  0.00  0.00    -0.377 OA
ENDROOT
BRANCH   1   2
ATOM      2  C2  <0> d          -0.729   1.579   1.267  0.00  0.00     0.056 C 
ATOM      3  H1  <0> d          -0.255   1.146   2.148  0.00  0.00     0.086 H 
BRANCH   2   4
ATOM      4  C1  <0> d          -2.198   1.155   1.217  0.00  0.00    -0.050 C 
ATOM      5  H3  <0> d          -2.708   1.506   2.114  0.00  0.00     0.031 H 
ATOM      6  H4  <0> d          -2.672   1.588   0.336  0.00  0.00     0.031 H 
ATOM      7  H5  <0> d          -2.261   0.068   1.166  0.00  0.00     0.031 H 
ENDBRANCH   2   4
BRANCH   2   8
ATOM      8  C3  <0> d          -0.013   1.086   0.008  0.00  0.00     0.040 C 
ATOM      9  H6  <0> d           0.002  -0.004   0.002  0.00  0.00     0.077 H 
ATOM     10  H7  <0> d           1.010   1.463   0.000  0.00  0.00     0.077 H 
BRANCH   8  11
ATOM     11  O1  <0> d          -0.704   1.559  -1.150  0.00  0.00    -0.398 OA
ATOM     12  H8  <0> d          -0.304   1.284  -1.986  0.00  0.00     0.209 HD
ENDBRANCH   8  11
ENDBRANCH   2   8
ENDBRANCH   1   2
BRANCH   1  13
ATOM     13  C4  <0> d          -0.640   3.524   2.665  0.00  0.00     0.056 C 
ATOM     14  H2  <0> d          -1.205   2.859   3.318  0.00  0.00     0.086 H 
BRANCH  13  15
ATOM     15  C5  <0> d           0.802   3.626   3.166  0.00  0.00    -0.050 C 
ATOM     16  H9  <0> d           1.367   4.291   2.513  0.00  0.00     0.031 H 
ATOM     17  H10 <0> d           0.807   4.022   4.181  0.00  0.00     0.031 H 
ATOM     18  H11 <0> d           1.259   2.636   3.160  0.00  0.00     0.031 H 
ENDBRANCH  13  15
BRANCH  13  19
ATOM     19  C6  <0> d          -1.282   4.913   2.673  0.00  0.00     0.040 C 
ATOM     20  H12 <0> d          -2.278   4.856   2.234  0.00  0.00     0.077 H 
ATOM     21  H13 <0> d          -1.357   5.272   3.700  0.00  0.00     0.077 H 
BRANCH  19  22
ATOM     22  O3  <0> d          -0.476   5.814   1.911  0.00  0.00    -0.398 OA
ATOM     23  H14 <0> d          -0.823   6.716   1.873  0.00  0.00     0.209 HD
ENDBRANCH  19  22
ENDBRANCH  13  19
ENDBRANCH   1  13
TORSDOF 8
