REMARK  2 active torsions:
REMARK  status: ('A' for Active; 'I' for Inactive)
REMARK    1  A    between atoms: C1_1  and  C2_2 
REMARK    2  A    between atoms: C2_2  and  C3_3 
ROOT
ATOM      1  C3  <0> d           0.731  -0.503   1.223  0.00  0.00     0.170 A 
ATOM      2  N1  <0> d           1.253   0.243   2.139  0.00  0.00    -0.149 NA
ATOM      3  N2  <0> d           1.835  -0.598   3.099  0.00  0.00    -0.220 N 
ATOM      4  H1  <0> d           2.301  -0.322   3.904  0.00  0.00     0.194 HD
ATOM      5  C4  <0> d           1.621  -1.865   2.687  0.00  0.00     0.387 A 
ATOM      6  O1  <0> d           1.978  -2.880   3.257  0.00  0.00    -0.236 OA
ATOM      7  O2  <0> d           0.936  -1.799   1.533  0.00  0.00    -0.243 OA
ENDROOT
BRANCH   1   8
ATOM      8  C2  <0> d           0.002  -0.004   0.002  0.00  0.00    -0.005 C 
ATOM      9  H5  <0> d          -1.020  -0.381   0.010  0.00  0.00     0.044 H 
ATOM     10  H6  <0> d           0.512  -0.356  -0.895  0.00  0.00     0.044 H 
BRANCH   8  11
ATOM     11  C1  <0> d          -0.019   1.526   0.010  0.00  0.00    -0.069 C 
ATOM     12  H2  <0> d           1.004   1.903   0.003  0.00  0.00     0.028 H 
ATOM     13  H3  <0> d          -0.546   1.887  -0.873  0.00  0.00     0.028 H 
ATOM     14  H4  <0> d          -0.529   1.877   0.907  0.00  0.00     0.028 H 
ENDBRANCH   8  11
ENDBRANCH   1   8
TORSDOF 2
