REMARK  2 active torsions:
REMARK  status: ('A' for Active; 'I' for Inactive)
REMARK    1  A    between atoms: N3_5  and  N4_6 
REMARK       I    between atoms: N4_6  and  C3_7 
REMARK    2  A    between atoms: C3_7  and  C4_9 
ROOT
ATOM      1  C4  <0> d          -2.115  -3.120   0.005  0.00  0.00     0.090 C 
ATOM      2  C5  <0> d          -1.653  -4.518  -0.006  0.00  0.00     0.068 C 
ATOM      3  N5  <0> d          -1.297  -5.596  -0.016  0.00  0.00    -0.197 NA
ATOM      4  H4  <0> d          -2.708  -2.941   0.902  0.00  0.00     0.069 H 
ATOM      5  H5  <0> d          -2.725  -2.932  -0.878  0.00  0.00     0.069 H 
ENDROOT
BRANCH   1   6
ATOM      6  C3  <0> d          -0.924  -2.197  -0.001  0.00  0.00     0.249 C 
ATOM      7  N4  <0> d          -1.105  -0.862   0.008  0.00  0.00    -0.261 N 
ATOM      8  H3  <0> d          -2.003  -0.495   0.018  0.00  0.00     0.190 HD
ATOM      9  O1  <0> d           0.199  -2.656  -0.014  0.00  0.00    -0.271 OA
BRANCH   7  10
ATOM     10  N3  <0> d           0.002  -0.004   0.002  0.00  0.00    -0.237 N 
ATOM     11  C1  <0> d          -0.016   1.351   0.009  0.00  0.00     0.108 A 
ATOM     12  N1  <0> d           1.224   1.756  -0.000  0.00  0.00    -0.142 NA
ATOM     13  H1  <0> d          -0.895   1.979   0.017  0.00  0.00     0.149 H 
ATOM     14  N2  <0> d           2.012   0.739  -0.013  0.00  0.00    -0.142 NA
ATOM     15  C2  <0> d           1.309  -0.361  -0.012  0.00  0.00     0.108 A 
ATOM     16  H2  <0> d           1.698  -1.368  -0.021  0.00  0.00     0.149 H 
ENDBRANCH   7  10
ENDBRANCH   1   6
TORSDOF 2
