REMARK  1 active torsions:
REMARK  status: ('A' for Active; 'I' for Inactive)
REMARK    1  A    between atoms: C4_6  and  C5_7 
ROOT
ATOM      1  C1  <0> d          -0.017   1.377   0.010  0.00  0.00    -0.014 A 
ATOM      2  C2  <0> d           1.308   1.817  -0.001  0.00  0.00     0.125 A 
ATOM      3  C3  <0> d           2.126   0.691  -0.015  0.00  0.00     0.164 A 
ATOM      4  N1  <0> d           1.322  -0.417  -0.012  0.00  0.00    -0.333 N 
ATOM      5  H1  <0> d           1.627  -1.338  -0.020  0.00  0.00     0.168 HD
ATOM      6  C4  <0> d           0.002  -0.004   0.002  0.00  0.00     0.114 A 
ATOM      7  N2  <0> d           3.397   1.134  -0.025  0.00  0.00    -0.216 NA
ATOM      8  C6  <0> d           3.394   2.437  -0.018  0.00  0.00     0.106 A 
ATOM      9  O3  <0> d           2.133   2.889  -0.003  0.00  0.00    -0.300 OA
ATOM     10  H2  <0> d          -0.896   2.003   0.025  0.00  0.00     0.091 H 
ATOM     11  H3  <0> d           4.277   3.059  -0.023  0.00  0.00     0.155 H 
ENDROOT
BRANCH   6  12
ATOM     12  C5  <0> d          -1.133  -0.850   0.009  0.00  0.00     0.227 C 
ATOM     13  O1  <0> d          -0.991  -2.067   0.001  0.00  0.00    -0.643 OA
ATOM     14  O2  <0> d          -2.259  -0.366   0.022  0.00  0.00    -0.643 OA
ENDBRANCH   6  12
TORSDOF 1
