REMARK  3 active torsions:
REMARK  status: ('A' for Active; 'I' for Inactive)
REMARK    1  A    between atoms: C1_1  and  C2_2 
REMARK    2  A    between atoms: C2_2  and  C3_4 
REMARK    3  A    between atoms: N3_8  and  C5_9 
ROOT
ATOM      1  C3  <0> d          -1.302   2.220   0.020  0.00  0.00     0.193 A 
ATOM      2  N1  <0> d          -2.508   1.677   0.024  0.00  0.00    -0.218 NA
ATOM      3  C4  <0> d          -3.390   2.669   0.033  0.00  0.00     0.108 A 
ATOM      4  N2  <0> d          -2.741   3.807   0.036  0.00  0.00    -0.164 NA
ATOM      5  N3  <0> d          -1.474   3.569   0.034  0.00  0.00    -0.253 N 
ATOM      6  H4  <0> d          -4.464   2.557   0.039  0.00  0.00     0.149 H 
ENDROOT
BRANCH   1   7
ATOM      7  C2  <0> d          -0.018   1.503   0.010  0.00  0.00     0.192 C 
ATOM      8  O1  <0> d           1.024   2.123   0.004  0.00  0.00    -0.289 OA
BRANCH   7   9
ATOM      9  C1  <0> d           0.002  -0.004   0.002  0.00  0.00    -0.014 C 
ATOM     10  H1  <0> d           0.949  -0.325  -0.009  0.00  0.00     0.038 H 
ATOM     11  H2  <0> d          -0.498  -0.379   0.895  0.00  0.00     0.038 H 
ATOM     12  H3  <0> d          -0.515  -0.370  -0.885  0.00  0.00     0.038 H 
ENDBRANCH   7   9
ENDBRANCH   1   7
BRANCH   5  13
ATOM     13  C5  <0> d          -0.408   4.574   0.042  0.00  0.00     0.004 C 
ATOM     14  H5  <0> d          -0.146   4.833  -0.984  0.00  0.00     0.059 H 
ATOM     15  H6  <0> d          -0.753   5.465   0.565  0.00  0.00     0.059 H 
ATOM     16  H7  <0> d           0.468   4.171   0.550  0.00  0.00     0.059 H 
ENDBRANCH   5  13
TORSDOF 3
