REMARK  9 active torsions:
REMARK  status: ('A' for Active; 'I' for Inactive)
REMARK    1  A    between atoms: C1_1  and  C2_2 
REMARK    2  A    between atoms: C2_2  and  C3_3 
REMARK    3  A    between atoms: C3_3  and  C4_4 
REMARK    4  A    between atoms: C4_4  and  C5_6 
REMARK    5  A    between atoms: C4_4  and  O2_11 
REMARK    6  A    between atoms: C5_6  and  C6_7 
REMARK    7  A    between atoms: C6_7  and  C7_8 
REMARK    8  A    between atoms: C7_8  and  O1_9 
REMARK    9  A    between atoms: O1_9  and  C8_10 
ROOT
ATOM      1  C4  <0> d          -1.413  -2.063   0.004  0.00  0.00     0.035 C 
ATOM      2  H1  <0> d          -0.810  -2.423   0.839  0.00  0.00     0.082 H 
ENDROOT
BRANCH   1   3
ATOM      3  C3  <0> d          -1.433  -0.534   0.013  0.00  0.00    -0.041 C 
ATOM      4  H7  <0> d          -1.944  -0.182   0.910  0.00  0.00     0.036 H 
ATOM      5  H8  <0> d          -1.960  -0.173  -0.870  0.00  0.00     0.036 H 
BRANCH   3   6
ATOM      6  C2  <0> d           0.002  -0.004   0.002  0.00  0.00    -0.066 C 
ATOM      7  H5  <0> d           0.512  -0.356  -0.895  0.00  0.00     0.032 H 
ATOM      8  H6  <0> d           0.529  -0.365   0.885  0.00  0.00     0.032 H 
BRANCH   6   9
ATOM      9  C1  <0> d          -0.019   1.526   0.010  0.00  0.00    -0.076 C 
ATOM     10  H2  <0> d           1.004   1.903   0.003  0.00  0.00     0.027 H 
ATOM     11  H3  <0> d          -0.546   1.887  -0.873  0.00  0.00     0.027 H 
ATOM     12  H4  <0> d          -0.529   1.877   0.907  0.00  0.00     0.027 H 
ENDBRANCH   6   9
ENDBRANCH   3   6
ENDBRANCH   1   3
BRANCH   1  13
ATOM     13  C5  <0> d          -2.841  -2.594   0.141  0.00  0.00    -0.039 C 
ATOM     14  H9  <0> d          -3.302  -2.170   1.033  0.00  0.00     0.036 H 
ATOM     15  H10 <0> d          -3.420  -2.308  -0.737  0.00  0.00     0.036 H 
BRANCH  13  16
ATOM     16  C6  <0> d          -2.810  -4.119   0.258  0.00  0.00    -0.043 C 
ATOM     17  H11 <0> d          -2.349  -4.542  -0.634  0.00  0.00     0.036 H 
ATOM     18  H12 <0> d          -2.231  -4.404   1.136  0.00  0.00     0.036 H 
BRANCH  16  19
ATOM     19  C7  <0> d          -4.239  -4.649   0.394  0.00  0.00     0.019 C 
ATOM     20  H13 <0> d          -4.700  -4.226   1.287  0.00  0.00     0.074 H 
ATOM     21  H14 <0> d          -4.818  -4.364  -0.484  0.00  0.00     0.074 H 
BRANCH  19  22
ATOM     22  O1  <0> d          -4.210  -6.074   0.504  0.00  0.00    -0.396 OA
BRANCH  22  23
ATOM     23  C8  <0> d          -5.500  -6.673   0.636  0.00  0.00     0.004 C 
ATOM     24  H15 <0> d          -5.393  -7.755   0.714  0.00  0.00     0.066 H 
ATOM     25  H16 <0> d          -5.988  -6.291   1.534  0.00  0.00     0.066 H 
ATOM     26  H17 <0> d          -6.106  -6.429  -0.237  0.00  0.00     0.066 H 
ENDBRANCH  22  23
ENDBRANCH  19  22
ENDBRANCH  16  19
ENDBRANCH  13  16
ENDBRANCH   1  13
BRANCH   1  27
ATOM     27  O2  <0> d          -0.849  -2.526  -1.224  0.00  0.00    -0.396 OA
ATOM     28  H18 <0> d          -1.334  -2.242  -2.011  0.00  0.00     0.210 HD
ENDBRANCH   1  27
TORSDOF 9
