REMARK  3 active torsions:
REMARK  status: ('A' for Active; 'I' for Inactive)
REMARK    1  A    between atoms: C1_1  and  N1_2 
REMARK    2  A    between atoms: N1_2  and  C2_3 
REMARK    3  A    between atoms: N1_2  and  C3_4 
ROOT
ATOM      1  C3  <0> d           1.146   3.167   0.006  0.00  0.00     0.032 A 
ATOM      2  C4  <0> d           1.177   1.773  -0.014  0.00  0.00    -0.041 A 
ATOM      3  C5  <0> d          -0.013   1.076  -0.007  0.00  0.00     0.004 A 
ATOM      4  N2  <0> d          -1.169   1.712   0.014  0.00  0.00    -0.273 NA
ATOM      5  C6  <0> d          -1.241   3.029   0.039  0.00  0.00     0.004 A 
ATOM      6  C7  <0> d          -0.097   3.800   0.033  0.00  0.00    -0.041 A 
ATOM      7  H7  <0> d           2.120   1.246  -0.035  0.00  0.00     0.089 H 
ATOM      8  H8  <0> d           0.002  -0.004  -0.023  0.00  0.00     0.114 H 
ATOM      9  H9  <0> d          -2.207   3.510   0.059  0.00  0.00     0.114 H 
ATOM     10  H10 <0> d          -0.163   4.877   0.050  0.00  0.00     0.089 H 
ENDROOT
BRANCH   1  11
ATOM     11  N1  <0> d           2.324   3.908  -0.000  0.00  0.00    -0.389 N 
BRANCH  11  12
ATOM     12  C1  <0> d           3.618   3.227   0.096  0.00  0.00    -0.019 C 
ATOM     13  H1  <0> d           3.977   2.988  -0.905  0.00  0.00     0.056 H 
ATOM     14  H2  <0> d           4.336   3.879   0.593  0.00  0.00     0.056 H 
ATOM     15  H3  <0> d           3.503   2.308   0.670  0.00  0.00     0.056 H 
ENDBRANCH  11  12
BRANCH  11  16
ATOM     16  C2  <0> d           2.271   5.368  -0.103  0.00  0.00    -0.019 C 
ATOM     17  H4  <0> d           1.232   5.697  -0.074  0.00  0.00     0.056 H 
ATOM     18  H5  <0> d           2.815   5.811   0.731  0.00  0.00     0.056 H 
ATOM     19  H6  <0> d           2.725   5.683  -1.042  0.00  0.00     0.056 H 
ENDBRANCH  11  16
ENDBRANCH   1  11
TORSDOF 3
