REMARK  0 active torsions:
REMARK  status: ('A' for Active; 'I' for Inactive)
ROOT
ATOM      1  C1  <0> d           0.755  -2.713   0.089  0.00  0.00    -0.054 C 
ATOM      2  C2  <0> d           1.801  -1.611  -0.076  0.00  0.00    -0.029 C 
ATOM      3  C3  <0> d           1.292  -0.351   0.631  0.00  0.00     0.083 C 
ATOM      4  H1  <0> d           1.159  -0.540   1.696  0.00  0.00     0.107 H 
ATOM      5  N1  <0> d           2.172   0.797   0.422  0.00  0.00    -0.338 N 
ATOM      6  C4  <0> d           1.448   1.855  -0.002  0.00  0.00     0.237 C 
ATOM      7  O1  <0> d           1.892   2.933  -0.335  0.00  0.00    -0.272 OA
ATOM      8  C5  <0> d          -0.018   1.462   0.010  0.00  0.00     0.073 C 
ATOM      9  N2  <0> d           0.002  -0.004   0.002  0.00  0.00    -0.322 N 
ATOM     10  C6  <0> d          -0.878  -0.882  -0.479  0.00  0.00     0.221 C 
ATOM     11  O2  <0> d          -1.964  -0.488  -0.848  0.00  0.00    -0.273 OA
ATOM     12  C7  <0> d          -0.576  -2.348  -0.545  0.00  0.00     0.010 C 
ATOM     13  H2  <0> d           1.129  -3.626  -0.374  0.00  0.00     0.033 H 
ATOM     14  H3  <0> d           0.601  -2.896   1.152  0.00  0.00     0.033 H 
ATOM     15  H4  <0> d           1.950  -1.402  -1.136  0.00  0.00     0.038 H 
ATOM     16  H5  <0> d           2.742  -1.928   0.372  0.00  0.00     0.038 H 
ATOM     17  H6  <0> d           3.131   0.799   0.567  0.00  0.00     0.164 HD
ATOM     18  H7  <0> d          -0.522   1.841  -0.879  0.00  0.00     0.079 H 
ATOM     19  H8  <0> d          -0.505   1.832   0.912  0.00  0.00     0.079 H 
ATOM     20  H9  <0> d          -0.557  -2.646  -1.594  0.00  0.00     0.047 H 
ATOM     21  H10 <0> d          -1.368  -2.901  -0.041  0.00  0.00     0.047 H 
ENDROOT
TORSDOF 0
