REMARK  3 active torsions:
REMARK  status: ('A' for Active; 'I' for Inactive)
REMARK    1  A    between atoms: C1_1  and  C2_2 
REMARK    2  A    between atoms: C2_2  and  C7_12 
REMARK    3  A    between atoms: C3_3  and  C6_9 
REMARK       I    between atoms: C6_9  and  N1_11 
ROOT
ATOM      1  C2  <0> d          -0.750   1.583   1.243  0.00  0.00     0.076 C 
ATOM      2  C3  <0> d          -0.619   3.115   1.370  0.00  0.00     0.061 C 
ATOM      3  H1  <0> d          -1.571   3.604   1.163  0.00  0.00     0.060 H 
ATOM      4  C4  <0> d          -0.221   3.288   2.855  0.00  0.00     0.030 C 
ATOM      5  C5  <0> d           0.432   1.962   3.191  0.00  0.00     0.260 C 
ATOM      6  O1  <0> d           1.294   1.790   4.020  0.00  0.00    -0.265 OA
ATOM      7  O2  <0> d          -0.105   1.012   2.414  0.00  0.00    -0.310 OA
ATOM      8  H5  <0> d          -1.104   3.451   3.474  0.00  0.00     0.049 H 
ATOM      9  H6  <0> d           0.488   4.108   2.970  0.00  0.00     0.049 H 
ENDROOT
BRANCH   1  10
ATOM     10  C1  <0> d          -0.051   1.100  -0.029  0.00  0.00    -0.047 C 
ATOM     11  H2  <0> d          -0.202   0.026  -0.142  0.00  0.00     0.031 H 
ATOM     12  H3  <0> d           1.016   1.312   0.041  0.00  0.00     0.031 H 
ATOM     13  H4  <0> d          -0.468   1.619  -0.892  0.00  0.00     0.031 H 
ENDBRANCH   1  10
BRANCH   1  14
ATOM     14  C7  <0> d          -2.227   1.183   1.212  0.00  0.00    -0.047 C 
ATOM     15  H9  <0> d          -2.309   0.099   1.135  0.00  0.00     0.031 H 
ATOM     16  H10 <0> d          -2.714   1.520   2.127  0.00  0.00     0.031 H 
ATOM     17  H11 <0> d          -2.711   1.646   0.352  0.00  0.00     0.031 H 
ENDBRANCH   1  14
BRANCH   2  18
ATOM     18  C6  <0> d           0.463   3.637   0.460  0.00  0.00     0.223 C 
ATOM     19  O3  <0> d           1.615   3.660   0.839  0.00  0.00    -0.273 OA
ATOM     20  N1  <0> d           0.151   4.078  -0.774  0.00  0.00    -0.370 N 
ATOM     21  H7  <0> d          -0.770   4.060  -1.077  0.00  0.00     0.159 HD
ATOM     22  H8  <0> d           0.847   4.415  -1.360  0.00  0.00     0.159 HD
ENDBRANCH   2  18
TORSDOF 3
