REMARK  4 active torsions:
REMARK  status: ('A' for Active; 'I' for Inactive)
REMARK    1  A    between atoms: C1_1  and  C2_2 
REMARK    2  A    between atoms: C2_2  and  O1_3 
REMARK    3  A    between atoms: O1_3  and  C3_4 
REMARK    4  A    between atoms: C3_4  and  C4_6 
ROOT
ATOM      1  C4  <0> d           0.145   0.983   4.903  0.00  0.00     0.061 A 
ATOM      2  H1  <0> d           0.358  -0.011   4.483  0.00  0.00     0.060 H 
ATOM      3  C5  <0> d          -0.409   1.505   6.229  0.00  0.00    -0.012 A 
ATOM      4  H2  <0> d          -0.843   0.956   7.077  0.00  0.00     0.045 H 
ATOM      5  C6  <0> d           0.941   2.022   5.699  0.00  0.00     0.055 A 
ATOM      6  H3  <0> d           2.003   2.098   5.973  0.00  0.00     0.085 H 
ATOM      7  O3  <0> d           0.767   3.409   5.363  0.00  0.00    -0.385 OA
ATOM      8  C7  <0> d          -0.305   3.911   6.190  0.00  0.00     0.021 C 
ATOM      9  C8  <0> d          -1.346   2.737   6.196  0.00  0.00    -0.039 C 
ATOM     10  H9  <0> d           0.081   4.132   7.196  0.00  0.00     0.074 H 
ATOM     11  H10 <0> d          -0.713   4.830   5.744  0.00  0.00     0.074 H 
ATOM     12  H11 <0> d          -1.968   2.699   5.290  0.00  0.00     0.036 H 
ATOM     13  H12 <0> d          -1.993   2.730   7.085  0.00  0.00     0.036 H 
ENDROOT
BRANCH   1  14
ATOM     14  C3  <0> d          -0.530   1.446   3.638  0.00  0.00     0.266 C 
ATOM     15  O2  <0> d          -0.070   2.369   3.010  0.00  0.00    -0.265 OA
BRANCH  14  16
ATOM     16  O1  <0> d          -1.643   0.831   3.208  0.00  0.00    -0.321 OA
BRANCH  16  17
ATOM     17  C2  <0> d          -2.240   1.329   1.982  0.00  0.00     0.025 C 
ATOM     18  H7  <0> d          -1.516   1.239   1.159  0.00  0.00     0.074 H 
ATOM     19  H8  <0> d          -2.517   2.386   2.112  0.00  0.00     0.074 H 
BRANCH  17  20
ATOM     20  C1  <0> d          -3.490   0.511   1.653  0.00  0.00    -0.056 C 
ATOM     21  H4  <0> d          -3.942   0.888   0.724  0.00  0.00     0.030 H 
ATOM     22  H5  <0> d          -4.214   0.601   2.477  0.00  0.00     0.030 H 
ATOM     23  H6  <0> d          -3.213  -0.546   1.523  0.00  0.00     0.030 H 
ENDBRANCH  17  20
ENDBRANCH  16  17
ENDBRANCH  14  16
ENDBRANCH   1  14
TORSDOF 4
