REMARK  0 active torsions:
REMARK  status: ('A' for Active; 'I' for Inactive)
ROOT
ATOM      1  C1  <0> d           0.817  -0.492  -1.198  0.00  0.00    -0.062 C 
ATOM      2  C2  <0> d           0.002  -0.004   0.002  0.00  0.00    -0.050 C 
ATOM      3  C3  <0> d          -0.019   1.526   0.010  0.00  0.00    -0.002 C 
ATOM      4  N1  <0> d           1.374   2.020  -0.000  0.00  0.00    -0.347 N 
ATOM      5  C4  <0> d           2.264   1.540  -1.049  0.00  0.00     0.014 C 
ATOM      6  H1  <0> d           1.880   1.891  -2.006  0.00  0.00     0.072 H 
ATOM      7  C5  <0> d           2.258   0.008  -1.069  0.00  0.00    -0.046 C 
ATOM      8  C6  <0> d           3.688   2.045  -0.898  0.00  0.00    -0.045 C 
ATOM      9  C7  <0> d           3.719   3.478  -0.386  0.00  0.00    -0.055 C 
ATOM     10  C8  <0> d           3.118   3.479   1.025  0.00  0.00     0.009 C 
ATOM     11  C9  <0> d           1.739   2.885   0.956  0.00  0.00     0.220 C 
ATOM     12  O1  <0> d           0.925   3.203   1.798  0.00  0.00    -0.273 OA
ATOM     13  H2  <0> d           0.811  -1.581  -1.223  0.00  0.00     0.033 H 
ATOM     14  H3  <0> d           0.379  -0.104  -2.118  0.00  0.00     0.033 H 
ATOM     15  H4  <0> d           0.458  -0.367   0.923  0.00  0.00     0.035 H 
ATOM     16  H5  <0> d          -1.018  -0.381  -0.073  0.00  0.00     0.035 H 
ATOM     17  H6  <0> d          -0.542   1.890  -0.874  0.00  0.00     0.064 H 
ATOM     18  H7  <0> d          -0.525   1.880   0.909  0.00  0.00     0.064 H 
ATOM     19  H8  <0> d           2.692  -0.369  -0.143  0.00  0.00     0.036 H 
ATOM     20  H9  <0> d           2.844  -0.347  -1.917  0.00  0.00     0.036 H 
ATOM     21  H10 <0> d           4.226   1.399  -0.205  0.00  0.00     0.036 H 
ATOM     22  H11 <0> d           4.183   2.015  -1.869  0.00  0.00     0.036 H 
ATOM     23  H12 <0> d           3.128   4.123  -1.037  0.00  0.00     0.033 H 
ATOM     24  H13 <0> d           4.747   3.837  -0.348  0.00  0.00     0.033 H 
ATOM     25  H14 <0> d           3.059   4.501   1.397  0.00  0.00     0.047 H 
ATOM     26  H15 <0> d           3.741   2.882   1.691  0.00  0.00     0.047 H 
ENDROOT
TORSDOF 0
