REMARK  1 active torsions:
REMARK  status: ('A' for Active; 'I' for Inactive)
REMARK    1  A    between atoms: C1_1  and  C2_2 
ROOT
ATOM      1  C2  <0> d           2.316   0.034  -0.820  0.00  0.00     0.024 C 
ATOM      2  H1  <0> d           2.030  -0.003  -1.871  0.00  0.00     0.074 H 
ATOM      3  C3  <0> d           1.279  -0.718   0.011  0.00  0.00     0.014 C 
ATOM      4  N1  <0> d           0.002  -0.004   0.002  0.00  0.00    -0.351 N 
ATOM      5  C4  <0> d          -0.016   1.346   0.009  0.00  0.00     0.309 C 
ATOM      6  O1  <0> d          -1.069   1.950   0.018  0.00  0.00    -0.262 OA
ATOM      7  C5  <0> d           1.287   2.084   0.001  0.00  0.00     0.309 C 
ATOM      8  O2  <0> d           1.341   3.248   0.339  0.00  0.00    -0.262 OA
ATOM      9  N2  <0> d           2.401   1.430  -0.391  0.00  0.00    -0.347 N 
ATOM     10  H5  <0> d           1.635  -0.805   1.038  0.00  0.00     0.067 H 
ATOM     11  H6  <0> d           1.138  -1.715  -0.404  0.00  0.00     0.067 H 
ATOM     12  H7  <0> d          -0.831  -0.501  -0.009  0.00  0.00     0.162 HD
ATOM     13  H8  <0> d           3.258   1.885  -0.387  0.00  0.00     0.163 HD
ENDROOT
BRANCH   1  14
ATOM     14  C1  <0> d           3.682  -0.633  -0.648  0.00  0.00    -0.056 C 
ATOM     15  H2  <0> d           3.626  -1.669  -0.983  0.00  0.00     0.030 H 
ATOM     16  H3  <0> d           4.425  -0.099  -1.240  0.00  0.00     0.030 H 
ATOM     17  H4  <0> d           3.969  -0.607   0.404  0.00  0.00     0.030 H 
ENDBRANCH   1  14
TORSDOF 1
