REMARK  1 active torsions:
REMARK  status: ('A' for Active; 'I' for Inactive)
REMARK    1  A    between atoms: C3_3  and  N2_7 
ROOT
ATOM      1  C1  <0> d           0.002  -0.004   0.002  0.00  0.00    -0.064 A 
ATOM      2  C2  <0> d          -0.017   1.381   0.010  0.00  0.00    -0.052 A 
ATOM      3  C3  <0> d           1.199   2.059   0.002  0.00  0.00     0.078 A 
ATOM      4  C4  <0> d           2.378   1.327  -0.013  0.00  0.00     0.029 A 
ATOM      5  N1  <0> d           2.352   0.010  -0.020  0.00  0.00    -0.271 NA
ATOM      6  C5  <0> d           1.217  -0.663  -0.013  0.00  0.00     0.002 A 
ATOM      7  H1  <0> d          -0.922  -0.563   0.007  0.00  0.00     0.085 H 
ATOM      8  H2  <0> d          -0.952   1.922   0.017  0.00  0.00     0.087 H 
ATOM      9  H3  <0> d           3.328   1.843  -0.020  0.00  0.00     0.118 H 
ATOM     10  H4  <0> d           1.238  -1.742  -0.019  0.00  0.00     0.114 H 
ENDROOT
BRANCH   3  11
ATOM     11  N2  <0> d           1.232   3.462   0.009  0.00  0.00    -0.205 N 
ATOM     12  N5  <0> d           0.135   4.341   0.018  0.00  0.00    -0.040 NA
ATOM     13  N4  <0> d           0.620   5.536   0.025  0.00  0.00    -0.023 NA
ATOM     14  N3  <0> d           1.903   5.494   0.013  0.00  0.00    -0.122 NA
ATOM     15  C6  <0> d           2.324   4.256   0.003  0.00  0.00     0.113 A 
ATOM     16  H5  <0> d           3.353   3.930  -0.009  0.00  0.00     0.149 H 
ENDBRANCH   3  11
TORSDOF 1
