REMARK  1 active torsions:
REMARK  status: ('A' for Active; 'I' for Inactive)
REMARK    1  A    between atoms: C2_2  and  C3_3 
ROOT
ATOM      1  C1  <0> d           0.018  -1.178  -0.004  0.00  0.00    -0.149 C 
ATOM      2  C2  <0> d           0.002  -0.004   0.002  0.00  0.00    -0.076 C 
ATOM      3  H1  <0> d           0.032  -2.228  -0.010  0.00  0.00     0.166 H 
ENDROOT
BRANCH   2   4
ATOM      4  C3  <0> d          -0.017   1.428   0.010  0.00  0.00     0.041 A 
ATOM      5  C8  <0> d           1.181   2.145   0.002  0.00  0.00     0.052 A 
ATOM      6  C7  <0> d           1.155   3.526   0.004  0.00  0.00    -0.058 A 
ATOM      7 Cl1  <0> d           2.698   1.303  -0.016  0.00  0.00    -0.083 Cl
ATOM      8  C6  <0> d          -0.052   4.199   0.025  0.00  0.00    -0.044 A 
ATOM      9  H4  <0> d           2.082   4.082  -0.006  0.00  0.00     0.086 H 
ATOM     10  C5  <0> d          -1.245   3.493   0.038  0.00  0.00     0.117 A 
ATOM     11  H3  <0> d          -0.066   5.279   0.030  0.00  0.00     0.088 H 
ATOM     12  C4  <0> d          -1.233   2.112   0.031  0.00  0.00    -0.026 A 
ATOM     13  F1  <0> d          -2.421   4.158   0.058  0.00  0.00    -0.206 F 
ATOM     14  H2  <0> d          -2.163   1.562   0.041  0.00  0.00     0.090 H 
ENDBRANCH   2   4
TORSDOF 1
