REMARK  0 active torsions:
REMARK  status: ('A' for Active; 'I' for Inactive)
ROOT
ATOM      1  C1  <0> d          -0.017   1.408   0.010  0.00  0.00    -0.008 A 
ATOM      2  C2  <0> d           1.183   2.060   0.002  0.00  0.00    -0.022 A 
ATOM      3  C3  <0> d           2.362   1.304  -0.010  0.00  0.00     0.085 A 
ATOM      4  N1  <0> d           2.299  -0.003  -0.022  0.00  0.00    -0.174 NA
ATOM      5  N2  <0> d           1.188  -0.643  -0.017  0.00  0.00    -0.243 N 
ATOM      6  H1  <0> d           1.201  -1.613  -0.028  0.00  0.00     0.192 HD
ATOM      7  C4  <0> d           0.002  -0.004   0.002  0.00  0.00     0.261 A 
ATOM      8  O1  <0> d          -1.042  -0.637   0.013  0.00  0.00    -0.267 OA
ATOM      9  C5  <0> d           3.712   1.973  -0.003  0.00  0.00     0.061 C 
ATOM     10  O2  <0> d           3.580   3.348  -0.365  0.00  0.00    -0.385 OA
ATOM     11  C6  <0> d           2.605   4.050   0.413  0.00  0.00     0.024 C 
ATOM     12  C7  <0> d           1.212   3.564   0.004  0.00  0.00    -0.019 C 
ATOM     13  H2  <0> d          -0.949   1.953   0.026  0.00  0.00     0.093 H 
ATOM     14  H3  <0> d           4.146   1.902   0.994  0.00  0.00     0.084 H 
ATOM     15  H4  <0> d           4.367   1.473  -0.717  0.00  0.00     0.084 H 
ATOM     16  H5  <0> d           2.767   3.847   1.472  0.00  0.00     0.074 H 
ATOM     17  H6  <0> d           2.689   5.120   0.226  0.00  0.00     0.074 H 
ATOM     18  H7  <0> d           0.978   3.933  -0.995  0.00  0.00     0.043 H 
ATOM     19  H8  <0> d           0.474   3.941   0.712  0.00  0.00     0.043 H 
ENDROOT
TORSDOF 0
