REMARK  2 active torsions:
REMARK  status: ('A' for Active; 'I' for Inactive)
REMARK    1  A    between atoms: C3_3  and  N2_8 
REMARK    2  A    between atoms: C5_5  and  N1_7 
ROOT
ATOM      1  C1  <0> d          -0.017   1.377   0.010  0.00  0.00    -0.079 A 
ATOM      2  C2  <0> d           1.168   2.087   0.002  0.00  0.00    -0.058 A 
ATOM      3  C3  <0> d           2.384   1.414  -0.013  0.00  0.00     0.027 A 
ATOM      4  C4  <0> d           2.406   0.026  -0.021  0.00  0.00    -0.033 A 
ATOM      5  C5  <0> d           1.214  -0.684  -0.013  0.00  0.00     0.027 A 
ATOM      6  C6  <0> d           0.002  -0.004   0.002  0.00  0.00    -0.058 A 
ATOM      7  H1  <0> d          -0.960   1.903   0.026  0.00  0.00     0.083 H 
ATOM      8  H2  <0> d           1.150   3.167   0.008  0.00  0.00     0.086 H 
ATOM      9  H3  <0> d           3.349  -0.500  -0.033  0.00  0.00     0.090 H 
ATOM     10  H4  <0> d          -0.926  -0.556   0.008  0.00  0.00     0.086 H 
ENDROOT
BRANCH   3  11
ATOM     11  N2  <0> d           3.582   2.132  -0.021  0.00  0.00    -0.399 N 
ATOM     12  H7  <0> d           3.565   3.102  -0.016  0.00  0.00     0.156 HD
ATOM     13  H8  <0> d           4.429   1.661  -0.032  0.00  0.00     0.156 HD
ENDBRANCH   3  11
BRANCH   5  14
ATOM     14  N1  <0> d           1.232  -2.081  -0.021  0.00  0.00    -0.399 N 
ATOM     15  H5  <0> d           2.078  -2.555  -0.032  0.00  0.00     0.156 HD
ATOM     16  H6  <0> d           0.398  -2.576  -0.016  0.00  0.00     0.156 HD
ENDBRANCH   5  14
TORSDOF 2
