REMARK  9 active torsions:
REMARK  status: ('A' for Active; 'I' for Inactive)
REMARK    1  A    between atoms: C1_1  and  C2_2 
REMARK    2  A    between atoms: C2_2  and  C3_3 
REMARK    3  A    between atoms: C3_3  and  C4_4 
REMARK    4  A    between atoms: C4_4  and  C5_6 
REMARK    5  A    between atoms: C4_4  and  O2_12 
REMARK    6  A    between atoms: C5_6  and  C6_8 
REMARK    7  A    between atoms: C5_6  and  C8_10 
REMARK    8  A    between atoms: C6_8  and  C7_9 
REMARK    9  A    between atoms: C8_10  and  O1_11 
ROOT
ATOM      1  C4  <0> d          -1.413  -2.063   0.004  0.00  0.00     0.041 C 
ATOM      2  H1  <0> d          -0.826  -2.414  -0.845  0.00  0.00     0.083 H 
ENDROOT
BRANCH   1   3
ATOM      3  C3  <0> d          -1.433  -0.534   0.013  0.00  0.00    -0.041 C 
ATOM      4  H8  <0> d          -1.944  -0.182   0.910  0.00  0.00     0.036 H 
ATOM      5  H9  <0> d          -1.960  -0.173  -0.870  0.00  0.00     0.036 H 
BRANCH   3   6
ATOM      6  C2  <0> d           0.002  -0.004   0.002  0.00  0.00    -0.066 C 
ATOM      7  H6  <0> d           0.512  -0.356  -0.895  0.00  0.00     0.032 H 
ATOM      8  H7  <0> d           0.529  -0.365   0.885  0.00  0.00     0.032 H 
BRANCH   6   9
ATOM      9  C1  <0> d          -0.019   1.526   0.010  0.00  0.00    -0.076 C 
ATOM     10  H3  <0> d           1.004   1.903   0.003  0.00  0.00     0.027 H 
ATOM     11  H4  <0> d          -0.546   1.887  -0.873  0.00  0.00     0.027 H 
ATOM     12  H5  <0> d          -0.529   1.877   0.907  0.00  0.00     0.027 H 
ENDBRANCH   6   9
ENDBRANCH   3   6
ENDBRANCH   1   3
BRANCH   1  13
ATOM     13  C5  <0> d          -2.844  -2.592  -0.110  0.00  0.00    -0.009 C 
ATOM     14  H2  <0> d          -3.292  -2.230  -1.036  0.00  0.00     0.047 H 
BRANCH  13  15
ATOM     15  C6  <0> d          -2.823  -4.122  -0.119  0.00  0.00    -0.061 C 
ATOM     16  H10 <0> d          -2.165  -4.472  -0.914  0.00  0.00     0.033 H 
ATOM     17  H11 <0> d          -2.457  -4.486   0.841  0.00  0.00     0.033 H 
BRANCH  15  18
ATOM     18  C7  <0> d          -4.239  -4.650  -0.359  0.00  0.00    -0.076 C 
ATOM     19  H12 <0> d          -4.224  -5.740  -0.365  0.00  0.00     0.027 H 
ATOM     20  H13 <0> d          -4.897  -4.300   0.437  0.00  0.00     0.027 H 
ATOM     21  H14 <0> d          -4.604  -4.286  -1.319  0.00  0.00     0.027 H 
ENDBRANCH  15  18
ENDBRANCH  13  15
BRANCH  13  22
ATOM     22  C8  <0> d          -3.667  -2.100   1.082  0.00  0.00     0.022 C 
ATOM     23  H15 <0> d          -4.660  -2.548   1.048  0.00  0.00     0.074 H 
ATOM     24  H16 <0> d          -3.170  -2.387   2.009  0.00  0.00     0.074 H 
BRANCH  22  25
ATOM     25  O1  <0> d          -3.784  -0.677   1.025  0.00  0.00    -0.400 OA
ATOM     26  H17 <0> d          -4.294  -0.295   1.751  0.00  0.00     0.209 HD
ENDBRANCH  22  25
ENDBRANCH  13  22
ENDBRANCH   1  13
BRANCH   1  27
ATOM     27  O2  <0> d          -0.825  -2.539   1.217  0.00  0.00    -0.395 OA
ATOM     28  H18 <0> d          -1.296  -2.264   2.016  0.00  0.00     0.210 HD
ENDBRANCH   1  27
TORSDOF 9
