REMARK  4 active torsions:
REMARK  status: ('A' for Active; 'I' for Inactive)
REMARK    1  A    between atoms: C1_1  and  O1_2 
REMARK    2  A    between atoms: O1_2  and  C2_3 
REMARK    3  A    between atoms: C2_3  and  C3_5 
REMARK    4  A    between atoms: C3_5  and  C4_6 
ROOT
ATOM      1  C4  <0> d          -0.132   3.793   0.024  0.00  0.00     0.043 A 
ATOM      2  C5  <0> d           1.107   3.179   0.009  0.00  0.00    -0.059 A 
ATOM      3  C6  <0> d           1.174   1.794   0.001  0.00  0.00    -0.080 A 
ATOM      4  C7  <0> d          -0.013   1.076   0.008  0.00  0.00    -0.066 A 
ATOM      5  C8  <0> d          -1.214   1.759   0.017  0.00  0.00     0.002 A 
ATOM      6  N1  <0> d          -1.239   3.078   0.030  0.00  0.00    -0.265 NA
ATOM      7  H6  <0> d           2.010   3.770   0.004  0.00  0.00     0.086 H 
ATOM      8  H7  <0> d           2.127   1.287  -0.011  0.00  0.00     0.083 H 
ATOM      9  H8  <0> d           0.002  -0.004   0.002  0.00  0.00     0.085 H 
ATOM     10  H9  <0> d          -2.142   1.207   0.018  0.00  0.00     0.114 H 
ENDROOT
BRANCH   1  11
ATOM     11  C3  <0> d          -0.217   5.298   0.032  0.00  0.00     0.056 C 
ATOM     12  H4  <0> d          -0.662   5.631   0.970  0.00  0.00     0.057 H 
ATOM     13  H5  <0> d           0.784   5.719  -0.065  0.00  0.00     0.057 H 
BRANCH  11  14
ATOM     14  C2  <0> d          -1.070   5.759  -1.121  0.00  0.00     0.264 C 
ATOM     15  O2  <0> d          -1.559   4.949  -1.873  0.00  0.00    -0.265 OA
BRANCH  14  16
ATOM     16  O1  <0> d          -1.287   7.070  -1.313  0.00  0.00    -0.326 OA
BRANCH  16  17
ATOM     17  C1  <0> d          -2.118   7.441  -2.444  0.00  0.00     0.013 C 
ATOM     18  H1  <0> d          -1.661   7.082  -3.365  0.00  0.00     0.067 H 
ATOM     19  H2  <0> d          -3.106   6.995  -2.331  0.00  0.00     0.067 H 
ATOM     20  H3  <0> d          -2.213   8.527  -2.484  0.00  0.00     0.067 H 
ENDBRANCH  16  17
ENDBRANCH  14  16
ENDBRANCH  11  14
ENDBRANCH   1  11
TORSDOF 4
