REMARK  6 active torsions:
REMARK  status: ('A' for Active; 'I' for Inactive)
REMARK    1  A    between atoms: C1_1  and  C2_2 
REMARK    2  A    between atoms: C2_2  and  C3_4 
REMARK    3  A    between atoms: C2_2  and  C6_8 
REMARK    4  A    between atoms: C3_4  and  C4_5 
REMARK    5  A    between atoms: C4_5  and  C5_6 
REMARK    6  A    between atoms: C6_8  and  C7_10 
ROOT
ATOM      1  C2  <0> d          -1.268   0.580   2.240  0.00  0.00     0.000 C 
ATOM      2  H1  <0> d          -1.531  -0.259   1.762  0.00  0.00     0.051 H 
ENDROOT
BRANCH   1   3
ATOM      3  C1  <0> d          -0.198   0.257   3.285  0.00  0.00    -0.066 C 
ATOM      4  H2  <0> d           0.088   1.171   3.806  0.00  0.00     0.028 H 
ATOM      5  H3  <0> d          -0.596  -0.461   4.002  0.00  0.00     0.028 H 
ATOM      6  H4  <0> d           0.675  -0.169   2.791  0.00  0.00     0.028 H 
ENDBRANCH   1   3
BRANCH   1   7
ATOM      7  C3  <0> d          -2.494   1.177   2.933  0.00  0.00    -0.047 C 
ATOM      8  H5  <0> d          -2.192   2.040   3.526  0.00  0.00     0.034 H 
ATOM      9  H6  <0> d          -3.220   1.489   2.182  0.00  0.00     0.034 H 
BRANCH   7  10
ATOM     10  C4  <0> d          -3.126   0.126   3.848  0.00  0.00     0.016 C 
ATOM     11  H7  <0> d          -3.428  -0.737   3.255  0.00  0.00     0.049 H 
ATOM     12  H8  <0> d          -2.400  -0.186   4.599  0.00  0.00     0.049 H 
BRANCH  10  13
ATOM     13  C5  <0> d          -4.333   0.715   4.530  0.00  0.00     0.172 C 
ATOM     14  O1  <0> d          -4.656   1.858   4.308  0.00  0.00    -0.648 OA
ATOM     15  O3  <0> d          -5.051  -0.031   5.385  0.00  0.00    -0.648 OA
ENDBRANCH  10  13
ENDBRANCH   7  10
ENDBRANCH   1   7
BRANCH   1  16
ATOM     16  C6  <0> d          -0.718   1.572   1.248  0.00  0.00     0.126 C 
ATOM     17  O2  <0> d          -0.843   2.756   1.447  0.00  0.00    -0.298 OA
BRANCH  16  18
ATOM     18  C7  <0> d          -0.013   1.086   0.008  0.00  0.00    -0.021 C 
ATOM     19  H9  <0> d           0.001   0.086   0.003  0.00  0.00     0.037 H 
ATOM     20  H10 <0> d           1.010   1.463   0.000  0.00  0.00     0.037 H 
ATOM     21  H11 <0> d          -0.540   1.447  -0.875  0.00  0.00     0.037 H 
ENDBRANCH  16  18
ENDBRANCH   1  16
TORSDOF 6
