REMARK  4 active torsions:
REMARK  status: ('A' for Active; 'I' for Inactive)
REMARK    1  A    between atoms: C1_1  and  C2_2 
REMARK    2  A    between atoms: C2_2  and  C3_3 
REMARK    3  A    between atoms: C3_3  and  O1_4 
REMARK    4  A    between atoms: O1_4  and  C4_5 
ROOT
ATOM      1  C4  <0> d           1.386  -2.555   2.274  0.00  0.00     0.136 A 
ATOM      2  C5  <0> d           1.956  -1.816   3.272  0.00  0.00    -0.044 A 
ATOM      3  C6  <0> d           2.594  -2.475   4.334  0.00  0.00    -0.065 A 
ATOM      4  C7  <0> d           2.640  -3.826   4.362  0.00  0.00    -0.020 A 
ATOM      5  N1  <0> d           2.073  -4.562   3.369  0.00  0.00    -0.331 N 
ATOM      6  H1  <0> d           2.116  -5.530   3.406  0.00  0.00     0.168 HD
ATOM      7  C8  <0> d           1.447  -3.962   2.338  0.00  0.00     0.278 A 
ATOM      8  O2  <0> d           0.938  -4.637   1.457  0.00  0.00    -0.265 OA
ATOM      9  H9  <0> d           1.916  -0.737   3.244  0.00  0.00     0.088 H 
ATOM     10  H10 <0> d           3.048  -1.903   5.129  0.00  0.00     0.085 H 
ATOM     11  H11 <0> d           3.133  -4.326   5.182  0.00  0.00     0.111 H 
ENDROOT
BRANCH   1  12
ATOM     12  O1  <0> d           0.761  -1.940   1.234  0.00  0.00    -0.346 OA
BRANCH  12  13
ATOM     13  C3  <0> d           0.742  -0.511   1.242  0.00  0.00     0.026 C 
ATOM     14  H7  <0> d           1.765  -0.134   1.234  0.00  0.00     0.075 H 
ATOM     15  H8  <0> d           0.232  -0.159   2.138  0.00  0.00     0.075 H 
BRANCH  13  16
ATOM     16  C2  <0> d           0.002  -0.004   0.002  0.00  0.00    -0.048 C 
ATOM     17  H5  <0> d          -1.020  -0.381   0.010  0.00  0.00     0.035 H 
ATOM     18  H6  <0> d           0.512  -0.356  -0.895  0.00  0.00     0.035 H 
BRANCH  16  19
ATOM     19  C1  <0> d          -0.019   1.526   0.010  0.00  0.00    -0.075 C 
ATOM     20  H2  <0> d           1.004   1.903   0.003  0.00  0.00     0.027 H 
ATOM     21  H3  <0> d          -0.546   1.887  -0.873  0.00  0.00     0.027 H 
ATOM     22  H4  <0> d          -0.529   1.877   0.907  0.00  0.00     0.027 H 
ENDBRANCH  16  19
ENDBRANCH  13  16
ENDBRANCH  12  13
ENDBRANCH   1  12
TORSDOF 4
