REMARK  5 active torsions:
REMARK  status: ('A' for Active; 'I' for Inactive)
REMARK    1  A    between atoms: C1_1  and  C2_2 
REMARK    2  A    between atoms: C2_2  and  C3_3 
REMARK    3  A    between atoms: C3_3  and  C4_5 
REMARK    4  A    between atoms: C3_3  and  C5_6 
REMARK    5  A    between atoms: C5_6  and  C6_8 
ROOT
ATOM      1  C3  <0> d          -0.729   1.579   1.267  0.00  0.00    -0.000 C 
ATOM      2  H1  <0> d          -0.814   2.575   1.233  0.00  0.00     0.051 H 
ENDROOT
BRANCH   1   3
ATOM      3  C2  <0> d          -0.013   1.086   0.008  0.00  0.00    -0.059 C 
ATOM      4  H5  <0> d           0.002  -0.004   0.002  0.00  0.00     0.033 H 
ATOM      5  H6  <0> d           1.010   1.463   0.000  0.00  0.00     0.033 H 
BRANCH   3   6
ATOM      6  C1  <0> d          -0.753   1.593  -1.232  0.00  0.00    -0.076 C 
ATOM      7  H2  <0> d          -1.775   1.215  -1.224  0.00  0.00     0.027 H 
ATOM      8  H3  <0> d          -0.767   2.683  -1.226  0.00  0.00     0.027 H 
ATOM      9  H4  <0> d          -0.242   1.241  -2.128  0.00  0.00     0.027 H 
ENDBRANCH   3   6
ENDBRANCH   1   3
BRANCH   1  10
ATOM     10  C4  <0> d          -2.121   0.950   1.341  0.00  0.00    -0.066 C 
ATOM     11  H7  <0> d          -2.632   1.301   2.238  0.00  0.00     0.028 H 
ATOM     12  H8  <0> d          -2.697   1.235   0.460  0.00  0.00     0.028 H 
ATOM     13  H9  <0> d          -2.028  -0.136   1.378  0.00  0.00     0.028 H 
ENDBRANCH   1  10
BRANCH   1  14
ATOM     14  C5  <0> d           0.067   1.185   2.485  0.00  0.00     0.126 C 
ATOM     15  O1  <0> d           0.809   0.234   2.438  0.00  0.00    -0.298 OA
BRANCH  14  16
ATOM     16  C6  <0> d          -0.065   1.977   3.760  0.00  0.00    -0.021 C 
ATOM     17  H10 <0> d          -0.717   2.723   3.623  0.00  0.00     0.037 H 
ATOM     18  H11 <0> d          -0.422   1.325   4.557  0.00  0.00     0.037 H 
ATOM     19  H12 <0> d           0.906   2.388   4.034  0.00  0.00     0.037 H 
ENDBRANCH  14  16
ENDBRANCH   1  14
TORSDOF 5
