REMARK  2 active torsions:
REMARK  status: ('A' for Active; 'I' for Inactive)
REMARK    1  A    between atoms: C3_4  and  C6_8 
REMARK    2  A    between atoms: C6_8  and  O1_9 
ROOT
ATOM      1  C1  <0> d           1.161   2.038   0.002  0.00  0.00    -0.045 A 
ATOM      2  C2  <0> d          -0.016   1.315   0.009  0.00  0.00     0.004 A 
ATOM      3  N1  <0> d           0.002  -0.004   0.002  0.00  0.00    -0.263 NA
ATOM      4  C3  <0> d           1.133  -0.683  -0.012  0.00  0.00     0.059 A 
ATOM      5  C4  <0> d           2.350  -0.029  -0.020  0.00  0.00    -0.036 A 
ATOM      6  C5  <0> d           2.372   1.359  -0.013  0.00  0.00     0.037 A 
ATOM      7 Cl1  <0> d           3.877   2.224  -0.021  0.00  0.00    -0.084 Cl
ATOM      8  H1  <0> d           1.140   3.117   0.008  0.00  0.00     0.088 H 
ATOM      9  H2  <0> d          -0.962   1.835   0.017  0.00  0.00     0.114 H 
ATOM     10  H3  <0> d           3.272  -0.591  -0.032  0.00  0.00     0.089 H 
ENDROOT
BRANCH   4  11
ATOM     11  C6  <0> d           1.097  -2.190  -0.020  0.00  0.00     0.056 C 
ATOM     12  H4  <0> d           0.583  -2.545   0.873  0.00  0.00     0.083 H 
ATOM     13  H5  <0> d           0.566  -2.536  -0.907  0.00  0.00     0.083 H 
BRANCH  11  14
ATOM     14  O1  <0> d           2.432  -2.698  -0.036  0.00  0.00    -0.395 OA
ATOM     15  H6  <0> d           2.486  -3.663  -0.041  0.00  0.00     0.209 HD
ENDBRANCH  11  14
ENDBRANCH   4  11
TORSDOF 2
