REMARK  5 active torsions:
REMARK  status: ('A' for Active; 'I' for Inactive)
REMARK    1  A    between atoms: C1_1  and  C2_2 
REMARK    2  A    between atoms: C2_2  and  C3_3 
REMARK    3  A    between atoms: C3_3  and  O1_4 
REMARK    4  A    between atoms: O1_4  and  C4_5 
REMARK    5  A    between atoms: C8_9  and  O2_11 
ROOT
ATOM      1  C4  <0> d           0.041  -2.090   1.188  0.00  0.00     0.071 A 
ATOM      2  C5  <0> d           0.039  -2.774  -0.020  0.00  0.00    -0.051 A 
ATOM      3  C6  <0> d           0.018  -2.074  -1.211  0.00  0.00    -0.078 A 
ATOM      4  C7  <0> d          -0.006  -0.692  -1.203  0.00  0.00    -0.051 A 
ATOM      5  C8  <0> d           0.002  -0.004   0.002  0.00  0.00     0.068 A 
ATOM      6  C9  <0> d           0.023  -0.704   1.199  0.00  0.00    -0.019 A 
ATOM      7  H8  <0> d           0.053  -3.853  -0.029  0.00  0.00     0.087 H 
ATOM      8  H9  <0> d           0.016  -2.607  -2.150  0.00  0.00     0.083 H 
ATOM      9  H10 <0> d          -0.026  -0.147  -2.135  0.00  0.00     0.087 H 
ATOM     10  H11 <0> d           0.025  -0.171   2.138  0.00  0.00     0.092 H 
ENDROOT
BRANCH   1  11
ATOM     11  O1  <0> d           0.061  -2.779   2.359  0.00  0.00    -0.351 OA
BRANCH  11  12
ATOM     12  C3  <0> d           0.079  -4.206   2.272  0.00  0.00     0.026 C 
ATOM     13  H6  <0> d           0.977  -4.528   1.724  0.00  0.00     0.075 H 
ATOM     14  H7  <0> d          -0.819  -4.552   1.741  0.00  0.00     0.075 H 
BRANCH  12  15
ATOM     15  C2  <0> d           0.100  -4.802   3.681  0.00  0.00    -0.048 C 
ATOM     16  H4  <0> d          -0.797  -4.479   4.229  0.00  0.00     0.035 H 
ATOM     17  H5  <0> d           0.999  -4.455   4.212  0.00  0.00     0.035 H 
BRANCH  15  18
ATOM     18  C1  <0> d           0.120  -6.329   3.588  0.00  0.00    -0.075 C 
ATOM     19  H1  <0> d           0.135  -6.758   4.601  0.00  0.00     0.027 H 
ATOM     20  H2  <0> d           1.017  -6.652   3.040  0.00  0.00     0.027 H 
ATOM     21  H3  <0> d          -0.779  -6.676   3.057  0.00  0.00     0.027 H 
ENDBRANCH  15  18
ENDBRANCH  12  15
ENDBRANCH  11  12
ENDBRANCH   1  11
BRANCH   5  22
ATOM     22  O2  <0> d          -0.016   1.355   0.009  0.00  0.00    -0.361 OA
ATOM     23  H12 <0> d          -0.010   1.900   0.965  0.00  0.00     0.217 HD
ENDBRANCH   5  22
TORSDOF 5
