REMARK  2 active torsions:
REMARK  status: ('A' for Active; 'I' for Inactive)
REMARK    1  A    between atoms: C4_4  and  C6_6 
REMARK    2  A    between atoms: C6_6  and  O1_7 
ROOT
ATOM      1  C1  <0> d           1.189   1.994   0.001  0.00  0.00    -0.034 A 
ATOM      2  C2  <0> d           0.616   3.393   0.014  0.00  0.00    -0.099 A 
ATOM      3  C3  <0> d          -0.706   3.266   0.026  0.00  0.00    -0.078 A 
ATOM      4  C4  <0> d          -1.089   1.853   0.017  0.00  0.00    -0.039 A 
ATOM      5  C5  <0> d          -0.013   1.076   0.008  0.00  0.00    -0.092 A 
ATOM      6  H1  <0> d           1.799   1.826   0.890  0.00  0.00     0.044 H 
ATOM      7  H2  <0> d           1.782   1.835  -0.899  0.00  0.00     0.044 H 
ATOM      8  H3  <0> d           1.174   4.318   0.014  0.00  0.00     0.077 H 
ATOM      9  H4  <0> d          -1.402   4.092   0.037  0.00  0.00     0.084 H 
ATOM     10  H5  <0> d           0.002  -0.004   0.002  0.00  0.00     0.078 H 
ENDROOT
BRANCH   4  11
ATOM     11  C6  <0> d          -2.509   1.349   0.020  0.00  0.00     0.040 C 
ATOM     12  H6  <0> d          -3.020   1.707   0.914  0.00  0.00     0.081 H 
ATOM     13  H7  <0> d          -3.027   1.717  -0.866  0.00  0.00     0.081 H 
BRANCH  11  14
ATOM     14  O1  <0> d          -2.509  -0.080   0.012  0.00  0.00    -0.396 OA
ATOM     15  H8  <0> d          -3.392  -0.474   0.013  0.00  0.00     0.209 HD
ENDBRANCH  11  14
ENDBRANCH   4  11
TORSDOF 2
