REMARK  0 active torsions:
REMARK  status: ('A' for Active; 'I' for Inactive)
ROOT
ATOM      1  C1  <0> d          -0.018   1.472   0.010  0.00  0.00     0.018 C 
ATOM      2  C2  <0> d           1.490   1.820  -0.002  0.00  0.00     0.045 C 
ATOM      3  O1  <0> d           2.066   0.637  -0.591  0.00  0.00    -0.302 OA
ATOM      4  C3  <0> d           1.245  -0.396  -0.336  0.00  0.00     0.360 C 
ATOM      5  O2  <0> d           1.588  -1.559  -0.404  0.00  0.00    -0.239 OA
ATOM      6  N1  <0> d           0.002  -0.004   0.002  0.00  0.00    -0.335 N 
ATOM      7  H1  <0> d          -0.496   1.849   0.915  0.00  0.00     0.067 H 
ATOM      8  H2  <0> d          -0.513   1.858  -0.881  0.00  0.00     0.067 H 
ATOM      9  H3  <0> d           1.682   2.696  -0.622  0.00  0.00     0.077 H 
ATOM     10  H4  <0> d           1.863   1.971   1.011  0.00  0.00     0.077 H 
ATOM     11  H5  <0> d          -0.746  -0.587   0.204  0.00  0.00     0.164 HD
ENDROOT
TORSDOF 0
