REMARK  2 active torsions:
REMARK  status: ('A' for Active; 'I' for Inactive)
REMARK    1  A    between atoms: C1_1  and  C2_2 
REMARK    2  A    between atoms: C3_4  and  N3_9 
ROOT
ATOM      1  C2  <0> d           0.002  -0.004   0.002  0.00  0.00     0.126 A 
ATOM      2  N1  <0> d           1.131  -0.684  -0.012  0.00  0.00    -0.217 NA
ATOM      3  C3  <0> d           2.303  -0.055  -0.020  0.00  0.00     0.126 A 
ATOM      4  C4  <0> d           2.321   1.340  -0.013  0.00  0.00    -0.000 A 
ATOM      5  C5  <0> d           1.112   2.012   0.002  0.00  0.00     0.131 A 
ATOM      6  N2  <0> d          -0.016   1.313   0.009  0.00  0.00    -0.222 NA
ATOM      7 Cl1  <0> d           1.071   3.747   0.011  0.00  0.00    -0.062 Cl
ATOM      8  H4  <0> d           3.255   1.882  -0.019  0.00  0.00     0.094 H 
ENDROOT
BRANCH   1   9
ATOM      9  C1  <0> d          -1.305  -0.754   0.011  0.00  0.00    -0.019 C 
ATOM     10  H1  <0> d          -1.630  -0.930  -1.015  0.00  0.00     0.037 H 
ATOM     11  H2  <0> d          -1.172  -1.710   0.518  0.00  0.00     0.037 H 
ATOM     12  H3  <0> d          -2.058  -0.166   0.535  0.00  0.00     0.037 H 
ENDBRANCH   1   9
BRANCH   3  13
ATOM     13  N3  <0> d           3.487  -0.774  -0.034  0.00  0.00    -0.384 N 
ATOM     14  H5  <0> d           3.466  -1.744  -0.038  0.00  0.00     0.157 HD
ATOM     15  H6  <0> d           4.338  -0.308  -0.040  0.00  0.00     0.157 HD
ENDBRANCH   3  13
TORSDOF 2
