REMARK  3 active torsions:
REMARK  status: ('A' for Active; 'I' for Inactive)
REMARK    1  A    between atoms: C1_1  and  N1_2 
REMARK    2  A    between atoms: N1_2  and  C2_3 
REMARK    3  A    between atoms: N1_2  and  C3_4 
ROOT
ATOM      1  C3  <0> d           1.178   2.086   0.003  0.00  0.00     0.029 A 
ATOM      2  C4  <0> d          -0.017   1.372   0.026  0.00  0.00    -0.056 A 
ATOM      3  C5  <0> d           0.002  -0.004   0.020  0.00  0.00    -0.061 A 
ATOM      4  C6  <0> d           1.223  -0.685  -0.010  0.00  0.00     0.044 A 
ATOM      5  C7  <0> d           2.421   0.035  -0.033  0.00  0.00    -0.061 A 
ATOM      6  C8  <0> d           2.395   1.411  -0.026  0.00  0.00    -0.056 A 
ATOM      7  C9  <0> d           1.246  -2.117  -0.016  0.00  0.00     0.099 C 
ATOM      8  N2  <0> d           1.264  -3.253  -0.021  0.00  0.00    -0.191 NA
ATOM      9  H7  <0> d          -0.959   1.899   0.045  0.00  0.00     0.087 H 
ATOM     10  H8  <0> d          -0.925  -0.557   0.038  0.00  0.00     0.085 H 
ATOM     11  H9  <0> d           3.366  -0.488  -0.056  0.00  0.00     0.085 H 
ATOM     12  H10 <0> d           3.320   1.968  -0.044  0.00  0.00     0.087 H 
ENDROOT
BRANCH   1  13
ATOM     13  N1  <0> d           1.156   3.478   0.009  0.00  0.00    -0.390 N 
BRANCH  13  14
ATOM     14  C1  <0> d          -0.121   4.190  -0.087  0.00  0.00    -0.019 C 
ATOM     15  H1  <0> d          -0.518   4.361   0.913  0.00  0.00     0.056 H 
ATOM     16  H2  <0> d           0.034   5.147  -0.585  0.00  0.00     0.056 H 
ATOM     17  H3  <0> d          -0.828   3.592  -0.661  0.00  0.00     0.056 H 
ENDBRANCH  13  14
BRANCH  13  18
ATOM     18  C2  <0> d           2.409   4.230   0.112  0.00  0.00    -0.019 C 
ATOM     19  H4  <0> d           3.251   3.539   0.083  0.00  0.00     0.056 H 
ATOM     20  H5  <0> d           2.483   4.928  -0.722  0.00  0.00     0.056 H 
ATOM     21  H6  <0> d           2.424   4.783   1.051  0.00  0.00     0.056 H 
ENDBRANCH  13  18
ENDBRANCH   1  13
TORSDOF 3
