REMARK  0 active torsions:
REMARK  status: ('A' for Active; 'I' for Inactive)
ROOT
ATOM      1  C1  <0> d          -0.013   1.076   0.008  0.00  0.00    -0.064 A 
ATOM      2  C2  <0> d          -1.219   1.761   0.017  0.00  0.00    -0.056 A 
ATOM      3  C3  <0> d          -1.191   3.147   0.029  0.00  0.00     0.091 A 
ATOM      4  C4  <0> d           0.034   3.797   0.021  0.00  0.00     0.231 A 
ATOM      5  N1  <0> d           1.161   3.110   0.007  0.00  0.00    -0.232 NA
ATOM      6  C5  <0> d           1.169   1.790   0.001  0.00  0.00     0.005 A 
ATOM      7  F1  <0> d           0.075   5.147   0.027  0.00  0.00    -0.182 F 
ATOM      8 Cl1  <0> d          -2.669   4.057   0.048  0.00  0.00    -0.079 Cl
ATOM      9  H1  <0> d           0.002  -0.004   0.002  0.00  0.00     0.085 H 
ATOM     10  H2  <0> d          -2.158   1.227   0.019  0.00  0.00     0.086 H 
ATOM     11  H3  <0> d           2.111   1.263  -0.011  0.00  0.00     0.114 H 
ENDROOT
TORSDOF 0
