REMARK  1 active torsions:
REMARK  status: ('A' for Active; 'I' for Inactive)
REMARK    1  A    between atoms: C3_3  and  C6_7 
ROOT
ATOM      1  C1  <0> d           0.002  -0.004   0.002  0.00  0.00    -0.061 C 
ATOM      2  C2  <0> d          -0.019   1.534   0.011  0.00  0.00    -0.036 C 
ATOM      3  C3  <0> d           1.518   1.476  -0.004  0.00  0.00     0.137 C 
ATOM      4  C4  <0> d           1.394   0.090   0.649  0.00  0.00    -0.036 C 
ATOM      5  C5  <0> d           2.093   1.441  -1.359  0.00  0.00     0.080 C 
ATOM      6  N1  <0> d           2.538   1.413  -2.404  0.00  0.00    -0.196 NA
ATOM      7  H1  <0> d          -0.751  -0.455   0.649  0.00  0.00     0.033 H 
ATOM      8  H2  <0> d           0.014  -0.435  -0.999  0.00  0.00     0.033 H 
ATOM      9  H3  <0> d          -0.448   1.969  -0.892  0.00  0.00     0.036 H 
ATOM     10  H4  <0> d          -0.431   1.960   0.925  0.00  0.00     0.036 H 
ATOM     11  H5  <0> d           1.368   0.121   1.738  0.00  0.00     0.036 H 
ATOM     12  H6  <0> d           2.105  -0.640   0.262  0.00  0.00     0.036 H 
ENDROOT
BRANCH   3  13
ATOM     13  C6  <0> d           2.169   2.506   0.883  0.00  0.00     0.196 C 
ATOM     14  O1  <0> d           1.487   3.273   1.519  0.00  0.00    -0.647 OA
ATOM     15  O2  <0> d           3.507   2.570   0.966  0.00  0.00    -0.647 OA
ENDBRANCH   3  13
TORSDOF 1
