REMARK  2 active torsions:
REMARK  status: ('A' for Active; 'I' for Inactive)
REMARK    1  A    between atoms: C1_1  and  C2_2 
REMARK    2  A    between atoms: N1_8  and  C6_9 
ROOT
ATOM      1  C2  <0> d          -0.013   1.086   0.008  0.00  0.00     0.011 C 
ATOM      2  H1  <0> d           0.002  -0.004   0.002  0.00  0.00     0.072 H 
ATOM      3  C3  <0> d          -0.798   1.617  -1.212  0.00  0.00    -0.038 C 
ATOM      4  C4  <0> d          -2.216   1.792  -0.622  0.00  0.00     0.011 C 
ATOM      5  C5  <0> d          -1.981   1.975   0.862  0.00  0.00     0.219 C 
ATOM      6  O1  <0> d          -2.795   2.417   1.645  0.00  0.00    -0.273 OA
ATOM      7  N1  <0> d          -0.737   1.577   1.186  0.00  0.00    -0.352 N 
ATOM      8  H5  <0> d          -0.395   2.571  -1.550  0.00  0.00     0.036 H 
ATOM      9  H6  <0> d          -0.800   0.887  -2.022  0.00  0.00     0.036 H 
ATOM     10  H7  <0> d          -2.699   2.674  -1.043  0.00  0.00     0.047 H 
ATOM     11  H8  <0> d          -2.820   0.903  -0.807  0.00  0.00     0.047 H 
ENDROOT
BRANCH   1  12
ATOM     12  C1  <0> d           1.416   1.634  -0.003  0.00  0.00    -0.057 C 
ATOM     13  H2  <0> d           1.387   2.724   0.016  0.00  0.00     0.030 H 
ATOM     14  H3  <0> d           1.951   1.270   0.874  0.00  0.00     0.030 H 
ATOM     15  H4  <0> d           1.927   1.300  -0.906  0.00  0.00     0.030 H 
ENDBRANCH   1  12
BRANCH   7  16
ATOM     16  C6  <0> d          -0.176   1.628   2.539  0.00  0.00    -0.016 C 
ATOM     17  H9  <0> d           0.313   2.590   2.693  0.00  0.00     0.056 H 
ATOM     18  H10 <0> d          -0.977   1.506   3.269  0.00  0.00     0.056 H 
ATOM     19  H11 <0> d           0.552   0.827   2.661  0.00  0.00     0.056 H 
ENDBRANCH   7  16
TORSDOF 2
