REMARK  5 active torsions:
REMARK  status: ('A' for Active; 'I' for Inactive)
REMARK    1  A    between atoms: C1_1  and  C2_2 
REMARK    2  A    between atoms: C6_7  and  C7_8 
REMARK    3  A    between atoms: C7_8  and  C8_9 
REMARK    4  A    between atoms: C8_9  and  C9_11 
REMARK    5  A    between atoms: C8_9  and  O1_12 
ROOT
ATOM      1  C2  <0> d           0.354   0.925  -3.093  0.00  0.00    -0.037 A 
ATOM      2  C3  <0> d          -0.287   1.438  -4.210  0.00  0.00    -0.074 A 
ATOM      3  C4  <0> d           0.097   2.687  -4.675  0.00  0.00    -0.066 A 
ATOM      4  C5  <0> d           1.094   3.376  -4.011  0.00  0.00     0.003 A 
ATOM      5  N1  <0> d           1.679   2.858  -2.949  0.00  0.00    -0.265 NA
ATOM      6  C6  <0> d           1.340   1.673  -2.478  0.00  0.00     0.042 A 
ATOM      7  H5  <0> d          -1.063   0.877  -4.709  0.00  0.00     0.084 H 
ATOM      8  H6  <0> d          -0.378   3.116  -5.545  0.00  0.00     0.085 H 
ATOM      9  H7  <0> d           1.399   4.349  -4.367  0.00  0.00     0.114 H 
ENDROOT
BRANCH   6  10
ATOM     10  C7  <0> d           2.040   1.127  -1.261  0.00  0.00    -0.001 C 
ATOM     11  H8  <0> d           2.063   0.029  -1.313  0.00  0.00     0.046 H 
ATOM     12  H9  <0> d           3.068   1.515  -1.224  0.00  0.00     0.046 H 
BRANCH  10  13
ATOM     13  C8  <0> d           1.286   1.562  -0.002  0.00  0.00     0.037 C 
ATOM     14  H1  <0> d           1.115   2.648   0.006  0.00  0.00     0.082 H 
BRANCH  13  15
ATOM     15  C9  <0> d           2.064   1.114   1.238  0.00  0.00    -0.052 C 
ATOM     16  H10 <0> d           1.522   1.426   2.143  0.00  0.00     0.030 H 
ATOM     17  H11 <0> d           3.062   1.575   1.231  0.00  0.00     0.030 H 
ATOM     18  H12 <0> d           2.165   0.019   1.231  0.00  0.00     0.030 H 
ENDBRANCH  13  15
BRANCH  13  19
ATOM     19  O1  <0> d          -0.011   0.963   0.007  0.00  0.00    -0.396 OA
ATOM     20  H13 <0> d          -0.702   1.160   0.840  0.00  0.00     0.210 HD
ENDBRANCH  13  19
ENDBRANCH  10  13
ENDBRANCH   6  10
BRANCH   1  21
ATOM     21  C1  <0> d          -0.023  -0.431  -2.553  0.00  0.00    -0.049 C 
ATOM     22  H2  <0> d          -0.820  -0.864  -3.175  0.00  0.00     0.033 H 
ATOM     23  H3  <0> d          -0.381  -0.326  -1.518  0.00  0.00     0.033 H 
ATOM     24  H4  <0> d           0.857  -1.091  -2.571  0.00  0.00     0.033 H 
ENDBRANCH   1  21
TORSDOF 5
