REMARK  3 active torsions:
REMARK  status: ('A' for Active; 'I' for Inactive)
REMARK    1  A    between atoms: C1_1  and  C2_2 
REMARK    2  A    between atoms: C3_3  and  N4_11 
REMARK    3  A    between atoms: C5_8  and  N3_10 
ROOT
ATOM      1  C2  <0> d           0.002  -0.004   0.002  0.00  0.00     0.081 A 
ATOM      2  C3  <0> d          -1.173  -0.703   0.004  0.00  0.00     0.120 A 
ATOM      3  C4  <0> d          -1.125  -2.114  -0.005  0.00  0.00     0.288 A 
ATOM      4  O1  <0> d          -2.152  -2.772  -0.004  0.00  0.00    -0.265 OA
ATOM      5  N1  <0> d           0.082  -2.721  -0.014  0.00  0.00    -0.153 N 
ATOM      6  H1  <0> d           0.139  -3.689  -0.020  0.00  0.00     0.187 HD
ATOM      7  C5  <0> d           1.217  -1.970  -0.015  0.00  0.00     0.701 A 
ATOM      8  N2  <0> d           1.166  -0.654  -0.013  0.00  0.00    -0.068 NA
ENDROOT
BRANCH   1   9
ATOM      9  C1  <0> d          -0.018   1.503   0.010  0.00  0.00    -0.033 C 
ATOM     10  H2  <0> d           1.004   1.880   0.003  0.00  0.00     0.035 H 
ATOM     11  H3  <0> d          -0.545   1.864  -0.873  0.00  0.00     0.035 H 
ATOM     12  H4  <0> d          -0.529   1.854   0.907  0.00  0.00     0.035 H 
ENDBRANCH   1   9
BRANCH   2  13
ATOM     13  N4  <0> d          -2.407  -0.029   0.014  0.00  0.00    -0.393 N 
ATOM     14  H7  <0> d          -2.430   0.940   0.020  0.00  0.00     0.156 HD
ATOM     15  H8  <0> d          -3.235  -0.534   0.015  0.00  0.00     0.156 HD
ENDBRANCH   2  13
BRANCH   7  16
ATOM     16  N3  <0> d           2.438  -2.596  -0.025  0.00  0.00    -0.233 N 
ATOM     17  H5  <0> d           2.486  -3.564  -0.030  0.00  0.00     0.174 HD
ATOM     18  H6  <0> d           3.253  -2.070  -0.025  0.00  0.00     0.174 HD
ENDBRANCH   7  16
TORSDOF 3
