REMARK  3 active torsions:
REMARK  status: ('A' for Active; 'I' for Inactive)
REMARK    1  A    between atoms: C1_1  and  C2_2 
REMARK    2  A    between atoms: C2_2  and  C3_4 
REMARK    3  A    between atoms: C4_5  and  C5_6 
ROOT
ATOM      1  C5  <0> d          -3.501  -2.091   0.024  0.00  0.00     0.006 C 
ATOM      2  C6  <0> d          -4.297  -1.739   1.283  0.00  0.00    -0.052 C 
ATOM      3  C7  <0> d          -5.611  -2.522   1.291  0.00  0.00    -0.064 C 
ATOM      4  C8  <0> d          -5.311  -4.022   1.280  0.00  0.00    -0.065 C 
ATOM      5  C9  <0> d          -4.516  -4.374   0.022  0.00  0.00    -0.064 C 
ATOM      6  C10 <0> d          -3.201  -3.591   0.013  0.00  0.00    -0.052 C 
ATOM      7  H4  <0> d          -4.085  -1.831  -0.859  0.00  0.00     0.059 H 
ATOM      8  H5  <0> d          -3.713  -1.999   2.166  0.00  0.00     0.034 H 
ATOM      9  H6  <0> d          -4.510  -0.670   1.291  0.00  0.00     0.034 H 
ATOM     10  H7  <0> d          -6.178  -2.271   2.188  0.00  0.00     0.033 H 
ATOM     11  H8  <0> d          -6.195  -2.262   0.408  0.00  0.00     0.033 H 
ATOM     12  H9  <0> d          -4.728  -4.282   2.163  0.00  0.00     0.033 H 
ATOM     13  H10 <0> d          -6.248  -4.580   1.286  0.00  0.00     0.033 H 
ATOM     14  H11 <0> d          -4.302  -5.443   0.014  0.00  0.00     0.033 H 
ATOM     15  H12 <0> d          -5.099  -4.114  -0.861  0.00  0.00     0.033 H 
ATOM     16  H13 <0> d          -2.635  -3.842  -0.883  0.00  0.00     0.034 H 
ATOM     17  H14 <0> d          -2.618  -3.852   0.896  0.00  0.00     0.034 H 
ENDROOT
BRANCH   1  18
ATOM     18  C4  <0> d          -2.237  -1.338   0.016  0.00  0.00    -0.093 C 
ATOM     19  C3  <0> d          -1.228  -0.737   0.010  0.00  0.00    -0.029 C 
BRANCH  19  20
ATOM     20  C2  <0> d           0.002  -0.004   0.002  0.00  0.00     0.198 C 
ATOM     21  O1  <0> d           1.061  -0.596  -0.011  0.00  0.00    -0.284 OA
BRANCH  20  22
ATOM     22  C1  <0> d          -0.018   1.503   0.010  0.00  0.00    -0.010 C 
ATOM     23  H1  <0> d           1.004   1.880   0.003  0.00  0.00     0.039 H 
ATOM     24  H2  <0> d          -0.545   1.864  -0.873  0.00  0.00     0.039 H 
ATOM     25  H3  <0> d          -0.529   1.854   0.907  0.00  0.00     0.039 H 
ENDBRANCH  20  22
ENDBRANCH  19  20
ENDBRANCH   1  18
TORSDOF 3
