REMARK  5 active torsions:
REMARK  status: ('A' for Active; 'I' for Inactive)
REMARK    1  A    between atoms: C1_1  and  O1_2 
REMARK    2  A    between atoms: O1_2  and  C2_3 
REMARK    3  A    between atoms: C4_5  and  N3_11 
REMARK    4  A    between atoms: C5_6  and  O2_9 
REMARK    5  A    between atoms: O2_9  and  C6_10 
ROOT
ATOM      1  C2  <0> d          -0.149   1.182   2.378  0.00  0.00     0.187 A 
ATOM      2  C3  <0> d          -0.750   1.596   3.564  0.00  0.00    -0.001 A 
ATOM      3  C4  <0> d          -0.166   1.196   4.762  0.00  0.00     0.085 A 
ATOM      4  C5  <0> d           0.987   0.403   4.696  0.00  0.00     0.212 A 
ATOM      5  N1  <0> d           1.480   0.063   3.520  0.00  0.00    -0.120 NA
ATOM      6  N2  <0> d           0.937   0.429   2.417  0.00  0.00    -0.122 NA
ATOM      7  H4  <0> d          -1.640   2.208   3.554  0.00  0.00     0.094 H 
ENDROOT
BRANCH   1   8
ATOM      8  O1  <0> d          -0.682   1.547   1.184  0.00  0.00    -0.338 OA
BRANCH   8   9
ATOM      9  C1  <0> d          -0.013   1.086   0.008  0.00  0.00     0.012 C 
ATOM     10  H1  <0> d           0.002  -0.004   0.002  0.00  0.00     0.067 H 
ATOM     11  H2  <0> d           1.010   1.463   0.000  0.00  0.00     0.067 H 
ATOM     12  H3  <0> d          -0.540   1.447  -0.875  0.00  0.00     0.067 H 
ENDBRANCH   8   9
ENDBRANCH   1   8
BRANCH   3  13
ATOM     13  N3  <0> d          -0.712   1.572   5.989  0.00  0.00    -0.395 N 
ATOM     14  H8  <0> d          -1.512   2.121   6.017  0.00  0.00     0.156 HD
ATOM     15  H9  <0> d          -0.293   1.285   6.815  0.00  0.00     0.156 HD
ENDBRANCH   3  13
BRANCH   4  16
ATOM     16  O2  <0> d           1.595  -0.014   5.837  0.00  0.00    -0.337 OA
BRANCH  16  17
ATOM     17  C6  <0> d           2.766  -0.819   5.691  0.00  0.00     0.012 C 
ATOM     18  H5  <0> d           3.151  -1.083   6.677  0.00  0.00     0.067 H 
ATOM     19  H6  <0> d           2.517  -1.728   5.144  0.00  0.00     0.067 H 
ATOM     20  H7  <0> d           3.525  -0.261   5.143  0.00  0.00     0.067 H 
ENDBRANCH  16  17
ENDBRANCH   4  16
TORSDOF 5
