REMARK  2 active torsions:
REMARK  status: ('A' for Active; 'I' for Inactive)
REMARK    1  A    between atoms: C3_3  and  O2_9 
REMARK    2  A    between atoms: C5_6  and  O1_8 
ROOT
ATOM      1  C1  <0> d          -1.531   2.845   0.750  0.00  0.00    -0.039 C 
ATOM      2  C2  <0> d          -1.978   2.421  -0.670  0.00  0.00    -0.039 C 
ATOM      3  C3  <0> d          -0.784   1.609  -1.216  0.00  0.00     0.038 C 
ATOM      4  H1  <0> d          -1.144   0.773  -1.816  0.00  0.00     0.083 H 
ATOM      5  C4  <0> d          -0.013   1.086   0.008  0.00  0.00    -0.017 C 
ATOM      6  C5  <0> d          -0.763   1.597   1.255  0.00  0.00     0.038 C 
ATOM      7  H2  <0> d          -1.460   0.842   1.618  0.00  0.00     0.083 H 
ATOM      8  H3  <0> d          -0.871   3.712   0.705  0.00  0.00     0.036 H 
ATOM      9  H4  <0> d          -2.395   3.052   1.382  0.00  0.00     0.036 H 
ATOM     10  H5  <0> d          -2.159   3.298  -1.292  0.00  0.00     0.036 H 
ATOM     11  H6  <0> d          -2.871   1.798  -0.619  0.00  0.00     0.036 H 
ATOM     12  H7  <0> d           0.002  -0.004   0.002  0.00  0.00     0.040 H 
ATOM     13  H8  <0> d           1.006   1.473   0.000  0.00  0.00     0.040 H 
ENDROOT
BRANCH   3  14
ATOM     14  O2  <0> d           0.060   2.450  -2.004  0.00  0.00    -0.395 OA
ATOM     15  H10 <0> d          -0.370   2.812  -2.791  0.00  0.00     0.210 HD
ENDBRANCH   3  14
BRANCH   6  16
ATOM     16  O1  <0> d           0.163   1.960   2.282  0.00  0.00    -0.395 OA
ATOM     17  H9  <0> d          -0.255   2.289   3.090  0.00  0.00     0.210 HD
ENDBRANCH   6  16
TORSDOF 2
