REMARK  3 active torsions:
REMARK  status: ('A' for Active; 'I' for Inactive)
REMARK    1  A    between atoms: C1_1  and  C2_2 
REMARK    2  A    between atoms: C5_5  and  C8_9 
REMARK    3  A    between atoms: C6_6  and  O1_8 
REMARK       I    between atoms: C8_9  and  N1_11 
ROOT
ATOM      1  C2  <0> d          -1.239   3.135   0.030  0.00  0.00    -0.059 A 
ATOM      2  C3  <0> d          -1.214   1.749   0.017  0.00  0.00    -0.076 A 
ATOM      3  C4  <0> d          -0.013   1.076   0.008  0.00  0.00    -0.065 A 
ATOM      4  C5  <0> d           1.187   1.792   0.000  0.00  0.00     0.064 A 
ATOM      5  C6  <0> d           1.158   3.193   0.008  0.00  0.00     0.081 A 
ATOM      6  C7  <0> d          -0.061   3.854   0.023  0.00  0.00    -0.044 A 
ATOM      7  H4  <0> d          -2.141   1.195   0.018  0.00  0.00     0.084 H 
ATOM      8  H5  <0> d           0.002  -0.004   0.002  0.00  0.00     0.085 H 
ATOM      9  H6  <0> d          -0.089   4.934   0.029  0.00  0.00     0.088 H 
ENDROOT
BRANCH   4  10
ATOM     10  C8  <0> d           2.478   1.077  -0.016  0.00  0.00     0.252 C 
ATOM     11  O2  <0> d           3.520   1.703  -0.023  0.00  0.00    -0.268 OA
ATOM     12  N1  <0> d           2.502  -0.271  -0.024  0.00  0.00    -0.366 N 
ATOM     13  H8  <0> d           1.670  -0.770  -0.019  0.00  0.00     0.159 HD
ATOM     14  H9  <0> d           3.350  -0.741  -0.035  0.00  0.00     0.159 HD
ENDBRANCH   4  10
BRANCH   5  15
ATOM     15  O1  <0> d           2.316   3.899   0.001  0.00  0.00    -0.360 OA
ATOM     16  H7  <0> d           2.644   4.108  -0.884  0.00  0.00     0.217 HD
ENDBRANCH   5  15
BRANCH   1  17
ATOM     17  C1  <0> d          -2.560   3.860   0.046  0.00  0.00    -0.051 C 
ATOM     18  H1  <0> d          -2.888   4.040  -0.977  0.00  0.00     0.033 H 
ATOM     19  H2  <0> d          -3.302   3.252   0.564  0.00  0.00     0.033 H 
ATOM     20  H3  <0> d          -2.446   4.812   0.564  0.00  0.00     0.033 H 
ENDBRANCH   1  17
TORSDOF 3
