REMARK  3 active torsions:
REMARK  status: ('A' for Active; 'I' for Inactive)
REMARK    1  A    between atoms: C1_1  and  O1_2 
REMARK    2  A    between atoms: O1_2  and  C2_3 
REMARK    3  A    between atoms: C6_8  and  O2_10 
ROOT
ATOM      1  C2  <0> d          -1.965   2.413   0.737  0.00  0.00     0.062 C 
ATOM      2  H1  <0> d          -2.860   1.793   0.695  0.00  0.00     0.087 H 
ATOM      3  C3  <0> d          -1.544   2.853  -0.688  0.00  0.00    -0.038 C 
ATOM      4  C4  <0> d          -0.786   1.611  -1.219  0.00  0.00    -0.060 C 
ATOM      5  C5  <0> d          -0.013   1.086   0.008  0.00  0.00    -0.039 C 
ATOM      6  C6  <0> d          -0.761   1.596   1.252  0.00  0.00     0.060 C 
ATOM      7  H2  <0> d          -1.109   0.754   1.850  0.00  0.00     0.086 H 
ATOM      8  H6  <0> d          -0.884   3.719  -0.645  0.00  0.00     0.036 H 
ATOM      9  H7  <0> d          -2.418   3.065  -1.304  0.00  0.00     0.036 H 
ATOM     10  H8  <0> d          -0.096   1.896  -2.013  0.00  0.00     0.033 H 
ATOM     11  H9  <0> d          -1.488   0.858  -1.578  0.00  0.00     0.033 H 
ATOM     12  H10 <0> d           0.002  -0.004   0.002  0.00  0.00     0.036 H 
ATOM     13  H11 <0> d           1.006   1.473   0.000  0.00  0.00     0.036 H 
ENDROOT
BRANCH   1  14
ATOM     14  O1  <0> d          -2.187   3.554   1.567  0.00  0.00    -0.388 OA
BRANCH  14  15
ATOM     15  C1  <0> d          -3.538   4.020   1.567  0.00  0.00     0.005 C 
ATOM     16  H3  <0> d          -3.825   4.299   0.553  0.00  0.00     0.066 H 
ATOM     17  H4  <0> d          -4.195   3.228   1.926  0.00  0.00     0.066 H 
ATOM     18  H5  <0> d          -3.623   4.888   2.221  0.00  0.00     0.066 H 
ENDBRANCH  14  15
ENDBRANCH   1  14
BRANCH   6  19
ATOM     19  O2  <0> d           0.099   2.429   2.033  0.00  0.00    -0.393 OA
ATOM     20  H12 <0> d           0.886   1.978   2.368  0.00  0.00     0.210 HD
ENDBRANCH   6  19
TORSDOF 3
