REMARK  3 active torsions:
REMARK  status: ('A' for Active; 'I' for Inactive)
REMARK    1  A    between atoms: C1_1  and  C2_2 
REMARK    2  A    between atoms: C2_2  and  C3_3 
REMARK    3  A    between atoms: C6_7  and  C7_9 
ROOT
ATOM      1  C3  <0> d           0.707  -0.490  -1.238  0.00  0.00     0.039 A 
ATOM      2  C4  <0> d           1.788  -1.351  -1.139  0.00  0.00    -0.020 A 
ATOM      3  C5  <0> d           2.402  -1.776  -2.308  0.00  0.00     0.130 A 
ATOM      4  N1  <0> d           1.945  -1.338  -3.471  0.00  0.00    -0.222 NA
ATOM      5  C6  <0> d           0.917  -0.515  -3.526  0.00  0.00     0.124 A 
ATOM      6  N2  <0> d           0.306  -0.095  -2.436  0.00  0.00    -0.238 NA
ATOM      7 Cl1  <0> d           3.756  -2.861  -2.247  0.00  0.00    -0.062 Cl
ATOM      8  H6  <0> d           2.141  -1.687  -0.175  0.00  0.00     0.091 H 
ENDROOT
BRANCH   1   9
ATOM      9  C2  <0> d           0.002  -0.004   0.002  0.00  0.00    -0.028 C 
ATOM     10  H4  <0> d           0.529  -0.365   0.885  0.00  0.00     0.041 H 
ATOM     11  H5  <0> d          -1.020  -0.381   0.010  0.00  0.00     0.041 H 
BRANCH   9  12
ATOM     12  C1  <0> d          -0.019   1.526   0.010  0.00  0.00    -0.071 C 
ATOM     13  H1  <0> d           1.004   1.903   0.003  0.00  0.00     0.028 H 
ATOM     14  H2  <0> d          -0.546   1.887  -0.873  0.00  0.00     0.028 H 
ATOM     15  H3  <0> d          -0.529   1.877   0.907  0.00  0.00     0.028 H 
ENDBRANCH   9  12
ENDBRANCH   1   9
BRANCH   5  16
ATOM     16  C7  <0> d           0.428  -0.041  -4.870  0.00  0.00    -0.019 C 
ATOM     17  H7  <0> d           0.950   0.876  -5.144  0.00  0.00     0.037 H 
ATOM     18  H8  <0> d           0.623  -0.808  -5.619  0.00  0.00     0.037 H 
ATOM     19  H9  <0> d          -0.643   0.153  -4.819  0.00  0.00     0.037 H 
ENDBRANCH   5  16
TORSDOF 3
