REMARK  0 active torsions:
REMARK  status: ('A' for Active; 'I' for Inactive)
ROOT
ATOM      1  C1  <0> d          -0.013   1.086   0.008  0.00  0.00    -0.063 C 
ATOM      2  C2  <0> d          -0.750   1.591  -1.233  0.00  0.00    -0.059 C 
ATOM      3  C3  <0> d          -2.158   0.989  -1.270  0.00  0.00    -0.008 C 
ATOM      4  C4  <0> d          -2.850   1.306   0.038  0.00  0.00     0.144 C 
ATOM      5  O1  <0> d          -3.947   1.810   0.052  0.00  0.00    -0.297 OA
ATOM      6  C5  <0> d          -2.132   0.975   1.328  0.00  0.00     0.087 C 
ATOM      7  H1  <0> d          -2.076  -0.018   1.433  0.00  0.00     0.074 H 
ATOM      8  C6  <0> d          -0.726   1.578   1.269  0.00  0.00    -0.043 C 
ATOM      9  C7  <0> d          -2.869   1.550   2.465  0.00  0.00     0.071 C 
ATOM     10  N1  <0> d          -3.438   1.993   3.343  0.00  0.00    -0.196 NA
ATOM     11  H2  <0> d           0.002  -0.004   0.002  0.00  0.00     0.033 H 
ATOM     12  H3  <0> d           1.010   1.462   0.000  0.00  0.00     0.033 H 
ATOM     13  H4  <0> d          -0.820   2.678  -1.197  0.00  0.00     0.033 H 
ATOM     14  H5  <0> d          -0.203   1.292  -2.128  0.00  0.00     0.033 H 
ATOM     15  H6  <0> d          -2.670   1.384  -2.033  0.00  0.00     0.044 H 
ATOM     16  H7  <0> d          -2.092  -0.091  -1.396  0.00  0.00     0.044 H 
ATOM     17  H8  <0> d          -0.162   1.268   2.149  0.00  0.00     0.035 H 
ATOM     18  H9  <0> d          -0.796   2.665   1.246  0.00  0.00     0.035 H 
ENDROOT
TORSDOF 0
