REMARK  3 active torsions:
REMARK  status: ('A' for Active; 'I' for Inactive)
REMARK    1  A    between atoms: C1_1  and  C2_2 
REMARK       I    between atoms: C2_2  and  N1_4 
REMARK    2  A    between atoms: N1_4  and  C3_5 
REMARK    3  A    between atoms: C7_9  and  N2_11 
ROOT
ATOM      1  C3  <0> d          -0.071  -2.068  -1.121  0.00  0.00     0.036 A 
ATOM      2  C4  <0> d          -0.152  -2.719   0.104  0.00  0.00    -0.057 A 
ATOM      3  C5  <0> d          -0.221  -4.098   0.153  0.00  0.00    -0.079 A 
ATOM      4  C6  <0> d          -0.211  -4.834  -1.016  0.00  0.00    -0.058 A 
ATOM      5  C7  <0> d          -0.131  -4.190  -2.244  0.00  0.00     0.027 A 
ATOM      6  C8  <0> d          -0.066  -2.804  -2.296  0.00  0.00    -0.032 A 
ATOM      7  H5  <0> d          -0.160  -2.146   1.020  0.00  0.00     0.086 H 
ATOM      8  H6  <0> d          -0.283  -4.601   1.106  0.00  0.00     0.083 H 
ATOM      9  H7  <0> d          -0.265  -5.912  -0.975  0.00  0.00     0.086 H 
ATOM     10  H8  <0> d          -0.008  -2.301  -3.250  0.00  0.00     0.090 H 
ENDROOT
BRANCH   1  11
ATOM     11  N1  <0> d           0.000  -0.672  -1.169  0.00  0.00    -0.327 N 
ATOM     12  C2  <0> d          -0.604  -0.000  -2.169  0.00  0.00     0.218 C 
ATOM     13  O1  <0> d          -1.137  -0.609  -3.073  0.00  0.00    -0.274 OA
ATOM     14  H4  <0> d           0.484  -0.187  -0.482  0.00  0.00     0.169 HD
BRANCH  12  15
ATOM     15  C1  <0> d          -0.617   1.507  -2.165  0.00  0.00    -0.003 C 
ATOM     16  H1  <0> d          -1.502   1.861  -1.638  0.00  0.00     0.040 H 
ATOM     17  H2  <0> d           0.278   1.876  -1.663  0.00  0.00     0.040 H 
ATOM     18  H3  <0> d          -0.635   1.873  -3.192  0.00  0.00     0.040 H 
ENDBRANCH  12  15
ENDBRANCH   1  11
BRANCH   5  19
ATOM     19  N2  <0> d          -0.120  -4.935  -3.426  0.00  0.00    -0.399 N 
ATOM     20  H9  <0> d          -0.169  -5.903  -3.389  0.00  0.00     0.156 HD
ATOM     21  H10 <0> d          -0.064  -4.485  -4.283  0.00  0.00     0.156 HD
ENDBRANCH   5  19
TORSDOF 3
