REMARK  3 active torsions:
REMARK  status: ('A' for Active; 'I' for Inactive)
REMARK    1  A    between atoms: C1_1  and  C2_2 
REMARK    2  A    between atoms: C2_2  and  C6_8 
REMARK    3  A    between atoms: C4_4  and  C5_6 
ROOT
ATOM      1  C2  <0> d          -1.150   1.781  -0.743  0.00  0.00     0.059 A 
ATOM      2  C3  <0> d          -1.136   1.773   0.788  0.00  0.00    -0.034 A 
ATOM      3  C4  <0> d          -0.013   1.086   0.008  0.00  0.00     0.048 A 
ATOM      4  H1  <0> d           0.002  -0.004   0.002  0.00  0.00     0.058 H 
ATOM      5  H5  <0> d          -1.859   1.135   1.295  0.00  0.00     0.036 H 
ATOM      6  H6  <0> d          -0.897   2.708   1.294  0.00  0.00     0.036 H 
ENDROOT
BRANCH   1   7
ATOM      7  C1  <0> d          -0.830   3.102  -1.445  0.00  0.00    -0.059 C 
ATOM      8  H2  <0> d          -0.051   2.938  -2.190  0.00  0.00     0.029 H 
ATOM      9  H3  <0> d          -1.727   3.480  -1.935  0.00  0.00     0.029 H 
ATOM     10  H4  <0> d          -0.482   3.829  -0.711  0.00  0.00     0.029 H 
ENDBRANCH   1   7
BRANCH   1  11
ATOM     11  C6  <0> d          -2.164   0.907  -1.434  0.00  0.00     0.182 C 
ATOM     12  O2  <0> d          -2.061  -0.296  -1.382  0.00  0.00    -0.647 OA
ATOM     13  O4  <0> d          -3.183   1.464  -2.107  0.00  0.00    -0.647 OA
ENDBRANCH   1  11
BRANCH   3  14
ATOM     14  C5  <0> d           1.338   1.754  -0.001  0.00  0.00     0.178 C 
ATOM     15  O1  <0> d           1.491   2.799  -0.589  0.00  0.00    -0.648 OA
ATOM     16  O3  <0> d           2.371   1.189   0.643  0.00  0.00    -0.648 OA
ENDBRANCH   3  14
TORSDOF 3
