REMARK  2 active torsions:
REMARK  status: ('A' for Active; 'I' for Inactive)
REMARK    1  A    between atoms: C1_1  and  C2_2 
REMARK    2  A    between atoms: C2_2  and  C3_4 
ROOT
ATOM      1  C3  <0> d          -0.013   1.086   0.008  0.00  0.00     0.007 C 
ATOM      2  H1  <0> d           0.014   0.094   0.134  0.00  0.00     0.052 H 
ATOM      3  C4  <0> d          -0.843   1.761   1.124  0.00  0.00    -0.052 C 
ATOM      4  C5  <0> d          -2.006   2.477   0.371  0.00  0.00    -0.053 C 
ATOM      5  H2  <0> d          -2.881   2.725   0.972  0.00  0.00     0.040 H 
ATOM      6  C6  <0> d          -1.320   3.671  -0.360  0.00  0.00    -0.061 C 
ATOM      7  C7  <0> d          -0.478   3.014  -1.478  0.00  0.00    -0.061 C 
ATOM      8  C8  <0> d          -0.749   1.458  -1.315  0.00  0.00    -0.044 C 
ATOM      9  H3  <0> d          -0.524   0.831  -2.178  0.00  0.00     0.041 H 
ATOM     10  C9  <0> d          -2.241   1.479  -0.817  0.00  0.00    -0.058 C 
ATOM     11  H7  <0> d          -1.239   1.011   1.809  0.00  0.00     0.034 H 
ATOM     12  H8  <0> d          -0.235   2.487   1.663  0.00  0.00     0.034 H 
ATOM     13  H9  <0> d          -2.071   4.335  -0.790  0.00  0.00     0.033 H 
ATOM     14  H10 <0> d          -0.678   4.221   0.329  0.00  0.00     0.033 H 
ATOM     15  H11 <0> d          -0.814   3.354  -2.457  0.00  0.00     0.033 H 
ATOM     16  H12 <0> d           0.579   3.241  -1.340  0.00  0.00     0.033 H 
ATOM     17  H13 <0> d          -2.570   0.499  -0.469  0.00  0.00     0.034 H 
ATOM     18  H14 <0> d          -2.916   1.889  -1.568  0.00  0.00     0.034 H 
ENDROOT
BRANCH   1  19
ATOM     19  C2  <0> d           1.393   1.629  -0.003  0.00  0.00     0.127 C 
ATOM     20  O1  <0> d           1.627   2.708   0.487  0.00  0.00    -0.298 OA
BRANCH  19  21
ATOM     21  C1  <0> d           2.507   0.826  -0.624  0.00  0.00    -0.021 C 
ATOM     22  H4  <0> d           2.587   1.062  -1.592  0.00  0.00     0.037 H 
ATOM     23  H5  <0> d           3.444   1.052  -0.116  0.00  0.00     0.037 H 
ATOM     24  H6  <0> d           2.287  -0.237  -0.525  0.00  0.00     0.037 H 
ENDBRANCH  19  21
ENDBRANCH   1  19
TORSDOF 2
