REMARK  2 active torsions:
REMARK  status: ('A' for Active; 'I' for Inactive)
REMARK    1  A    between atoms: C3_3  and  C6_8 
REMARK    2  A    between atoms: C6_8  and  C7_9 
ROOT
ATOM      1  C1  <0> d           3.950   5.476  -0.799  0.00  0.00    -0.058 C 
ATOM      2  C2  <0> d           2.773   5.083   0.129  0.00  0.00    -0.054 C 
ATOM      3  C3  <0> d           2.696   3.548  -0.005  0.00  0.00     0.013 C 
ATOM      4  H1  <0> d           3.183   3.122   0.758  0.00  0.00     0.052 H 
ATOM      5  C4  <0> d           3.339   3.190  -1.329  0.00  0.00     0.131 C 
ATOM      6  O1  <0> d           3.473   2.079  -1.782  0.00  0.00    -0.298 OA
ATOM      7  C5  <0> d           3.784   4.487  -1.980  0.00  0.00    -0.009 C 
ATOM      8  H2  <0> d           3.849   6.506  -1.139  0.00  0.00     0.033 H 
ATOM      9  H3  <0> d           4.906   5.324  -0.298  0.00  0.00     0.033 H 
ATOM     10  H4  <0> d           1.846   5.544  -0.212  0.00  0.00     0.034 H 
ATOM     11  H5  <0> d           2.986   5.367   1.160  0.00  0.00     0.034 H 
ATOM     12  H6  <0> d           3.104   4.845  -2.621  0.00  0.00     0.044 H 
ATOM     13  H7  <0> d           4.733   4.350  -2.498  0.00  0.00     0.044 H 
ENDROOT
BRANCH   3  14
ATOM     14  C6  <0> d           1.235   3.094   0.007  0.00  0.00     0.025 C 
ATOM     15  H8  <0> d           0.727   3.482  -0.876  0.00  0.00     0.050 H 
ATOM     16  H9  <0> d           0.744   3.473   0.904  0.00  0.00     0.050 H 
BRANCH  14  17
ATOM     17  C7  <0> d           1.177   1.588  -0.001  0.00  0.00     0.173 C 
ATOM     18  O2  <0> d           2.199   0.944  -0.014  0.00  0.00    -0.648 OA
ATOM     19  O3  <0> d          -0.011   0.963   0.007  0.00  0.00    -0.648 OA
ENDBRANCH  14  17
ENDBRANCH   3  14
TORSDOF 2
