REMARK  3 active torsions:
REMARK  status: ('A' for Active; 'I' for Inactive)
REMARK    1  A    between atoms: C1_1  and  N1_2 
REMARK    2  A    between atoms: C3_4  and  N3_9 
REMARK    3  A    between atoms: C4_5  and  C5_7 
ROOT
ATOM      1  N1  <0> d          -2.718   3.529   0.034  0.00  0.00    -0.282 N 
ATOM      2  C2  <0> d          -3.462   2.392   0.032  0.00  0.00     0.026 A 
ATOM      3  C3  <0> d          -2.594   1.346   0.022  0.00  0.00     0.081 A 
ATOM      4  C4  <0> d          -1.300   1.930   0.019  0.00  0.00     0.180 A 
ATOM      5  N2  <0> d          -1.467   3.240   0.032  0.00  0.00    -0.164 NA
ATOM      6  H4  <0> d          -4.541   2.330   0.036  0.00  0.00     0.117 H 
ENDROOT
BRANCH   1   7
ATOM      7  C1  <0> d          -3.265   4.888   0.043  0.00  0.00     0.002 C 
ATOM      8  H1  <0> d          -3.396   5.220   1.073  0.00  0.00     0.059 H 
ATOM      9  H2  <0> d          -2.577   5.559  -0.470  0.00  0.00     0.059 H 
ATOM     10  H3  <0> d          -4.228   4.896  -0.466  0.00  0.00     0.059 H 
ENDBRANCH   1   7
BRANCH   4  11
ATOM     11  C5  <0> d          -0.014   1.211   0.009  0.00  0.00     0.233 C 
ATOM     12  O1  <0> d           0.002  -0.004   0.002  0.00  0.00    -0.643 OA
ATOM     13  O2  <0> d           1.143   1.901   0.001  0.00  0.00    -0.643 OA
ENDBRANCH   4  11
BRANCH   3  14
ATOM     14  N3  <0> d          -2.909  -0.020   0.015  0.00  0.00    -0.396 N 
ATOM     15  H5  <0> d          -2.199  -0.682   0.008  0.00  0.00     0.156 HD
ATOM     16  H6  <0> d          -3.836  -0.304   0.018  0.00  0.00     0.156 HD
ENDBRANCH   3  14
TORSDOF 3
