REMARK  1 active torsions:
REMARK  status: ('A' for Active; 'I' for Inactive)
REMARK    1  A    between atoms: C6_6  and  C7_7 
ROOT
ATOM      1  C1  <0> d          -0.013   1.076   0.008  0.00  0.00    -0.068 A 
ATOM      2  C2  <0> d           1.172   1.783   0.000  0.00  0.00    -0.045 A 
ATOM      3  C3  <0> d           1.154   3.168   0.007  0.00  0.00     0.116 A 
ATOM      4  C4  <0> d          -0.052   3.851   0.021  0.00  0.00    -0.045 A 
ATOM      5  C5  <0> d          -1.242   3.153   0.030  0.00  0.00    -0.068 A 
ATOM      6  C6  <0> d          -1.229   1.758   0.017  0.00  0.00    -0.003 A 
ATOM      7  F1  <0> d           2.317   3.857  -0.001  0.00  0.00    -0.206 F 
ATOM      8  H1  <0> d           0.002  -0.004   0.002  0.00  0.00     0.085 H 
ATOM      9  H2  <0> d           2.114   1.256  -0.011  0.00  0.00     0.088 H 
ATOM     10  H3  <0> d          -0.060   4.931   0.026  0.00  0.00     0.088 H 
ATOM     11  H4  <0> d          -2.181   3.685   0.041  0.00  0.00     0.085 H 
ENDROOT
BRANCH   6  12
ATOM     12  C7  <0> d          -2.503   1.004   0.020  0.00  0.00     0.077 A 
ATOM     13  O1  <0> d          -2.817  -0.313   0.009  0.00  0.00    -0.347 OA
ATOM     14  C9  <0> d          -4.224  -0.082   0.022  0.00  0.00     0.044 A 
ATOM     15  C8  <0> d          -3.783   1.355   0.028  0.00  0.00    -0.047 A 
ATOM     16  H6  <0> d          -4.728  -0.403   0.934  0.00  0.00     0.081 H 
ATOM     17  H7  <0> d          -4.737  -0.392  -0.889  0.00  0.00     0.081 H 
ATOM     18  H5  <0> d          -4.303   2.302   0.036  0.00  0.00     0.084 H 
ENDBRANCH   6  12
TORSDOF 1
