REMARK  3 active torsions:
REMARK  status: ('A' for Active; 'I' for Inactive)
REMARK    1  A    between atoms: C1_1  and  N1_2 
REMARK       I    between atoms: N1_2  and  C2_3 
REMARK    2  A    between atoms: C2_3  and  C3_5 
REMARK    3  A    between atoms: C3_5  and  C4_6 
ROOT
ATOM      1  C3  <0> d          -1.330   1.944   0.019  0.00  0.00     0.039 C 
ATOM      2  H5  <0> d          -1.392   2.565   0.913  0.00  0.00     0.055 H 
ATOM      3  H6  <0> d          -1.400   2.575  -0.867  0.00  0.00     0.055 H 
ENDROOT
BRANCH   1   4
ATOM      4  C2  <0> d          -0.014   1.209   0.009  0.00  0.00     0.222 C 
ATOM      5  N1  <0> d           1.143   1.898   0.001  0.00  0.00    -0.365 N 
ATOM      6  H4  <0> d           1.130   2.868   0.007  0.00  0.00     0.161 HD
ATOM      7  O1  <0> d           0.002  -0.004   0.002  0.00  0.00    -0.273 OA
BRANCH   5   8
ATOM      8  C1  <0> d           2.422   1.183  -0.015  0.00  0.00    -0.018 C 
ATOM      9  H1  <0> d           3.241   1.903  -0.019  0.00  0.00     0.056 H 
ATOM     10  H2  <0> d           2.497   0.553   0.871  0.00  0.00     0.056 H 
ATOM     11  H3  <0> d           2.480   0.562  -0.909  0.00  0.00     0.056 H 
ENDBRANCH   5   8
ENDBRANCH   1   4
BRANCH   1  12
ATOM     12  C4  <0> d          -2.462   0.950   0.019  0.00  0.00    -0.009 A 
ATOM     13  S1  <0> d          -3.312   0.214  -1.368  0.00  0.00    -0.106 SA
ATOM     14  C7  <0> d          -4.458  -0.802  -0.451  0.00  0.00    -0.045 A 
ATOM     15  C6  <0> d          -4.121  -0.517   0.831  0.00  0.00    -0.076 A 
ATOM     16  H9  <0> d          -5.222  -1.470  -0.821  0.00  0.00     0.095 H 
ATOM     17  C5  <0> d          -3.094   0.376   1.072  0.00  0.00    -0.069 A 
ATOM     18  H8  <0> d          -4.644  -0.985   1.652  0.00  0.00     0.084 H 
ATOM     19  H7  <0> d          -2.802   0.616   2.083  0.00  0.00     0.085 H 
ENDBRANCH   1  12
TORSDOF 3
