REMARK  3 active torsions:
REMARK  status: ('A' for Active; 'I' for Inactive)
REMARK    1  A    between atoms: C1_1  and  C2_2 
REMARK    2  A    between atoms: C2_2  and  C3_3 
REMARK    3  A    between atoms: C6_6  and  C8_9 
ROOT
ATOM      1  C3  <0> d          -1.961   2.449   3.502  0.00  0.00    -0.041 A 
ATOM      2  C4  <0> d          -2.723   2.228   2.365  0.00  0.00    -0.074 A 
ATOM      3  C5  <0> d          -2.083   1.787   1.217  0.00  0.00    -0.059 A 
ATOM      4  C6  <0> d          -0.718   1.572   1.248  0.00  0.00     0.030 A 
ATOM      5  N1  <0> d          -0.025   1.792   2.348  0.00  0.00    -0.265 NA
ATOM      6  C7  <0> d          -0.600   2.218   3.456  0.00  0.00     0.009 A 
ATOM      7  H6  <0> d          -3.789   2.400   2.372  0.00  0.00     0.084 H 
ATOM      8  H7  <0> d          -2.645   1.609   0.312  0.00  0.00     0.086 H 
ATOM      9  H8  <0> d           0.001   2.388   4.337  0.00  0.00     0.115 H 
ENDROOT
BRANCH   1  10
ATOM     10  C2  <0> d          -2.610   2.934   4.773  0.00  0.00    -0.043 C 
ATOM     11  H4  <0> d          -3.636   2.569   4.820  0.00  0.00     0.039 H 
ATOM     12  H5  <0> d          -2.052   2.560   5.632  0.00  0.00     0.039 H 
BRANCH  10  13
ATOM     13  C1  <0> d          -2.612   4.464   4.793  0.00  0.00    -0.073 C 
ATOM     14  H1  <0> d          -3.081   4.815   5.712  0.00  0.00     0.028 H 
ATOM     15  H2  <0> d          -1.586   4.829   4.746  0.00  0.00     0.028 H 
ATOM     16  H3  <0> d          -3.170   4.838   3.934  0.00  0.00     0.028 H 
ENDBRANCH  10  13
ENDBRANCH   1  10
BRANCH   4  17
ATOM     17  C8  <0> d          -0.013   1.086   0.008  0.00  0.00    -0.035 C 
ATOM     18  H9  <0> d           0.002  -0.004   0.002  0.00  0.00     0.035 H 
ATOM     19  H10 <0> d           1.010   1.463   0.000  0.00  0.00     0.035 H 
ATOM     20  H11 <0> d          -0.540   1.447  -0.875  0.00  0.00     0.035 H 
ENDBRANCH   4  17
TORSDOF 3
