REMARK  2 active torsions:
REMARK  status: ('A' for Active; 'I' for Inactive)
REMARK    1  A    between atoms: C1_1  and  C2_2 
REMARK    2  A    between atoms: C4_4  and  C7_9 
ROOT
ATOM      1  C2  <0> d           2.379   1.341  -0.013  0.00  0.00     0.008 A 
ATOM      2  C3  <0> d           1.207   2.071   0.002  0.00  0.00    -0.045 A 
ATOM      3  C4  <0> d          -0.017   1.392   0.010  0.00  0.00     0.046 A 
ATOM      4  C5  <0> d           0.002  -0.004   0.002  0.00  0.00    -0.014 A 
ATOM      5  C6  <0> d           1.226  -0.659  -0.013  0.00  0.00     0.180 A 
ATOM      6  N1  <0> d           2.358   0.023  -0.020  0.00  0.00    -0.339 N 
ATOM      7  O1  <0> d           1.260  -2.016  -0.021  0.00  0.00    -0.172 OA
ATOM      8  H4  <0> d           1.235   3.150   0.007  0.00  0.00     0.088 H 
ATOM      9  H5  <0> d          -0.921  -0.565   0.007  0.00  0.00     0.091 H 
ATOM     10  H6  <0> d           3.302  -0.542  -0.032  0.00  0.00     0.168 HD
ENDROOT
BRANCH   1  11
ATOM     11  C1  <0> d           3.702   2.063  -0.022  0.00  0.00    -0.037 C 
ATOM     12  H1  <0> d           3.528   3.149  -0.015  0.00  0.00     0.035 H 
ATOM     13  H2  <0> d           4.264   1.788  -0.927  0.00  0.00     0.035 H 
ATOM     14  H3  <0> d           4.281   1.778   0.869  0.00  0.00     0.035 H 
ENDBRANCH   1  11
BRANCH   3  15
ATOM     15  C7  <0> d          -1.298   2.135   0.020  0.00  0.00     0.209 C 
ATOM     16  O2  <0> d          -1.295   3.349   0.026  0.00  0.00    -0.644 OA
ATOM     17  O3  <0> d          -2.465   1.464   0.022  0.00  0.00    -0.644 OA
ENDBRANCH   3  15
TORSDOF 2
