REMARK  2 active torsions:
REMARK  status: ('A' for Active; 'I' for Inactive)
REMARK    1  A    between atoms: C1_1  and  C2_2 
REMARK    2  A    between atoms: C6_6  and  O1_8 
ROOT
ATOM      1  C2  <0> d          -1.240   3.135   0.030  0.00  0.00    -0.059 A 
ATOM      2  C3  <0> d          -1.215   1.750   0.017  0.00  0.00    -0.076 A 
ATOM      3  C4  <0> d          -0.013   1.076   0.008  0.00  0.00    -0.060 A 
ATOM      4  C5  <0> d           1.187   1.792   0.000  0.00  0.00     0.077 A 
ATOM      5  C6  <0> d           1.157   3.193   0.008  0.00  0.00     0.086 A 
ATOM      6  C7  <0> d          -0.061   3.854   0.022  0.00  0.00    -0.044 A 
ATOM      7  C8  <0> d           2.440   1.098  -0.015  0.00  0.00     0.102 C 
ATOM      8  N1  <0> d           3.433   0.548  -0.028  0.00  0.00    -0.191 NA
ATOM      9  H4  <0> d          -2.142   1.195   0.019  0.00  0.00     0.084 H 
ATOM     10  H5  <0> d           0.002  -0.004   0.002  0.00  0.00     0.086 H 
ATOM     11  H6  <0> d          -0.088   4.934   0.028  0.00  0.00     0.088 H 
ENDROOT
BRANCH   5  12
ATOM     12  O1  <0> d           2.316   3.899   0.001  0.00  0.00    -0.359 OA
ATOM     13  H7  <0> d           2.644   4.109  -0.884  0.00  0.00     0.217 HD
ENDBRANCH   5  12
BRANCH   1  14
ATOM     14  C1  <0> d          -2.560   3.860   0.046  0.00  0.00    -0.051 C 
ATOM     15  H1  <0> d          -2.888   4.040  -0.978  0.00  0.00     0.033 H 
ATOM     16  H2  <0> d          -3.302   3.252   0.564  0.00  0.00     0.033 H 
ATOM     17  H3  <0> d          -2.446   4.812   0.563  0.00  0.00     0.033 H 
ENDBRANCH   1  14
TORSDOF 2
