REMARK  0 active torsions:
REMARK  status: ('A' for Active; 'I' for Inactive)
ROOT
ATOM      1  C1  <0> d          -2.058   5.373  -0.641  0.00  0.00    -0.080 A 
ATOM      2  C2  <0> d          -2.045   5.365   0.741  0.00  0.00    -0.080 A 
ATOM      3  C3  <0> d          -1.625   4.240   1.426  0.00  0.00    -0.048 A 
ATOM      4  C4  <0> d          -1.217   3.118   0.727  0.00  0.00     0.111 A 
ATOM      5  C5  <0> d          -1.230   3.125  -0.667  0.00  0.00     0.111 A 
ATOM      6  C6  <0> d          -1.651   4.255  -1.346  0.00  0.00    -0.048 A 
ATOM      7  O1  <0> d          -0.784   1.907  -1.105  0.00  0.00    -0.256 OA
ATOM      8  C7  <0> d          -0.017   1.395   0.010  0.00  0.00     0.498 C 
ATOM      9  O2  <0> d          -0.763   1.895   1.144  0.00  0.00    -0.256 OA
ATOM     10  F1  <0> d           0.002  -0.004   0.002  0.00  0.00    -0.147 F 
ATOM     11  F2  <0> d           1.284   1.910   0.000  0.00  0.00    -0.147 F 
ATOM     12  H1  <0> d          -2.387   6.254  -1.172  0.00  0.00     0.083 H 
ATOM     13  H2  <0> d          -2.364   6.240   1.287  0.00  0.00     0.083 H 
ATOM     14  H3  <0> d          -1.617   4.237   2.506  0.00  0.00     0.087 H 
ATOM     15  H4  <0> d          -1.662   4.263  -2.426  0.00  0.00     0.087 H 
ENDROOT
TORSDOF 0
