REMARK  0 active torsions:
REMARK  status: ('A' for Active; 'I' for Inactive)
ROOT
ATOM      1  C1  <0> d          -2.637   4.719   0.740  0.00  0.00    -0.064 C 
ATOM      2  C2  <0> d          -1.855   4.661   2.077  0.00  0.00    -0.064 C 
ATOM      3  C3  <0> d          -0.950   3.417   1.934  0.00  0.00    -0.056 C 
ATOM      4  C4  <0> d          -0.781   3.185   0.433  0.00  0.00    -0.016 C 
ATOM      5  C5  <0> d          -1.579   4.267  -0.300  0.00  0.00    -0.056 C 
ATOM      6  C6  <0> d           0.697   3.204   0.021  0.00  0.00     0.018 C 
ATOM      7  C7  <0> d           1.089   1.740   0.001  0.00  0.00     0.218 C 
ATOM      8  O1  <0> d           2.229   1.327  -0.017  0.00  0.00    -0.274 OA
ATOM      9  N1  <0> d          -0.011   0.966   0.007  0.00  0.00    -0.360 N 
ATOM     10  C8  <0> d          -1.236   1.779   0.017  0.00  0.00     0.003 C 
ATOM     11  H1  <0> d          -3.482   4.030   0.757  0.00  0.00     0.033 H 
ATOM     12  H2  <0> d          -2.972   5.736   0.533  0.00  0.00     0.033 H 
ATOM     13  H3  <0> d          -2.541   4.539   2.915  0.00  0.00     0.033 H 
ATOM     14  H4  <0> d          -1.251   5.559   2.205  0.00  0.00     0.033 H 
ATOM     15  H5  <0> d          -1.426   2.551   2.395  0.00  0.00     0.034 H 
ATOM     16  H6  <0> d           0.020   3.602   2.396  0.00  0.00     0.034 H 
ATOM     17  H7  <0> d          -0.932   5.100  -0.574  0.00  0.00     0.034 H 
ATOM     18  H8  <0> d          -2.064   3.852  -1.184  0.00  0.00     0.034 H 
ATOM     19  H9  <0> d           1.291   3.749   0.754  0.00  0.00     0.048 H 
ATOM     20  H10 <0> d           0.812   3.644  -0.970  0.00  0.00     0.048 H 
ATOM     21  H11 <0> d           0.002  -0.004   0.002  0.00  0.00     0.162 HD
ATOM     22  H12 <0> d          -1.682   1.802  -0.977  0.00  0.00     0.065 H 
ATOM     23  H13 <0> d          -1.947   1.383   0.742  0.00  0.00     0.065 H 
ENDROOT
TORSDOF 0
