REMARK  5 active torsions:
REMARK  status: ('A' for Active; 'I' for Inactive)
REMARK    1  A    between atoms: C1_1  and  N1_2 
REMARK    2  A    between atoms: N1_2  and  C2_3 
REMARK    3  A    between atoms: N1_2  and  C3_4 
REMARK    4  A    between atoms: C6_7  and  O1_10 
REMARK    5  A    between atoms: O1_10  and  C9_11 
ROOT
ATOM      1  C3  <0> d           1.214  -0.681  -0.014  0.00  0.00     0.029 A 
ATOM      2  C4  <0> d           0.002  -0.004  -0.014  0.00  0.00    -0.055 A 
ATOM      3  C5  <0> d          -0.017   1.377  -0.008  0.00  0.00    -0.049 A 
ATOM      4  C6  <0> d           1.174   2.087  -0.001  0.00  0.00     0.068 A 
ATOM      5  C7  <0> d           2.386   1.411  -0.002  0.00  0.00    -0.049 A 
ATOM      6  C8  <0> d           2.406   0.030  -0.008  0.00  0.00    -0.055 A 
ATOM      7  H7  <0> d          -0.926  -0.557  -0.019  0.00  0.00     0.087 H 
ATOM      8  H8  <0> d          -0.960   1.904  -0.012  0.00  0.00     0.087 H 
ATOM      9  H9  <0> d           3.313   1.965   0.003  0.00  0.00     0.087 H 
ATOM     10  H10 <0> d           3.349  -0.496  -0.008  0.00  0.00     0.087 H 
ENDROOT
BRANCH   1  11
ATOM     11  N1  <0> d           1.234  -2.081  -0.021  0.00  0.00    -0.390 N 
BRANCH  11  12
ATOM     12  C1  <0> d          -0.018  -2.832   0.100  0.00  0.00    -0.019 C 
ATOM     13  H1  <0> d          -0.429  -3.015  -0.893  0.00  0.00     0.056 H 
ATOM     14  H2  <0> d           0.175  -3.784   0.594  0.00  0.00     0.056 H 
ATOM     15  H3  <0> d          -0.732  -2.255   0.688  0.00  0.00     0.056 H 
ENDBRANCH  11  12
BRANCH  11  16
ATOM     16  C2  <0> d           2.507  -2.795  -0.147  0.00  0.00    -0.019 C 
ATOM     17  H4  <0> d           3.328  -2.078  -0.134  0.00  0.00     0.056 H 
ATOM     18  H5  <0> d           2.618  -3.490   0.685  0.00  0.00     0.056 H 
ATOM     19  H6  <0> d           2.522  -3.347  -1.086  0.00  0.00     0.056 H 
ENDBRANCH  11  16
ENDBRANCH   1  11
BRANCH   4  20
ATOM     20  O1  <0> d           1.155   3.447   0.005  0.00  0.00    -0.356 OA
BRANCH  20  21
ATOM     21  C9  <0> d           2.419   4.114   0.011  0.00  0.00     0.010 C 
ATOM     22  H11 <0> d           2.978   3.825   0.901  0.00  0.00     0.066 H 
ATOM     23  H12 <0> d           2.982   3.833  -0.879  0.00  0.00     0.066 H 
ATOM     24  H13 <0> d           2.260   5.192   0.015  0.00  0.00     0.066 H 
ENDBRANCH  20  21
ENDBRANCH   4  20
TORSDOF 5
