REMARK  1 active torsions:
REMARK  status: ('A' for Active; 'I' for Inactive)
REMARK    1  A    between atoms: C1_1  and  C2_2 
ROOT
ATOM      1  C2  <0> d          -0.718   1.572   1.248  0.00  0.00     0.063 A 
ATOM      2  C3  <0> d          -0.094   1.860   2.535  0.00  0.00     0.018 A 
ATOM      3  C4  <0> d           1.219   1.796   3.016  0.00  0.00    -0.069 A 
ATOM      4  C5  <0> d           1.482   2.143   4.309  0.00  0.00    -0.082 A 
ATOM      5  C6  <0> d           0.459   2.561   5.152  0.00  0.00    -0.081 A 
ATOM      6  C7  <0> d          -0.831   2.632   4.706  0.00  0.00    -0.055 A 
ATOM      7  C8  <0> d          -1.129   2.283   3.391  0.00  0.00     0.062 A 
ATOM      8  N1  <0> d          -2.287   2.247   2.658  0.00  0.00    -0.277 N 
ATOM      9  H1  <0> d          -3.196   2.490   2.996  0.00  0.00     0.189 HD
ATOM     10  N2  <0> d          -1.993   1.815   1.360  0.00  0.00    -0.179 NA
ATOM     11  H5  <0> d           2.019   1.472   2.367  0.00  0.00     0.085 H 
ATOM     12  H6  <0> d           2.494   2.094   4.681  0.00  0.00     0.083 H 
ATOM     13  H7  <0> d           0.685   2.832   6.172  0.00  0.00     0.083 H 
ATOM     14  H8  <0> d          -1.616   2.958   5.371  0.00  0.00     0.087 H 
ENDROOT
BRANCH   1  15
ATOM     15  C1  <0> d          -0.013   1.086   0.008  0.00  0.00    -0.033 C 
ATOM     16  H2  <0> d           0.002  -0.004   0.002  0.00  0.00     0.035 H 
ATOM     17  H3  <0> d           1.010   1.463   0.000  0.00  0.00     0.035 H 
ATOM     18  H4  <0> d          -0.540   1.447  -0.875  0.00  0.00     0.035 H 
ENDBRANCH   1  15
TORSDOF 1
