REMARK  4 active torsions:
REMARK  status: ('A' for Active; 'I' for Inactive)
REMARK    1  A    between atoms: C1_1  and  C2_2 
REMARK    2  A    between atoms: C5_7  and  C7_11 
REMARK    3  A    between atoms: C7_11  and  C8_12 
REMARK    4  A    between atoms: C7_11  and  C9_13 
ROOT
ATOM      1  C2  <0> d          -0.916   3.297   1.120  0.00  0.00     0.049 C 
ATOM      2  H1  <0> d          -0.183   3.420   1.917  0.00  0.00     0.084 H 
ATOM      3  C3  <0> d          -1.133   1.772   0.794  0.00  0.00    -0.011 A 
ATOM      4  H2  <0> d          -1.826   1.175   1.387  0.00  0.00     0.045 H 
ATOM      5  C4  <0> d          -0.013   1.086   0.008  0.00  0.00    -0.042 A 
ATOM      6  C5  <0> d          -1.147   1.779  -0.749  0.00  0.00     0.057 A 
ATOM      7  C6  <0> d          -0.970   3.228  -1.155  0.00  0.00     0.268 C 
ATOM      8  O1  <0> d          -1.268   3.706  -2.224  0.00  0.00    -0.264 OA
ATOM      9  O2  <0> d          -0.423   3.890  -0.119  0.00  0.00    -0.315 OA
ATOM     10  H6  <0> d           0.002  -0.004   0.002  0.00  0.00     0.035 H 
ATOM     11  H7  <0> d           0.965   1.569   0.001  0.00  0.00     0.035 H 
ENDROOT
BRANCH   6  12
ATOM     12  C7  <0> d          -2.143   0.937  -1.548  0.00  0.00    -0.044 C 
ATOM     13  H8  <0> d          -3.160   1.231  -1.285  0.00  0.00     0.040 H 
BRANCH  12  14
ATOM     14  C8  <0> d          -1.918   1.163  -3.044  0.00  0.00    -0.072 C 
ATOM     15  H9  <0> d          -2.628   0.563  -3.613  0.00  0.00     0.028 H 
ATOM     16  H10 <0> d          -2.063   2.218  -3.278  0.00  0.00     0.028 H 
ATOM     17  H11 <0> d          -0.901   0.869  -3.307  0.00  0.00     0.028 H 
ENDBRANCH  12  14
BRANCH  12  18
ATOM     18  C9  <0> d          -1.939  -0.543  -1.219  0.00  0.00    -0.072 C 
ATOM     19  H12 <0> d          -2.100  -0.704  -0.153  0.00  0.00     0.028 H 
ATOM     20  H13 <0> d          -2.649  -1.143  -1.788  0.00  0.00     0.028 H 
ATOM     21  H14 <0> d          -0.923  -0.837  -1.481  0.00  0.00     0.028 H 
ENDBRANCH  12  18
ENDBRANCH   6  12
BRANCH   1  22
ATOM     22  C1  <0> d          -2.248   3.934   1.521  0.00  0.00    -0.051 C 
ATOM     23  H3  <0> d          -2.975   3.792   0.720  0.00  0.00     0.030 H 
ATOM     24  H4  <0> d          -2.616   3.463   2.433  0.00  0.00     0.030 H 
ATOM     25  H5  <0> d          -2.103   5.000   1.696  0.00  0.00     0.030 H 
ENDBRANCH   1  22
TORSDOF 4
