REMARK  4 active torsions:
REMARK  status: ('A' for Active; 'I' for Inactive)
REMARK    1  A    between atoms: C1_1  and  C2_2 
REMARK    2  A    between atoms: C3_3  and  C4_4 
REMARK    3  A    between atoms: C4_4  and  C5_5 
REMARK    4  A    between atoms: C8_8  and  O1_11 
ROOT
ATOM      1  C5  <0> d          -0.017  -2.656  -2.282  0.00  0.00    -0.055 A 
ATOM      2  C6  <0> d          -1.374  -2.910  -2.352  0.00  0.00    -0.074 A 
ATOM      3  C7  <0> d          -1.933  -3.366  -3.531  0.00  0.00    -0.051 A 
ATOM      4  C8  <0> d          -1.129  -3.580  -4.641  0.00  0.00     0.065 A 
ATOM      5  C9  <0> d           0.234  -3.331  -4.566  0.00  0.00    -0.051 A 
ATOM      6  C10 <0> d           0.787  -2.869  -3.387  0.00  0.00    -0.074 A 
ATOM      7  H8  <0> d          -1.999  -2.747  -1.487  0.00  0.00     0.084 H 
ATOM      8  H9  <0> d          -2.994  -3.559  -3.586  0.00  0.00     0.087 H 
ATOM      9  H10 <0> d           0.862  -3.496  -5.429  0.00  0.00     0.087 H 
ATOM     10  H11 <0> d           1.847  -2.675  -3.329  0.00  0.00     0.084 H 
ENDROOT
BRANCH   1  11
ATOM     11  C4  <0> d           0.589  -2.153  -0.998  0.00  0.00    -0.026 C 
ATOM     12  H6  <0> d           1.619  -2.503  -0.920  0.00  0.00     0.045 H 
ATOM     13  H7  <0> d           0.013  -2.529  -0.152  0.00  0.00     0.045 H 
BRANCH  11  14
ATOM     14  C3  <0> d           0.569  -0.646  -0.989  0.00  0.00    -0.103 C 
ATOM     15  C2  <0> d           0.002  -0.004   0.002  0.00  0.00    -0.110 C 
ATOM     16  H4  <0> d          -0.451  -0.555   0.813  0.00  0.00     0.075 H 
ATOM     17  H5  <0> d           1.021  -0.095  -1.801  0.00  0.00     0.076 H 
BRANCH  15  18
ATOM     18  C1  <0> d          -0.018   1.503   0.010  0.00  0.00    -0.060 C 
ATOM     19  H1  <0> d           1.004   1.880   0.003  0.00  0.00     0.032 H 
ATOM     20  H2  <0> d          -0.545   1.864  -0.873  0.00  0.00     0.032 H 
ATOM     21  H3  <0> d          -0.529   1.854   0.907  0.00  0.00     0.032 H 
ENDBRANCH  15  18
ENDBRANCH  11  14
ENDBRANCH   1  11
BRANCH   4  22
ATOM     22  O1  <0> d          -1.675  -4.034  -5.799  0.00  0.00    -0.361 OA
ATOM     23  H12 <0> d          -1.695  -4.998  -5.874  0.00  0.00     0.217 HD
ENDBRANCH   4  22
TORSDOF 4
