REMARK  3 active torsions:
REMARK  status: ('A' for Active; 'I' for Inactive)
REMARK    1  A    between atoms: C1_1  and  C2_2 
REMARK    2  A    between atoms: C5_5  and  N1_9 
REMARK    3  A    between atoms: C7_7  and  O1_8 
ROOT
ATOM      1  C2  <0> d           1.155   3.437   0.009  0.00  0.00    -0.026 A 
ATOM      2  C3  <0> d           1.171   2.054   0.002  0.00  0.00    -0.035 A 
ATOM      3  C4  <0> d          -0.016   1.347   0.009  0.00  0.00     0.143 A 
ATOM      4  C5  <0> d          -1.230   2.026   0.019  0.00  0.00     0.067 A 
ATOM      5  C6  <0> d          -1.247   3.413   0.032  0.00  0.00    -0.022 A 
ATOM      6  C7  <0> d          -0.053   4.118   0.025  0.00  0.00     0.073 A 
ATOM      7  F1  <0> d           0.002  -0.004   0.002  0.00  0.00    -0.204 F 
ATOM      8  H4  <0> d           2.113   1.526  -0.009  0.00  0.00     0.089 H 
ATOM      9  H5  <0> d          -2.188   3.943   0.044  0.00  0.00     0.091 H 
ENDROOT
BRANCH   1  10
ATOM     10  C1  <0> d           2.452   4.205   0.002  0.00  0.00    -0.049 C 
ATOM     11  H1  <0> d           2.755   4.395  -1.028  0.00  0.00     0.033 H 
ATOM     12  H2  <0> d           2.316   5.153   0.522  0.00  0.00     0.033 H 
ATOM     13  H3  <0> d           3.223   3.621   0.505  0.00  0.00     0.033 H 
ENDBRANCH   1  10
BRANCH   6  14
ATOM     14  O1  <0> d          -0.067   5.478   0.033  0.00  0.00    -0.360 OA
ATOM     15  H6  <0> d          -0.079   5.876  -0.849  0.00  0.00     0.217 HD
ENDBRANCH   6  14
BRANCH   4  16
ATOM     16  N1  <0> d          -2.433   1.312   0.021  0.00  0.00    -0.397 N 
ATOM     17  H7  <0> d          -2.420   0.342   0.015  0.00  0.00     0.156 HD
ATOM     18  H8  <0> d          -3.279   1.786   0.027  0.00  0.00     0.156 HD
ENDBRANCH   4  16
TORSDOF 3
