REMARK  1 active torsions:
REMARK  status: ('A' for Active; 'I' for Inactive)
REMARK    1  A    between atoms: C2_2  and  N3_6 
ROOT
ATOM      1  C1  <0> d          -2.449   1.015   0.019  0.00  0.00     0.020 A 
ATOM      2  C2  <0> d          -1.237   1.651   0.017  0.00  0.00     0.152 A 
ATOM      3  N1  <0> d          -1.325   2.967   0.030  0.00  0.00    -0.124 NA
ATOM      4  N2  <0> d          -2.459   3.569   0.035  0.00  0.00    -0.109 NA
ATOM      5  S1  <0> d          -3.546   2.421   0.033  0.00  0.00     0.026 SA
ATOM      6  H1  <0> d          -2.676  -0.041   0.013  0.00  0.00     0.103 H 
ENDROOT
BRANCH   2   7
ATOM      7  N3  <0> d          -0.011   0.966   0.007  0.00  0.00    -0.382 N 
ATOM      8  H2  <0> d           0.002  -0.004   0.002  0.00  0.00     0.157 HD
ATOM      9  H3  <0> d           0.822   1.462   0.002  0.00  0.00     0.157 HD
ENDBRANCH   2   7
TORSDOF 1
