REMARK  7 active torsions:
REMARK  status: ('A' for Active; 'I' for Inactive)
REMARK    1  A    between atoms: C1_1  and  C2_2 
REMARK    2  A    between atoms: C2_2  and  C3_4 
REMARK    3  A    between atoms: C2_2  and  O3_9 
REMARK    4  A    between atoms: C3_4  and  O1_5 
REMARK    5  A    between atoms: C3_4  and  O2_7 
REMARK    6  A    between atoms: O1_5  and  C4_6 
REMARK    7  A    between atoms: O2_7  and  C5_8 
ROOT
ATOM      1  C3  <0> d          -0.205   0.848   0.275  0.00  0.00     0.154 C 
ATOM      2  H5  <0> d          -0.166  -0.208   0.580  0.00  0.00     0.133 H 
ENDROOT
BRANCH   1   3
ATOM      3  C2  <0> d          -1.067   1.710   1.199  0.00  0.00     0.079 C 
ATOM      4  H1  <0> d          -2.092   1.317   1.271  0.00  0.00     0.089 H 
BRANCH   3   5
ATOM      5  C1  <0> d          -1.063   3.156   0.698  0.00  0.00    -0.048 C 
ATOM      6  H2  <0> d          -1.683   3.776   1.362  0.00  0.00     0.031 H 
ATOM      7  H3  <0> d          -1.470   3.191  -0.323  0.00  0.00     0.031 H 
ATOM      8  H4  <0> d          -0.032   3.539   0.695  0.00  0.00     0.031 H 
ENDBRANCH   3   5
BRANCH   3   9
ATOM      9  O3  <0> d          -0.538   1.664   2.525  0.00  0.00    -0.391 OA
ATOM     10  H12 <0> d          -0.462   0.703   3.054  0.00  0.00     0.210 HD
ENDBRANCH   3   9
ENDBRANCH   1   3
BRANCH   1  11
ATOM     11  O1  <0> d           1.134   1.346   0.271  0.00  0.00    -0.363 OA
BRANCH  11  12
ATOM     12  C4  <0> d           2.099   0.414  -0.220  0.00  0.00     0.007 C 
ATOM     13  H6  <0> d           3.099   0.872  -0.191  0.00  0.00     0.066 H 
ATOM     14  H7  <0> d           1.852   0.141  -1.256  0.00  0.00     0.066 H 
ATOM     15  H8  <0> d           2.091  -0.489   0.409  0.00  0.00     0.066 H 
ENDBRANCH  11  12
ENDBRANCH   1  11
BRANCH   1  16
ATOM     16  O2  <0> d          -0.735   0.894  -1.051  0.00  0.00    -0.363 OA
BRANCH  16  17
ATOM     17  C5  <0> d          -0.257  -0.149  -1.904  0.00  0.00     0.007 C 
ATOM     18  H9  <0> d          -0.710  -0.043  -2.901  0.00  0.00     0.066 H 
ATOM     19  H10 <0> d          -0.532  -1.125  -1.479  0.00  0.00     0.066 H 
ATOM     20  H11 <0> d           0.838  -0.080  -1.989  0.00  0.00     0.066 H 
ENDBRANCH  16  17
ENDBRANCH   1  16
TORSDOF 7
