REMARK  3 active torsions:
REMARK  status: ('A' for Active; 'I' for Inactive)
REMARK    1  A    between atoms: C1_1  and  C2_2 
REMARK    2  A    between atoms: C2_2  and  C3_3 
REMARK    3  A    between atoms: C2_2  and  C4_4 
ROOT
ATOM      1  C2  <0> d          -1.644   4.474   0.039  0.00  0.00     0.005 C 
ATOM      2  H5  <0> d          -2.537   4.246  -0.544  0.00  0.00     0.051 H 
ENDROOT
BRANCH   1   3
ATOM      3  C1  <0> d          -2.043   4.793   1.481  0.00  0.00    -0.066 C 
ATOM      4  H2  <0> d          -1.151   5.021   2.063  0.00  0.00     0.028 H 
ATOM      5  H3  <0> d          -2.713   5.653   1.491  0.00  0.00     0.028 H 
ATOM      6  H4  <0> d          -2.551   3.933   1.916  0.00  0.00     0.028 H 
ENDBRANCH   1   3
BRANCH   1   7
ATOM      7  C3  <0> d          -0.932   5.682  -0.572  0.00  0.00    -0.066 C 
ATOM      8  H6  <0> d          -0.647   5.455  -1.600  0.00  0.00     0.028 H 
ATOM      9  H7  <0> d          -1.601   6.542  -0.563  0.00  0.00     0.028 H 
ATOM     10  H8  <0> d          -0.039   5.910   0.010  0.00  0.00     0.028 H 
ENDBRANCH   1   7
BRANCH   1  11
ATOM     11  C4  <0> d          -0.718   3.285   0.025  0.00  0.00     0.173 A 
ATOM     12  O2  <0> d          -1.107   1.995   0.017  0.00  0.00    -0.243 OA
ATOM     13  C5  <0> d          -0.014   1.213   0.009  0.00  0.00     0.387 A 
ATOM     14  N2  <0> d           1.062   2.028   0.003  0.00  0.00    -0.220 N 
ATOM     15  O1  <0> d           0.002  -0.004   0.002  0.00  0.00    -0.236 OA
ATOM     16  N1  <0> d           0.572   3.343   0.014  0.00  0.00    -0.149 NA
ATOM     17  H1  <0> d           1.993   1.758  -0.007  0.00  0.00     0.194 HD
ENDBRANCH   1  11
TORSDOF 3
