REMARK  3 active torsions:
REMARK  status: ('A' for Active; 'I' for Inactive)
REMARK    1  A    between atoms: C1_1  and  C2_2 
REMARK    2  A    between atoms: C2_2  and  C3_3 
REMARK    3  A    between atoms: C6_7  and  C8_9 
ROOT
ATOM      1  C3  <0> d          -0.718   1.572   1.248  0.00  0.00    -0.055 A 
ATOM      2  C4  <0> d          -1.724   0.819   1.832  0.00  0.00    -0.060 A 
ATOM      3  C5  <0> d          -2.353   1.293   2.972  0.00  0.00     0.004 A 
ATOM      4  N1  <0> d          -2.008   2.445   3.505  0.00  0.00    -0.254 NA
ATOM      5  C6  <0> d          -1.050   3.197   2.976  0.00  0.00     0.133 A 
ATOM      6  C7  <0> d          -0.371   2.779   1.833  0.00  0.00    -0.042 A 
ATOM      7  H6  <0> d          -2.016  -0.129   1.403  0.00  0.00     0.086 H 
ATOM      8  H7  <0> d          -3.138   0.709   3.430  0.00  0.00     0.114 H 
ATOM      9  H8  <0> d           0.411   3.390   1.407  0.00  0.00     0.088 H 
ENDROOT
BRANCH   1  10
ATOM     10  C2  <0> d          -0.013   1.086   0.008  0.00  0.00    -0.044 C 
ATOM     11  H4  <0> d           0.002  -0.014   0.002  0.00  0.00     0.039 H 
ATOM     12  H5  <0> d           1.019   1.466   0.000  0.00  0.00     0.039 H 
BRANCH  10  13
ATOM     13  C1  <0> d          -0.753   1.593  -1.232  0.00  0.00    -0.073 C 
ATOM     14  H1  <0> d          -0.238   1.238  -2.136  0.00  0.00     0.028 H 
ATOM     15  H2  <0> d          -0.768   2.693  -1.225  0.00  0.00     0.028 H 
ATOM     16  H3  <0> d          -1.785   1.212  -1.224  0.00  0.00     0.028 H 
ENDBRANCH  10  13
ENDBRANCH   1  10
BRANCH   5  17
ATOM     17  C8  <0> d          -0.696   4.487   3.611  0.00  0.00     0.228 C 
ATOM     18  O1  <0> d           0.180   5.179   3.132  0.00  0.00    -0.643 OA
ATOM     19  O2  <0> d          -1.345   4.893   4.719  0.00  0.00    -0.643 OA
ENDBRANCH   5  17
TORSDOF 3
