REMARK  5 active torsions:
REMARK  status: ('A' for Active; 'I' for Inactive)
REMARK    1  A    between atoms: C1_1  and  C2_3 
REMARK    2  A    between atoms: C1_1  and  C4_9 
REMARK    3  A    between atoms: C1_1  and  O6_12 
REMARK    4  A    between atoms: C2_3  and  C3_5 
REMARK    5  A    between atoms: C2_3  and  O3_8 
ROOT
ATOM      1  C1  <0> d          -0.013   1.086   0.008  0.00  0.00     0.153 C 
ATOM      2  H1  <0> d           0.002  -0.004   0.002  0.00  0.00     0.105 H 
ENDROOT
BRANCH   1   3
ATOM      3  C2  <0> d           1.423   1.615  -0.003  0.00  0.00     0.153 C 
ATOM      4  H2  <0> d           1.408   2.705   0.003  0.00  0.00     0.105 H 
BRANCH   3   5
ATOM      5  C3  <0> d           2.151   1.116   1.218  0.00  0.00     0.206 C 
ATOM      6  O1  <0> d           3.096   0.355   1.095  0.00  0.00    -0.646 OA
ATOM      7  O2  <0> d           1.796   1.473   2.329  0.00  0.00    -0.646 OA
ENDBRANCH   3   5
BRANCH   3   8
ATOM      8  O3  <0> d           2.091   1.155  -1.179  0.00  0.00    -0.382 OA
ATOM      9  H3  <0> d           2.142   0.192  -1.250  0.00  0.00     0.210 HD
ENDBRANCH   3   8
ENDBRANCH   1   3
BRANCH   1  10
ATOM     10  C4  <0> d          -0.742   1.585  -1.213  0.00  0.00     0.206 C 
ATOM     11  O4  <0> d          -0.387   1.228  -2.323  0.00  0.00    -0.646 OA
ATOM     12  O5  <0> d          -1.686   2.346  -1.090  0.00  0.00    -0.646 OA
ENDBRANCH   1  10
BRANCH   1  13
ATOM     13  O6  <0> d          -0.682   1.547   1.184  0.00  0.00    -0.382 OA
ATOM     14  H4  <0> d          -0.732   2.510   1.256  0.00  0.00     0.210 HD
ENDBRANCH   1  13
TORSDOF 5
