REMARK  2 active torsions:
REMARK  status: ('A' for Active; 'I' for Inactive)
REMARK    1  A    between atoms: C1_1  and  C2_2 
REMARK    2  A    between atoms: C4_6  and  C5_8 
ROOT
ATOM      1  C2  <0> d          -1.119   1.752   0.016  0.00  0.00     0.100 A 
ATOM      2  N1  <0> d          -0.011   0.966   0.007  0.00  0.00    -0.352 N 
ATOM      3  H1  <0> d           0.003  -0.034   0.006  0.00  0.00     0.166 HD
ATOM      4  C3  <0> d           1.071   1.778   0.001  0.00  0.00     0.013 A 
ATOM      5  C4  <0> d           0.603   3.061   0.012  0.00  0.00     0.150 A 
ATOM      6  N2  <0> d          -0.753   3.001   0.025  0.00  0.00    -0.228 NA
ATOM      7  H5  <0> d           2.106   1.471  -0.010  0.00  0.00     0.115 H 
ENDROOT
BRANCH   1   8
ATOM      8  C1  <0> d          -2.543   1.257   0.019  0.00  0.00    -0.021 C 
ATOM      9  H2  <0> d          -2.882   1.132   1.048  0.00  0.00     0.037 H 
ATOM     10  H3  <0> d          -3.180   1.982  -0.488  0.00  0.00     0.037 H 
ATOM     11  H4  <0> d          -2.596   0.300  -0.500  0.00  0.00     0.037 H 
ENDBRANCH   1   8
BRANCH   5  12
ATOM     12  C5  <0> d           1.420   4.285   0.011  0.00  0.00     0.230 C 
ATOM     13  O1  <0> d           2.633   4.206  -0.000  0.00  0.00    -0.643 OA
ATOM     14  O2  <0> d           0.823   5.494   0.023  0.00  0.00    -0.643 OA
ENDBRANCH   5  12
TORSDOF 2
