REMARK  0 active torsions:
REMARK  status: ('A' for Active; 'I' for Inactive)
ROOT
ATOM      1  C1  <0> d          -0.017   1.384   0.010  0.00  0.00    -0.040 A 
ATOM      2  C2  <0> d           1.186   2.065   0.002  0.00  0.00    -0.021 A 
ATOM      3  N1  <0> d           2.333   1.413  -0.013  0.00  0.00    -0.372 N 
ATOM      4  C3  <0> d           2.392   0.093  -0.022  0.00  0.00     0.011 A 
ATOM      5  C4  <0> d           1.233  -0.662  -0.016  0.00  0.00     0.110 A 
ATOM      6  C5  <0> d           0.002  -0.004   0.002  0.00  0.00     0.064 A 
ATOM      7  N2  <0> d          -1.183  -0.741   0.015  0.00  0.00    -0.386 N 
ATOM      8  C6  <0> d          -1.098  -2.177  -0.303  0.00  0.00     0.013 C 
ATOM      9  C7  <0> d           0.140  -2.739   0.410  0.00  0.00     0.041 C 
ATOM     10  O1  <0> d           1.295  -2.018  -0.029  0.00  0.00    -0.346 OA
ATOM     11  H1  <0> d          -0.953   1.922   0.026  0.00  0.00     0.089 H 
ATOM     12  H2  <0> d           1.188   3.145   0.008  0.00  0.00     0.111 H 
ATOM     13  H3  <0> d           3.353  -0.400  -0.036  0.00  0.00     0.115 H 
ATOM     14  H4  <0> d          -2.033  -0.322   0.226  0.00  0.00     0.159 HD
ATOM     15  H5  <0> d          -1.993  -2.688   0.052  0.00  0.00     0.067 H 
ATOM     16  H6  <0> d          -0.997  -2.312  -1.380  0.00  0.00     0.067 H 
ATOM     17  H7  <0> d           0.025  -2.622   1.488  0.00  0.00     0.077 H 
ATOM     18  H8  <0> d           0.254  -3.795   0.166  0.00  0.00     0.077 H 
ATOM     19  H9  <0> d           3.160   1.919  -0.018  0.00  0.00     0.164 HD
ENDROOT
TORSDOF 0
