REMARK  3 active torsions:
REMARK  status: ('A' for Active; 'I' for Inactive)
REMARK    1  A    between atoms: C1_1  and  C2_2 
REMARK    2  A    between atoms: C6_6  and  O2_10 
REMARK    3  A    between atoms: C7_7  and  C8_8 
ROOT
ATOM      1  C2  <0> d           0.002  -0.004   0.002  0.00  0.00    -0.042 A 
ATOM      2  C3  <0> d          -0.017   1.374   0.010  0.00  0.00    -0.076 A 
ATOM      3  C4  <0> d           1.170   2.089   0.002  0.00  0.00    -0.080 A 
ATOM      4  C5  <0> d           2.383   1.430  -0.013  0.00  0.00    -0.050 A 
ATOM      5  C6  <0> d           2.421   0.044  -0.021  0.00  0.00     0.083 A 
ATOM      6  C7  <0> d           1.223  -0.684  -0.013  0.00  0.00     0.079 A 
ATOM      7  H4  <0> d          -0.961   1.899   0.017  0.00  0.00     0.084 H 
ATOM      8  H5  <0> d           1.145   3.169   0.008  0.00  0.00     0.083 H 
ATOM      9  H6  <0> d           3.304   1.995  -0.019  0.00  0.00     0.087 H 
ENDROOT
BRANCH   1  10
ATOM     10  C1  <0> d          -1.292  -0.776   0.011  0.00  0.00    -0.050 C 
ATOM     11  H1  <0> d          -1.614  -0.957  -1.015  0.00  0.00     0.033 H 
ATOM     12  H2  <0> d          -1.143  -1.730   0.518  0.00  0.00     0.033 H 
ATOM     13  H3  <0> d          -2.055  -0.201   0.535  0.00  0.00     0.033 H 
ENDBRANCH   1  10
BRANCH   6  14
ATOM     14  C8  <0> d           1.250  -2.158  -0.021  0.00  0.00     0.212 C 
ATOM     15  O1  <0> d           1.251  -2.760  -1.076  0.00  0.00    -0.644 OA
ATOM     16  O3  <0> d           1.274  -2.837   1.142  0.00  0.00    -0.644 OA
ENDBRANCH   6  14
BRANCH   5  17
ATOM     17  O2  <0> d           3.612  -0.605  -0.035  0.00  0.00    -0.360 OA
ATOM     18  H7  <0> d           3.949  -0.788  -0.923  0.00  0.00     0.217 HD
ENDBRANCH   5  17
TORSDOF 3
