REMARK  2 active torsions:
REMARK  status: ('A' for Active; 'I' for Inactive)
REMARK    1  A    between atoms: C1_1  and  O3_10 
REMARK    2  A    between atoms: C2_3  and  O2_9 
ROOT
ATOM      1  C1  <0> d           1.286   1.562  -0.002  0.00  0.00     0.146 A 
ATOM      2  H1  <0> d           1.787   1.112   0.868  0.00  0.00     0.124 H 
ATOM      3  C2  <0> d           1.173   3.099   0.007  0.00  0.00     0.146 A 
ATOM      4  H2  <0> d           1.602   3.607   0.883  0.00  0.00     0.124 H 
ATOM      5  N1  <0> d           1.816   3.507  -1.250  0.00  0.00    -0.313 N 
ATOM      6  C3  <0> d           2.241   2.417  -1.901  0.00  0.00     0.320 A 
ATOM      7  O1  <0> d           2.811   2.465  -2.974  0.00  0.00    -0.247 OA
ATOM      8  N2  <0> d           1.982   1.268  -1.264  0.00  0.00    -0.313 N 
ATOM      9  H3  <0> d           1.882   4.573  -1.514  0.00  0.00     0.167 HD
ATOM     10  H4  <0> d           2.203   0.226  -1.540  0.00  0.00     0.167 HD
ENDROOT
BRANCH   1  11
ATOM     11  O3  <0> d          -0.011   0.963   0.007  0.00  0.00    -0.372 OA
ATOM     12  H6  <0> d          -0.667   1.085   0.881  0.00  0.00     0.212 HD
ENDBRANCH   1  11
BRANCH   3  13
ATOM     13  O2  <0> d          -0.199   3.500   0.023  0.00  0.00    -0.372 OA
ATOM     14  H5  <0> d          -0.459   4.569   0.031  0.00  0.00     0.212 HD
ENDBRANCH   3  13
TORSDOF 2
