REMARK  3 active torsions:
REMARK  status: ('A' for Active; 'I' for Inactive)
REMARK    1  A    between atoms: C1_1  and  C2_2 
REMARK    2  A    between atoms: C2_2  and  C3_3 
REMARK    3  A    between atoms: C6_7  and  C7_8 
ROOT
ATOM      1  C3  <0> d           2.349   3.886   0.006  0.00  0.00    -0.034 A 
ATOM      2  C4  <0> d           2.116   5.239   0.011  0.00  0.00    -0.069 A 
ATOM      3  C5  <0> d           0.835   5.691   0.026  0.00  0.00    -0.043 A 
ATOM      4  S1  <0> d          -0.101   4.232   0.026  0.00  0.00    -0.095 SA
ATOM      5  C6  <0> d           1.239   3.054   0.007  0.00  0.00     0.087 A 
ATOM      6  H6  <0> d           2.942   5.935   0.008  0.00  0.00     0.085 H 
ATOM      7  H7  <0> d           0.484   6.713   0.035  0.00  0.00     0.095 H 
ENDROOT
BRANCH   1   8
ATOM      8  C2  <0> d           3.749   3.329  -0.003  0.00  0.00    -0.043 C 
ATOM      9  H4  <0> d           4.433   4.058   0.432  0.00  0.00     0.039 H 
ATOM     10  H5  <0> d           3.779   2.410   0.581  0.00  0.00     0.039 H 
BRANCH   8  11
ATOM     11  C1  <0> d           4.170   3.032  -1.444  0.00  0.00    -0.073 C 
ATOM     12  H1  <0> d           3.486   2.304  -1.879  0.00  0.00     0.028 H 
ATOM     13  H2  <0> d           4.141   3.952  -2.028  0.00  0.00     0.028 H 
ATOM     14  H3  <0> d           5.183   2.630  -1.451  0.00  0.00     0.028 H 
ENDBRANCH   8  11
ENDBRANCH   1   8
BRANCH   5  15
ATOM     15  C7  <0> d           1.182   1.591  -0.001  0.00  0.00     0.217 C 
ATOM     16  O1  <0> d           2.211   0.943  -0.014  0.00  0.00    -0.643 OA
ATOM     17  O2  <0> d          -0.011   0.963   0.007  0.00  0.00    -0.643 OA
ENDBRANCH   5  15
TORSDOF 3
