REMARK  8 active torsions:
REMARK  status: ('A' for Active; 'I' for Inactive)
REMARK    1  A    between atoms: C1_1  and  C2_2 
REMARK    2  A    between atoms: C2_2  and  C3_3 
REMARK    3  A    between atoms: C3_3  and  C4_5 
REMARK    4  A    between atoms: C3_3  and  C5_6 
REMARK    5  A    between atoms: C5_6  and  C6_7 
REMARK    6  A    between atoms: C5_6  and  C7_8 
REMARK    7  A    between atoms: C5_6  and  O1_10 
REMARK    8  A    between atoms: C7_8  and  C8_9 
ROOT
ATOM      1  C5  <0> d          -0.866   3.543   1.217  0.00  0.00     0.057 C 
ENDROOT
BRANCH   1   2
ATOM      2  C3  <0> d          -0.735   2.019   1.269  0.00  0.00    -0.029 C 
ATOM      3  H1  <0> d          -1.727   1.571   1.322  0.00  0.00     0.043 H 
BRANCH   2   4
ATOM      4  C2  <0> d          -0.019   1.526   0.010  0.00  0.00    -0.063 C 
ATOM      5  H5  <0> d           1.004   1.903   0.003  0.00  0.00     0.033 H 
ATOM      6  H6  <0> d          -0.546   1.887  -0.873  0.00  0.00     0.033 H 
BRANCH   4   7
ATOM      7  C1  <0> d           0.002  -0.004   0.002  0.00  0.00    -0.076 C 
ATOM      8  H2  <0> d           0.529  -0.365   0.885  0.00  0.00     0.027 H 
ATOM      9  H3  <0> d          -1.020  -0.381   0.010  0.00  0.00     0.027 H 
ATOM     10  H4  <0> d           0.512  -0.356  -0.895  0.00  0.00     0.027 H 
ENDBRANCH   4   7
ENDBRANCH   2   4
BRANCH   2  11
ATOM     11  C4  <0> d           0.073   1.619   2.506  0.00  0.00    -0.070 C 
ATOM     12  H7  <0> d           1.065   2.067   2.453  0.00  0.00     0.028 H 
ATOM     13  H8  <0> d          -0.438   1.970   3.402  0.00  0.00     0.028 H 
ATOM     14  H9  <0> d           0.166   0.533   2.542  0.00  0.00     0.028 H 
ENDBRANCH   2  11
ENDBRANCH   1   2
BRANCH   1  15
ATOM     15  C6  <0> d           0.517   4.167   1.018  0.00  0.00    -0.048 C 
ATOM     16  H10 <0> d           0.946   3.807   0.083  0.00  0.00     0.031 H 
ATOM     17  H11 <0> d           0.423   5.252   0.981  0.00  0.00     0.031 H 
ATOM     18  H12 <0> d           1.165   3.886   1.847  0.00  0.00     0.031 H 
ENDBRANCH   1  15
BRANCH   1  19
ATOM     19  C7  <0> d          -1.469   4.048   2.530  0.00  0.00    -0.040 C 
ATOM     20  H13 <0> d          -2.454   3.603   2.672  0.00  0.00     0.036 H 
ATOM     21  H14 <0> d          -0.820   3.767   3.360  0.00  0.00     0.036 H 
BRANCH  19  22
ATOM     22  C8  <0> d          -1.600   5.571   2.478  0.00  0.00    -0.074 C 
ATOM     23  H15 <0> d          -0.615   6.016   2.336  0.00  0.00     0.027 H 
ATOM     24  H16 <0> d          -2.248   5.852   1.648  0.00  0.00     0.027 H 
ATOM     25  H17 <0> d          -2.029   5.931   3.413  0.00  0.00     0.027 H 
ENDBRANCH  19  22
ENDBRANCH   1  19
BRANCH   1  26
ATOM     26  O1  <0> d          -1.716   3.911   0.130  0.00  0.00    -0.390 OA
ATOM     27  H18 <0> d          -2.611   3.549   0.190  0.00  0.00     0.210 HD
ENDBRANCH   1  26
TORSDOF 8
