REMARK  0 active torsions:
REMARK  status: ('A' for Active; 'I' for Inactive)
ROOT
ATOM      1  C1  <0> d           0.361   4.352   0.022  0.00  0.00    -0.003 A 
ATOM      2  C2  <0> d          -0.900   3.852   0.031  0.00  0.00     0.135 A 
ATOM      3  N1  <0> d          -1.055   2.543   0.020  0.00  0.00    -0.217 NA
ATOM      4  C3  <0> d          -0.021   1.732   0.012  0.00  0.00     0.168 A 
ATOM      5  S1  <0> d           1.315   2.841   0.005  0.00  0.00    -0.067 SA
ATOM      6 Cl1  <0> d           0.002  -0.004   0.002  0.00  0.00    -0.054 Cl
ATOM      7 Cl2  <0> d          -2.276   4.910   0.050  0.00  0.00    -0.062 Cl
ATOM      8  H1  <0> d           0.697   5.379   0.025  0.00  0.00     0.100 H 
ENDROOT
TORSDOF 0
