REMARK  1 active torsions:
REMARK  status: ('A' for Active; 'I' for Inactive)
REMARK    1  A    between atoms: C3_3  and  N3_11 
ROOT
ATOM      1  C1  <0> d          -0.017   1.372   0.010  0.00  0.00    -0.079 A 
ATOM      2  C2  <0> d           1.168   2.097   0.002  0.00  0.00    -0.057 A 
ATOM      3  C3  <0> d           2.386   1.446  -0.013  0.00  0.00     0.039 A 
ATOM      4  C4  <0> d           2.423   0.040  -0.021  0.00  0.00     0.037 A 
ATOM      5  C5  <0> d           3.474  -0.908  -0.037  0.00  0.00     0.036 A 
ATOM      6  N1  <0> d           2.957  -2.102  -0.039  0.00  0.00    -0.186 NA
ATOM      7  N2  <0> d           1.559  -2.013  -0.024  0.00  0.00    -0.278 N 
ATOM      8  H1  <0> d           0.941  -2.760  -0.022  0.00  0.00     0.189 HD
ATOM      9  C6  <0> d           1.218  -0.685  -0.013  0.00  0.00     0.064 A 
ATOM     10  C7  <0> d           0.002  -0.004   0.002  0.00  0.00    -0.055 A 
ATOM     11  H2  <0> d          -0.962   1.894   0.026  0.00  0.00     0.083 H 
ATOM     12  H3  <0> d           1.136   3.176   0.008  0.00  0.00     0.086 H 
ATOM     13  H4  <0> d           4.529  -0.678  -0.047  0.00  0.00     0.118 H 
ATOM     14  H5  <0> d          -0.926  -0.557   0.008  0.00  0.00     0.087 H 
ENDROOT
BRANCH   3  15
ATOM     15  N3  <0> d           3.572   2.179  -0.022  0.00  0.00    -0.398 N 
ATOM     16  H6  <0> d           3.543   3.148  -0.017  0.00  0.00     0.156 HD
ATOM     17  H7  <0> d           4.426   1.719  -0.033  0.00  0.00     0.156 HD
ENDBRANCH   3  15
TORSDOF 1
