REMARK  4 active torsions:
REMARK  status: ('A' for Active; 'I' for Inactive)
REMARK    1  A    between atoms: C1_1  and  C2_2 
REMARK    2  A    between atoms: C5_6  and  C7_9 
REMARK    3  A    between atoms: C5_6  and  C8_10 
REMARK    4  A    between atoms: C8_10  and  O2_11 
ROOT
ATOM      1  C2  <0> d           1.419   1.953  -0.001  0.00  0.00    -0.037 C 
ATOM      2  H1  <0> d           1.917   1.636  -0.917  0.00  0.00     0.042 H 
ATOM      3  C3  <0> d           2.171   1.393   1.211  0.00  0.00    -0.057 C 
ATOM      4  C4  <0> d           2.114  -0.137   1.170  0.00  0.00    -0.034 C 
ATOM      5  C5  <0> d           0.650  -0.585   1.135  0.00  0.00     0.078 C 
ATOM      6  O1  <0> d           0.002  -0.004   0.002  0.00  0.00    -0.378 OA
ATOM      7  C6  <0> d          -0.017   1.425   0.010  0.00  0.00     0.024 C 
ATOM      8  H5  <0> d           1.702   1.751   2.127  0.00  0.00     0.033 H 
ATOM      9  H6  <0> d           3.210   1.720   1.180  0.00  0.00     0.033 H 
ATOM     10  H7  <0> d           2.598  -0.544   2.058  0.00  0.00     0.037 H 
ATOM     11  H8  <0> d           2.626  -0.498   0.278  0.00  0.00     0.037 H 
ATOM     12  H9  <0> d          -0.544   1.786  -0.873  0.00  0.00     0.074 H 
ATOM     13  H10 <0> d          -0.527   1.776   0.907  0.00  0.00     0.074 H 
ENDROOT
BRANCH   5  14
ATOM     14  C7  <0> d          -0.053  -0.128   2.415  0.00  0.00    -0.046 C 
ATOM     15  H11 <0> d          -1.096  -0.446   2.390  0.00  0.00     0.031 H 
ATOM     16  H12 <0> d           0.441  -0.572   3.280  0.00  0.00     0.031 H 
ATOM     17  H13 <0> d          -0.007   0.958   2.487  0.00  0.00     0.031 H 
ENDBRANCH   5  14
BRANCH   5  18
ATOM     18  C8  <0> d           0.585  -2.110   1.034  0.00  0.00     0.045 C 
ATOM     19  H14 <0> d           1.087  -2.435   0.122  0.00  0.00     0.078 H 
ATOM     20  H15 <0> d           1.080  -2.553   1.899  0.00  0.00     0.078 H 
BRANCH  18  21
ATOM     21  O2  <0> d          -0.781  -2.528   1.001  0.00  0.00    -0.398 OA
ATOM     22  H16 <0> d          -0.898  -3.486   0.936  0.00  0.00     0.209 HD
ENDBRANCH  18  21
ENDBRANCH   5  18
BRANCH   1  23
ATOM     23  C1  <0> d           1.403   3.482   0.070  0.00  0.00    -0.071 C 
ATOM     24  H2  <0> d           0.907   3.797   0.988  0.00  0.00     0.028 H 
ATOM     25  H3  <0> d           2.426   3.857   0.062  0.00  0.00     0.028 H 
ATOM     26  H4  <0> d           0.863   3.879  -0.790  0.00  0.00     0.028 H 
ENDBRANCH   1  23
TORSDOF 4
