REMARK  2 active torsions:
REMARK  status: ('A' for Active; 'I' for Inactive)
REMARK    1  A    between atoms: C1_1  and  C2_2 
REMARK    2  A    between atoms: C5_7  and  N3_8 
ROOT
ATOM      1  C2  <0> d          -1.247   3.039   0.030  0.00  0.00    -0.013 A 
ATOM      2  C3  <0> d          -2.483   3.667   0.033  0.00  0.00    -0.055 A 
ATOM      3  C4  <0> d          -3.620   2.872   0.035  0.00  0.00     0.024 A 
ATOM      4  N1  <0> d          -3.505   1.559   0.027  0.00  0.00    -0.161 NA
ATOM      5  N2  <0> d          -2.365   0.970   0.018  0.00  0.00    -0.132 NA
ATOM      6  C5  <0> d          -1.225   1.645   0.017  0.00  0.00     0.149 A 
ATOM      7  H4  <0> d          -2.558   4.745   0.039  0.00  0.00     0.086 H 
ATOM      8  H5  <0> d          -4.598   3.329   0.042  0.00  0.00     0.117 H 
ENDROOT
BRANCH   1   9
ATOM      9  C1  <0> d           0.031   3.837   0.035  0.00  0.00    -0.048 C 
ATOM     10  H1  <0> d          -0.207   4.911   0.046  0.00  0.00     0.033 H 
ATOM     11  H2  <0> d           0.615   3.600  -0.866  0.00  0.00     0.033 H 
ATOM     12  H3  <0> d           0.618   3.583   0.930  0.00  0.00     0.033 H 
ENDBRANCH   1   9
BRANCH   6  13
ATOM     13  N3  <0> d          -0.011   0.966   0.007  0.00  0.00    -0.382 N 
ATOM     14  H6  <0> d           0.004  -0.134  -0.003  0.00  0.00     0.157 HD
ATOM     15  H7  <0> d           0.934   1.529   0.011  0.00  0.00     0.157 HD
ENDBRANCH   6  13
TORSDOF 2
