REMARK  1 active torsions:
REMARK  status: ('A' for Active; 'I' for Inactive)
REMARK    1  A    between atoms: N3_5  and  N4_6 
REMARK       I    between atoms: N4_6  and  C3_7 
REMARK       I    between atoms: C3_7  and  N5_9 
ROOT
ATOM      1  C1  <0> d          -0.016   1.351   0.009  0.00  0.00     0.108 A 
ATOM      2  N1  <0> d           1.224   1.756  -0.000  0.00  0.00    -0.142 NA
ATOM      3  N2  <0> d           2.012   0.739  -0.013  0.00  0.00    -0.142 NA
ATOM      4  C2  <0> d           1.309  -0.361  -0.012  0.00  0.00     0.108 A 
ATOM      5  N3  <0> d           0.002  -0.004   0.002  0.00  0.00    -0.236 N 
ATOM      6  H1  <0> d          -0.895   1.979   0.017  0.00  0.00     0.149 H 
ATOM      7  H2  <0> d           1.698  -1.368  -0.021  0.00  0.00     0.149 H 
ENDROOT
BRANCH   5   8
ATOM      8  N4  <0> d          -1.105  -0.862   0.009  0.00  0.00    -0.243 N 
ATOM      9  C3  <0> d          -0.924  -2.197  -0.000  0.00  0.00     0.333 C 
ATOM     10  O1  <0> d           0.202  -2.658  -0.014  0.00  0.00    -0.246 OA
ATOM     11  N5  <0> d          -1.989  -3.023   0.006  0.00  0.00    -0.351 N 
ATOM     12  H4  <0> d          -2.887  -2.656   0.017  0.00  0.00     0.160 HD
ATOM     13  H5  <0> d          -1.858  -3.984  -0.000  0.00  0.00     0.160 HD
ATOM     14  H3  <0> d          -2.003  -0.495   0.020  0.00  0.00     0.192 HD
ENDBRANCH   5   8
TORSDOF 1
