REMARK  1 active torsions:
REMARK  status: ('A' for Active; 'I' for Inactive)
REMARK    1  A    between atoms: C6_6  and  C7_7 
ROOT
ATOM      1  C7  <0> d          -0.013   1.086   0.008  0.00  0.00     0.038 C 
ATOM      2  C8  <0> d          -0.725   1.573  -1.185  0.00  0.00     0.063 C 
ATOM      3  N1  <0> d          -1.274   1.950  -2.105  0.00  0.00    -0.197 NA
ATOM      4  H5  <0> d           0.002  -0.004   0.002  0.00  0.00     0.062 H 
ATOM      5  H6  <0> d           1.010   1.463   0.000  0.00  0.00     0.062 H 
ENDROOT
BRANCH   1   6
ATOM      6  C6  <0> d          -0.718   1.572   1.248  0.00  0.00    -0.045 A 
ATOM      7  C1  <0> d          -0.360   2.779   1.818  0.00  0.00    -0.074 A 
ATOM      8  C2  <0> d          -1.010   3.228   2.952  0.00  0.00    -0.061 A 
ATOM      9  H1  <0> d           0.426   3.373   1.375  0.00  0.00     0.084 H 
ATOM     10  C3  <0> d          -2.012   2.464   3.523  0.00  0.00     0.034 A 
ATOM     11  H2  <0> d          -0.733   4.173   3.395  0.00  0.00     0.086 H 
ATOM     12  C4  <0> d          -2.367   1.253   2.955  0.00  0.00    -0.061 A 
ATOM     13 Cl1  <0> d          -2.825   3.024   4.951  0.00  0.00    -0.084 Cl
ATOM     14  C5  <0> d          -1.719   0.808   1.817  0.00  0.00    -0.074 A 
ATOM     15  H3  <0> d          -3.149   0.656   3.399  0.00  0.00     0.086 H 
ATOM     16  H4  <0> d          -1.996  -0.137   1.374  0.00  0.00     0.084 H 
ENDBRANCH   1   6
TORSDOF 1
