REMARK  1 active torsions:
REMARK  status: ('A' for Active; 'I' for Inactive)
REMARK    1  A    between atoms: C3_3  and  C6_7 
ROOT
ATOM      1  C1  <0> d           1.408  -4.154  -0.035  0.00  0.00    -0.065 A 
ATOM      2  C2  <0> d           0.897  -2.868  -0.017  0.00  0.00    -0.068 A 
ATOM      3  C3  <0> d           1.797  -1.797  -0.025  0.00  0.00     0.010 A 
ATOM      4  C4  <0> d           3.166  -2.067  -0.040  0.00  0.00     0.014 A 
ATOM      5  N1  <0> d           3.603  -3.309  -0.051  0.00  0.00    -0.272 NA
ATOM      6  C5  <0> d           2.778  -4.338  -0.049  0.00  0.00     0.002 A 
ATOM      7  H2  <0> d           0.743  -5.005  -0.033  0.00  0.00     0.085 H 
ATOM      8  H3  <0> d          -0.169  -2.695  -0.000  0.00  0.00     0.085 H 
ATOM      9  H4  <0> d           3.872  -1.250  -0.043  0.00  0.00     0.116 H 
ATOM     10  H5  <0> d           3.179  -5.341  -0.059  0.00  0.00     0.114 H 
ENDROOT
BRANCH   3  11
ATOM     11  C6  <0> d           1.306  -0.401  -0.013  0.00  0.00     0.063 A 
ATOM     12  N3  <0> d           0.002  -0.004   0.002  0.00  0.00    -0.278 N 
ATOM     13  N2  <0> d          -0.017   1.397   0.010  0.00  0.00    -0.187 NA
ATOM     14  H1  <0> d          -0.797  -0.605   0.006  0.00  0.00     0.189 HD
ATOM     15  C8  <0> d           1.218   1.829   0.000  0.00  0.00     0.024 A 
ATOM     16  C7  <0> d           2.075   0.728  -0.014  0.00  0.00    -0.036 A 
ATOM     17  H7  <0> d           1.524   2.865   0.003  0.00  0.00     0.117 H 
ATOM     18  H6  <0> d           3.154   0.762  -0.023  0.00  0.00     0.089 H 
ENDBRANCH   3  11
TORSDOF 1
