REMARK  9 active torsions:
REMARK  status: ('A' for Active; 'I' for Inactive)
REMARK    1  A    between atoms: C1_1  and  C2_2 
REMARK    2  A    between atoms: C2_2  and  O1_3 
REMARK    3  A    between atoms: O1_3  and  C3_4 
REMARK    4  A    between atoms: C3_4  and  C4_5 
REMARK    5  A    between atoms: C3_4  and  O3_8 
REMARK    6  A    between atoms: C4_5  and  O2_6 
REMARK    7  A    between atoms: O2_6  and  C5_7 
REMARK    8  A    between atoms: O3_8  and  C6_9 
REMARK    9  A    between atoms: C6_9  and  C7_10 
ROOT
ATOM      1  C3  <0> d          -1.393  -0.706  -0.201  0.00  0.00     0.151 C 
ATOM      2  H6  <0> d          -1.674  -1.751  -0.331  0.00  0.00     0.132 H 
ENDROOT
BRANCH   1   3
ATOM      3  O1  <0> d          -1.745  -0.279   1.117  0.00  0.00    -0.359 OA
BRANCH   3   4
ATOM      4  C2  <0> d          -2.882  -0.951   1.661  0.00  0.00     0.019 C 
ATOM      5  H4  <0> d          -3.722  -0.859   0.972  0.00  0.00     0.073 H 
ATOM      6  H5  <0> d          -2.646  -2.005   1.807  0.00  0.00     0.073 H 
BRANCH   4   7
ATOM      7  C1  <0> d          -3.253  -0.319   3.004  0.00  0.00    -0.056 C 
ATOM      8  H1  <0> d          -4.121  -0.832   3.419  0.00  0.00     0.030 H 
ATOM      9  H2  <0> d          -2.413  -0.411   3.693  0.00  0.00     0.030 H 
ATOM     10  H3  <0> d          -3.489   0.735   2.858  0.00  0.00     0.030 H 
ENDBRANCH   4   7
ENDBRANCH   3   4
ENDBRANCH   1   3
BRANCH   1  11
ATOM     11  C4  <0> d           0.117  -0.555  -0.399  0.00  0.00     0.065 C 
ATOM     12  H7  <0> d           0.386  -0.881  -1.404  0.00  0.00     0.081 H 
ATOM     13  H8  <0> d           0.643  -1.167   0.334  0.00  0.00     0.081 H 
BRANCH  11  14
ATOM     14  O2  <0> d           0.486   0.815  -0.228  0.00  0.00    -0.391 OA
BRANCH  14  15
ATOM     15  C5  <0> d           1.883   1.066  -0.393  0.00  0.00     0.004 C 
ATOM     16  H9  <0> d           2.081   2.128  -0.248  0.00  0.00     0.066 H 
ATOM     17  H10 <0> d           2.445   0.487   0.340  0.00  0.00     0.066 H 
ATOM     18  H11 <0> d           2.188   0.774  -1.398  0.00  0.00     0.066 H 
ENDBRANCH  14  15
ENDBRANCH  11  14
ENDBRANCH   1  11
BRANCH   1  19
ATOM     19  O3  <0> d          -2.082   0.097  -1.161  0.00  0.00    -0.359 OA
BRANCH  19  20
ATOM     20  C6  <0> d          -3.475  -0.200  -1.274  0.00  0.00     0.019 C 
ATOM     21  H12 <0> d          -3.606  -1.266  -1.457  0.00  0.00     0.073 H 
ATOM     22  H13 <0> d          -3.981   0.075  -0.349  0.00  0.00     0.073 H 
BRANCH  20  23
ATOM     23  C7  <0> d          -4.073   0.594  -2.438  0.00  0.00    -0.056 C 
ATOM     24  H14 <0> d          -5.136   0.368  -2.524  0.00  0.00     0.030 H 
ATOM     25  H15 <0> d          -3.942   1.661  -2.255  0.00  0.00     0.030 H 
ATOM     26  H16 <0> d          -3.567   0.320  -3.363  0.00  0.00     0.030 H 
ENDBRANCH  20  23
ENDBRANCH  19  20
ENDBRANCH   1  19
TORSDOF 9
