REMARK  2 active torsions:
REMARK  status: ('A' for Active; 'I' for Inactive)
REMARK    1  A    between atoms: C1_1  and  C2_2 
REMARK    2  A    between atoms: C2_2  and  C3_3 
ROOT
ATOM      1  C3  <0> d          -0.022   1.781   0.012  0.00  0.00    -0.018 A 
ATOM      2  C4  <0> d           1.300   2.079   0.001  0.00  0.00    -0.070 A 
ATOM      3  C5  <0> d           2.220   1.048  -0.013  0.00  0.00    -0.076 A 
ATOM      4  C6  <0> d           1.773  -0.232  -0.016  0.00  0.00    -0.045 A 
ATOM      5  S1  <0> d           0.002  -0.004   0.002  0.00  0.00    -0.106 SA
ATOM      6  H6  <0> d           1.630   3.108   0.003  0.00  0.00     0.085 H 
ATOM      7  H7  <0> d           3.279   1.258  -0.023  0.00  0.00     0.084 H 
ATOM      8  H8  <0> d           2.340  -1.151  -0.027  0.00  0.00     0.095 H 
ENDROOT
BRANCH   1   9
ATOM      9  C2  <0> d          -1.206   2.714   0.023  0.00  0.00    -0.038 C 
ATOM     10  H4  <0> d          -2.039   2.237   0.539  0.00  0.00     0.040 H 
ATOM     11  H5  <0> d          -0.937   3.635   0.540  0.00  0.00     0.040 H 
BRANCH   9  12
ATOM     12  C1  <0> d          -1.614   3.037  -1.416  0.00  0.00    -0.072 C 
ATOM     13  H1  <0> d          -0.780   3.514  -1.932  0.00  0.00     0.028 H 
ATOM     14  H2  <0> d          -1.882   2.116  -1.933  0.00  0.00     0.028 H 
ATOM     15  H3  <0> d          -2.470   3.712  -1.408  0.00  0.00     0.028 H 
ENDBRANCH   9  12
ENDBRANCH   1   9
TORSDOF 2
