REMARK  2 active torsions:
REMARK  status: ('A' for Active; 'I' for Inactive)
REMARK    1  A    between atoms: C1_1  and  C2_2 
REMARK    2  A    between atoms: C4_4  and  O1_12 
ROOT
ATOM      1  C2  <0> d           0.002  -0.004   0.002  0.00  0.00    -0.045 A 
ATOM      2  C3  <0> d           0.023  -0.694   1.178  0.00  0.00    -0.044 A 
ATOM      3  C4  <0> d           0.041  -2.088   1.183  0.00  0.00     0.068 A 
ATOM      4  C5  <0> d           0.038  -2.794  -0.004  0.00  0.00    -0.023 A 
ATOM      5  C6  <0> d           0.018  -2.107  -1.214  0.00  0.00     0.065 A 
ATOM      6  C7  <0> d          -0.006  -0.699  -1.213  0.00  0.00     0.017 A 
ATOM      7  C8  <0> d          -0.018  -0.288  -2.613  0.00  0.00     0.034 A 
ATOM      8  N1  <0> d          -0.011  -1.365  -3.345  0.00  0.00    -0.186 NA
ATOM      9  N2  <0> d           0.011  -2.500  -2.528  0.00  0.00    -0.278 N 
ATOM     10  H1  <0> d           0.020  -3.447  -2.850  0.00  0.00     0.189 HD
ATOM     11  H5  <0> d           0.025  -0.155   2.115  0.00  0.00     0.088 H 
ATOM     12  H6  <0> d           0.053  -3.874   0.007  0.00  0.00     0.091 H 
ATOM     13  H7  <0> d          -0.035   0.729  -2.978  0.00  0.00     0.118 H 
ENDROOT
BRANCH   1  14
ATOM     14  C1  <0> d          -0.018   1.503   0.010  0.00  0.00    -0.050 C 
ATOM     15  H2  <0> d           1.004   1.880   0.003  0.00  0.00     0.033 H 
ATOM     16  H3  <0> d          -0.545   1.864  -0.873  0.00  0.00     0.033 H 
ATOM     17  H4  <0> d          -0.529   1.854   0.907  0.00  0.00     0.033 H 
ENDBRANCH   1  14
BRANCH   3  18
ATOM     18  O1  <0> d           0.060  -2.757   2.365  0.00  0.00    -0.361 OA
ATOM     19  H8  <0> d          -0.818  -2.963   2.716  0.00  0.00     0.217 HD
ENDBRANCH   3  18
TORSDOF 2
