REMARK  1 active torsions:
REMARK  status: ('A' for Active; 'I' for Inactive)
REMARK    1  A    between atoms: C1_1  and  C2_2 
ROOT
ATOM      1  C2  <0> d          -0.729   1.579   1.267  0.00  0.00     0.039 C 
ATOM      2  H1  <0> d          -0.744   2.669   1.274  0.00  0.00     0.082 H 
ATOM      3  C3  <0> d          -2.165   1.045   1.282  0.00  0.00    -0.021 C 
ATOM      4  C4  <0> d          -2.821   1.428   2.614  0.00  0.00     0.024 C 
ATOM      5  O1  <0> d          -2.000   0.960   3.689  0.00  0.00    -0.367 OA
ATOM      6  C5  <0> d          -0.665   1.471   3.659  0.00  0.00     0.103 C 
ATOM      7  O2  <0> d          -0.041   1.102   2.427  0.00  0.00    -0.362 OA
ATOM      8  H5  <0> d          -2.727   1.484   0.458  0.00  0.00     0.040 H 
ATOM      9  H6  <0> d          -2.153  -0.040   1.181  0.00  0.00     0.040 H 
ATOM     10  H7  <0> d          -3.807   0.968   2.681  0.00  0.00     0.074 H 
ATOM     11  H8  <0> d          -2.919   2.511   2.675  0.00  0.00     0.074 H 
ATOM     12  H9  <0> d          -0.099   1.056   4.493  0.00  0.00     0.117 H 
ATOM     13  H10 <0> d          -0.690   2.558   3.743  0.00  0.00     0.117 H 
ENDROOT
BRANCH   1  14
ATOM     14  C1  <0> d          -0.013   1.086   0.008  0.00  0.00    -0.052 C 
ATOM     15  H2  <0> d           0.002  -0.004   0.002  0.00  0.00     0.030 H 
ATOM     16  H3  <0> d           1.010   1.463   0.000  0.00  0.00     0.030 H 
ATOM     17  H4  <0> d          -0.540   1.447  -0.875  0.00  0.00     0.030 H 
ENDBRANCH   1  14
TORSDOF 1
