REMARK  4 active torsions:
REMARK  status: ('A' for Active; 'I' for Inactive)
REMARK    1  A    between atoms: C1_1  and  C2_2 
REMARK    2  A    between atoms: C2_2  and  C3_3 
REMARK    3  A    between atoms: C3_3  and  C4_5 
REMARK    4  A    between atoms: C3_3  and  N2_8 
ROOT
ATOM      1  C4  <0> d          -0.018   1.468   0.010  0.00  0.00     0.035 C 
ATOM      2  C5  <0> d           0.002  -0.004   0.002  0.00  0.00     0.061 C 
ATOM      3  N1  <0> d           0.018  -1.140  -0.004  0.00  0.00    -0.197 NA
ATOM      4  H7  <0> d          -0.545   1.829  -0.873  0.00  0.00     0.058 H 
ATOM      5  H8  <0> d          -0.528   1.819   0.907  0.00  0.00     0.058 H 
ENDROOT
BRANCH   1   6
ATOM      6  C3  <0> d           1.417   1.997  -0.001  0.00  0.00     0.045 C 
ATOM      7  H1  <0> d           1.970   1.566   0.834  0.00  0.00     0.077 H 
BRANCH   6   8
ATOM      8  C2  <0> d           2.095   1.609  -1.317  0.00  0.00    -0.047 C 
ATOM      9  H5  <0> d           2.028   0.530  -1.455  0.00  0.00     0.035 H 
ATOM     10  H6  <0> d           1.595   2.112  -2.145  0.00  0.00     0.035 H 
BRANCH   8  11
ATOM     11  C1  <0> d           3.565   2.029  -1.277  0.00  0.00    -0.075 C 
ATOM     12  H2  <0> d           4.064   1.526  -0.449  0.00  0.00     0.027 H 
ATOM     13  H3  <0> d           4.047   1.752  -2.215  0.00  0.00     0.027 H 
ATOM     14  H4  <0> d           3.631   3.108  -1.139  0.00  0.00     0.027 H 
ENDBRANCH   8  11
ENDBRANCH   6   8
BRANCH   6  15
ATOM     15  N2  <0> d           1.401   3.457   0.128  0.00  0.00    -0.276 N 
ATOM     16  N3  <0> d           2.344   4.235   0.810  0.00  0.00    -0.185 NA
ATOM     17  C8  <0> d           1.993   5.491   0.704  0.00  0.00     0.023 A 
ATOM     18  C7  <0> d           0.816   5.552  -0.050  0.00  0.00    -0.048 A 
ATOM     19  H11 <0> d           2.521   6.334   1.124  0.00  0.00     0.117 H 
ATOM     20  C6  <0> d           0.476   4.289  -0.396  0.00  0.00     0.000 A 
ATOM     21  H10 <0> d           0.276   6.450  -0.312  0.00  0.00     0.087 H 
ATOM     22  H9  <0> d          -0.382   3.999  -0.984  0.00  0.00     0.114 H 
ENDBRANCH   6  15
ENDBRANCH   1   6
TORSDOF 4
