REMARK  3 active torsions:
REMARK  status: ('A' for Active; 'I' for Inactive)
REMARK    1  A    between atoms: C1_1  and  C2_2 
REMARK    2  A    between atoms: C2_2  and  C3_3 
REMARK    3  A    between atoms: C4_5  and  N3_8 
ROOT
ATOM      1  C3  <0> d           0.707  -0.490  -1.238  0.00  0.00     0.157 A 
ATOM      2  N1  <0> d           0.124  -0.745  -2.412  0.00  0.00    -0.190 NA
ATOM      3  C4  <0> d           1.022  -1.151  -3.281  0.00  0.00     0.267 A 
ATOM      4  O1  <0> d           2.217  -1.163  -2.668  0.00  0.00    -0.173 OA
ATOM      5  N2  <0> d           1.985  -0.724  -1.338  0.00  0.00    -0.109 NA
ENDROOT
BRANCH   1   6
ATOM      6  C2  <0> d           0.002  -0.004   0.002  0.00  0.00    -0.009 C 
ATOM      7  H4  <0> d           0.529  -0.365   0.885  0.00  0.00     0.044 H 
ATOM      8  H5  <0> d          -1.020  -0.381   0.010  0.00  0.00     0.044 H 
BRANCH   6   9
ATOM      9  C1  <0> d          -0.019   1.526   0.010  0.00  0.00    -0.070 C 
ATOM     10  H1  <0> d           1.004   1.903   0.003  0.00  0.00     0.028 H 
ATOM     11  H2  <0> d          -0.546   1.887  -0.873  0.00  0.00     0.028 H 
ATOM     12  H3  <0> d          -0.529   1.877   0.907  0.00  0.00     0.028 H 
ENDBRANCH   6   9
ENDBRANCH   1   6
BRANCH   3  13
ATOM     13  N3  <0> d           0.782  -1.502  -4.587  0.00  0.00    -0.362 N 
ATOM     14  H6  <0> d          -0.120  -1.461  -4.942  0.00  0.00     0.159 HD
ATOM     15  H7  <0> d           1.514  -1.791  -5.154  0.00  0.00     0.159 HD
ENDBRANCH   3  13
TORSDOF 3
