REMARK  5 active torsions:
REMARK  status: ('A' for Active; 'I' for Inactive)
REMARK    1  A    between atoms: C1_1  and  C2_2 
REMARK    2  A    between atoms: N2_5  and  C5_7 
REMARK    3  A    between atoms: C5_7  and  C6_9 
REMARK    4  A    between atoms: C5_7  and  C7_10 
REMARK    5  A    between atoms: C7_10  and  O1_11 
ROOT
ATOM      1  C2  <0> d           1.267   1.775  -0.001  0.00  0.00    -0.026 A 
ATOM      2  C3  <0> d           2.098   0.650  -0.015  0.00  0.00     0.029 A 
ATOM      3  N1  <0> d           1.341  -0.417  -0.013  0.00  0.00    -0.184 NA
ATOM      4  N2  <0> d           0.002  -0.004   0.002  0.00  0.00    -0.274 N 
ATOM      5  C4  <0> d          -0.016   1.345   0.009  0.00  0.00     0.006 A 
ATOM      6  H5  <0> d           3.178   0.660  -0.025  0.00  0.00     0.118 H 
ATOM      7  H6  <0> d          -0.897   1.970   0.017  0.00  0.00     0.115 H 
ENDROOT
BRANCH   4   8
ATOM      8  C5  <0> d          -1.171  -0.882   0.008  0.00  0.00     0.051 C 
ATOM      9  H1  <0> d          -0.855  -1.841   0.444  0.00  0.00     0.078 H 
BRANCH   8  10
ATOM     10  C6  <0> d          -2.279  -0.246   0.849  0.00  0.00    -0.053 C 
ATOM     11  H7  <0> d          -3.160  -0.905   0.854  0.00  0.00     0.030 H 
ATOM     12  H8  <0> d          -2.553   0.728   0.418  0.00  0.00     0.030 H 
ATOM     13  H9  <0> d          -1.922  -0.104   1.880  0.00  0.00     0.030 H 
ENDBRANCH   8  10
BRANCH   8  14
ATOM     14  C7  <0> d          -1.667  -1.079  -1.425  0.00  0.00     0.037 C 
ATOM     15  H10 <0> d          -2.025  -0.119  -1.825  0.00  0.00     0.077 H 
ATOM     16  H11 <0> d          -0.843  -1.453  -2.051  0.00  0.00     0.077 H 
BRANCH  14  17
ATOM     17  O1  <0> d          -2.738  -2.026  -1.433  0.00  0.00    -0.399 OA
ATOM     18  H12 <0> d          -3.226  -2.298  -2.381  0.00  0.00     0.209 HD
ENDBRANCH  14  17
ENDBRANCH   8  14
ENDBRANCH   4   8
BRANCH   1  19
ATOM     19  C1  <0> d           1.720   3.212   0.003  0.00  0.00    -0.049 C 
ATOM     20  H2  <0> d           2.820   3.250  -0.007  0.00  0.00     0.033 H 
ATOM     21  H3  <0> d           1.345   3.713   0.907  0.00  0.00     0.033 H 
ATOM     22  H4  <0> d           1.328   3.723  -0.889  0.00  0.00     0.033 H 
ENDBRANCH   1  19
TORSDOF 5
