REMARK  9 active torsions:
REMARK  status: ('A' for Active; 'I' for Inactive)
REMARK    1  A    between atoms: C1_1  and  C2_2 
REMARK    2  A    between atoms: C2_2  and  C3_3 
REMARK    3  A    between atoms: C3_3  and  C4_4 
REMARK    4  A    between atoms: C4_4  and  C5_5 
REMARK    5  A    between atoms: C5_5  and  C6_6 
REMARK    6  A    between atoms: C6_6  and  C7_8 
REMARK    7  A    between atoms: C6_6  and  O1_10 
REMARK    8  A    between atoms: C7_8  and  C8_9 
REMARK    9  A    between atoms: O1_10  and  C9_11 
ROOT
ATOM      1  C9  <0> d          -1.673   3.645   0.723  0.00  0.00     0.043 C 
ATOM      2  C10 <0> d          -2.561   4.200   0.193  0.00  0.00    -0.125 C 
ATOM      3  H18 <0> d          -3.356   4.696  -0.281  0.00  0.00     0.169 H 
ENDROOT
BRANCH   1   4
ATOM      4  O1  <0> d          -0.647   3.004   1.334  0.00  0.00    -0.299 OA
BRANCH   4   5
ATOM      5  C6  <0> d          -0.729   1.579   1.267  0.00  0.00     0.054 C 
ATOM      6  H1  <0> d          -1.776   1.277   1.232  0.00  0.00     0.085 H 
BRANCH   5   7
ATOM      7  C5  <0> d          -0.064   0.971   2.503  0.00  0.00    -0.040 C 
ATOM      8  H11 <0> d          -0.047  -0.115   2.410  0.00  0.00     0.036 H 
ATOM      9  H12 <0> d           0.957   1.344   2.587  0.00  0.00     0.036 H 
BRANCH   7  10
ATOM     10  C4  <0> d          -0.855   1.364   3.753  0.00  0.00    -0.063 C 
ATOM     11  H9  <0> d          -0.871   2.450   3.846  0.00  0.00     0.033 H 
ATOM     12  H10 <0> d          -1.875   0.991   3.669  0.00  0.00     0.033 H 
BRANCH  10  13
ATOM     13  C3  <0> d          -0.190   0.756   4.989  0.00  0.00    -0.065 C 
ATOM     14  H7  <0> d          -0.173  -0.330   4.896  0.00  0.00     0.033 H 
ATOM     15  H8  <0> d           0.831   1.129   5.073  0.00  0.00     0.033 H 
BRANCH  13  16
ATOM     16  C2  <0> d          -0.981   1.149   6.239  0.00  0.00    -0.069 C 
ATOM     17  H5  <0> d          -0.997   2.235   6.332  0.00  0.00     0.032 H 
ATOM     18  H6  <0> d          -2.001   0.776   6.155  0.00  0.00     0.032 H 
BRANCH  16  19
ATOM     19  C1  <0> d          -0.315   0.541   7.475  0.00  0.00    -0.077 C 
ATOM     20  H2  <0> d          -0.879   0.821   8.366  0.00  0.00     0.027 H 
ATOM     21  H3  <0> d          -0.299  -0.545   7.382  0.00  0.00     0.027 H 
ATOM     22  H4  <0> d           0.705   0.914   7.559  0.00  0.00     0.027 H 
ENDBRANCH  16  19
ENDBRANCH  13  16
ENDBRANCH  10  13
ENDBRANCH   7  10
ENDBRANCH   5   7
BRANCH   5  23
ATOM     23  C7  <0> d          -0.013   1.086   0.008  0.00  0.00    -0.043 C 
ATOM     24  H13 <0> d           0.002  -0.004   0.002  0.00  0.00     0.036 H 
ATOM     25  H14 <0> d           1.010   1.463   0.000  0.00  0.00     0.036 H 
BRANCH  23  26
ATOM     26  C8  <0> d          -0.753   1.593  -1.232  0.00  0.00    -0.074 C 
ATOM     27  H15 <0> d          -1.775   1.215  -1.224  0.00  0.00     0.027 H 
ATOM     28  H16 <0> d          -0.767   2.683  -1.226  0.00  0.00     0.027 H 
ATOM     29  H17 <0> d          -0.242   1.241  -2.128  0.00  0.00     0.027 H 
ENDBRANCH  23  26
ENDBRANCH   5  23
ENDBRANCH   4   5
ENDBRANCH   1   4
TORSDOF 9
