REMARK  2 active torsions:
REMARK  status: ('A' for Active; 'I' for Inactive)
REMARK    1  A    between atoms: C1_1  and  O1_2 
REMARK    2  A    between atoms: O1_2  and  C2_3 
ROOT
ATOM      1  C2  <0> d           1.998   2.049   0.952  0.00  0.00     0.042 C 
ATOM      2  C3  <0> d           1.206   2.069  -0.041  0.00  0.00    -0.075 C 
ATOM      3  C4  <0> d          -0.271   1.821   0.110  0.00  0.00    -0.048 C 
ATOM      4  C5  <0> d          -0.289   0.281  -0.078  0.00  0.00    -0.062 C 
ATOM      5  C6  <0> d           0.703  -0.381   0.903  0.00  0.00    -0.065 C 
ATOM      6  C7  <0> d           2.091  -0.537   0.283  0.00  0.00    -0.065 C 
ATOM      7  C8  <0> d           3.191   0.059   1.189  0.00  0.00    -0.060 C 
ATOM      8  C9  <0> d           3.416   1.552   0.834  0.00  0.00    -0.021 C 
ATOM      9  H4  <0> d           1.605   2.270  -1.024  0.00  0.00     0.080 H 
ATOM     10  H5  <0> d          -0.841   2.324  -0.671  0.00  0.00     0.038 H 
ATOM     11  H6  <0> d          -0.623   2.105   1.101  0.00  0.00     0.038 H 
ATOM     12  H7  <0> d          -1.294  -0.096   0.114  0.00  0.00     0.033 H 
ATOM     13  H8  <0> d          -0.003   0.038  -1.101  0.00  0.00     0.033 H 
ATOM     14  H9  <0> d           0.781   0.235   1.799  0.00  0.00     0.033 H 
ATOM     15  H10 <0> d           0.325  -1.365   1.181  0.00  0.00     0.033 H 
ATOM     16  H11 <0> d           2.294  -1.597   0.129  0.00  0.00     0.033 H 
ATOM     17  H12 <0> d           2.110  -0.029  -0.681  0.00  0.00     0.033 H 
ATOM     18  H13 <0> d           2.885  -0.023   2.232  0.00  0.00     0.033 H 
ATOM     19  H14 <0> d           4.119  -0.492   1.041  0.00  0.00     0.033 H 
ATOM     20  H15 <0> d           4.069   2.039   1.558  0.00  0.00     0.043 H 
ATOM     21  H16 <0> d           3.795   1.668  -0.181  0.00  0.00     0.043 H 
ENDROOT
BRANCH   1  22
ATOM     22  O1  <0> d           1.554   2.488   2.156  0.00  0.00    -0.361 OA
BRANCH  22  23
ATOM     23  C1  <0> d           2.164   3.669   2.681  0.00  0.00     0.010 C 
ATOM     24  H1  <0> d           2.090   4.473   1.948  0.00  0.00     0.066 H 
ATOM     25  H2  <0> d           1.653   3.965   3.598  0.00  0.00     0.066 H 
ATOM     26  H3  <0> d           3.213   3.470   2.898  0.00  0.00     0.066 H 
ENDBRANCH  22  23
ENDBRANCH   1  22
TORSDOF 2
