REMARK  2 active torsions:
REMARK  status: ('A' for Active; 'I' for Inactive)
REMARK    1  A    between atoms: C2_2  and  C3_3 
REMARK    2  A    between atoms: C3_3  and  O3_13 
ROOT
ATOM      1  C1  <0> d           0.094   0.276  -3.363  0.00  0.00    -0.150 C 
ATOM      2  C2  <0> d          -0.270   0.872  -2.420  0.00  0.00    -0.070 C 
ATOM      3  H3  <0> d           0.419  -0.257  -4.207  0.00  0.00     0.166 H 
ENDROOT
BRANCH   2   4
ATOM      4  C3  <0> d          -0.727   1.620  -1.237  0.00  0.00     0.188 C 
ATOM      5  C8  <0> d          -0.013   1.086   0.008  0.00  0.00     0.175 C 
ATOM      6  O1  <0> d          -0.631   1.574   1.206  0.00  0.00    -0.354 OA
ATOM      7  H2  <0> d           0.002  -0.004   0.002  0.00  0.00     0.136 H 
ATOM      8  O2  <0> d           1.334   1.612  -0.002  0.00  0.00    -0.346 OA
ATOM      9  C7  <0> d           0.082   2.761   1.601  0.00  0.00     0.050 C 
ATOM     10  C6  <0> d           1.135   2.966   0.479  0.00  0.00     0.078 C 
ATOM     11  H6  <0> d           0.574   2.608   2.561  0.00  0.00     0.079 H 
ATOM     12  H7  <0> d          -0.594   3.614   1.649  0.00  0.00     0.079 H 
ATOM     13  C5  <0> d           0.426   3.725  -0.626  0.00  0.00    -0.073 C 
ATOM     14  H1  <0> d           2.055   3.448   0.811  0.00  0.00     0.093 H 
ATOM     15  C4  <0> d          -0.432   3.104  -1.390  0.00  0.00    -0.055 C 
ATOM     16  H5  <0> d           0.629   4.774  -0.780  0.00  0.00     0.080 H 
ATOM     17  H4  <0> d          -0.940   3.659  -2.164  0.00  0.00     0.083 H 
BRANCH   4  18
ATOM     18  O3  <0> d          -2.137   1.445  -1.085  0.00  0.00    -0.370 OA
ATOM     19  H8  <0> d          -2.656   1.761  -1.837  0.00  0.00     0.212 HD
ENDBRANCH   4  18
ENDBRANCH   2   4
TORSDOF 2
