REMARK  5 active torsions:
REMARK  status: ('A' for Active; 'I' for Inactive)
REMARK    1  A    between atoms: C1_1  and  C2_2 
REMARK    2  A    between atoms: C2_2  and  C3_3 
REMARK    3  A    between atoms: C3_3  and  C4_5 
REMARK    4  A    between atoms: C3_3  and  C5_7 
REMARK    5  A    between atoms: C4_5  and  O1_6 
ROOT
ATOM      1  C3  <0> d          -2.164   1.050   1.278  0.00  0.00     0.050 C 
ATOM      2  H1  <0> d          -2.152  -0.036   1.182  0.00  0.00     0.059 H 
ENDROOT
BRANCH   1   3
ATOM      3  C2  <0> d          -0.729   1.579   1.267  0.00  0.00    -0.054 C 
ATOM      4  H5  <0> d          -0.202   1.218   2.150  0.00  0.00     0.033 H 
ATOM      5  H6  <0> d          -0.744   2.669   1.273  0.00  0.00     0.033 H 
BRANCH   3   6
ATOM      6  C1  <0> d          -0.013   1.086   0.008  0.00  0.00    -0.076 C 
ATOM      7  H2  <0> d           0.002  -0.004   0.002  0.00  0.00     0.027 H 
ATOM      8  H3  <0> d           1.010   1.463   0.000  0.00  0.00     0.027 H 
ATOM      9  H4  <0> d          -0.540   1.447  -0.875  0.00  0.00     0.027 H 
ENDBRANCH   3   6
ENDBRANCH   1   3
BRANCH   1  10
ATOM     10  C4  <0> d          -2.841   1.438   2.594  0.00  0.00     0.029 C 
ATOM     11  H7  <0> d          -2.240   1.082   3.430  0.00  0.00     0.075 H 
ATOM     12  H8  <0> d          -2.934   2.523   2.648  0.00  0.00     0.075 H 
BRANCH  10  13
ATOM     13  O1  <0> d          -4.140   0.846   2.654  0.00  0.00    -0.400 OA
ATOM     14  H9  <0> d          -4.628   1.050   3.463  0.00  0.00     0.209 HD
ENDBRANCH  10  13
ENDBRANCH   1  10
BRANCH   1  15
ATOM     15  C5  <0> d          -2.929   1.647   0.124  0.00  0.00     0.179 C 
ATOM     16  O2  <0> d          -2.381   2.417  -0.629  0.00  0.00    -0.648 OA
ATOM     17  O3  <0> d          -4.217   1.323  -0.066  0.00  0.00    -0.648 OA
ENDBRANCH   1  15
TORSDOF 5
