REMARK  3 active torsions:
REMARK  status: ('A' for Active; 'I' for Inactive)
REMARK    1  A    between atoms: C2_2  and  N3_9 
REMARK    2  A    between atoms: C4_4  and  N2_8 
REMARK    3  A    between atoms: C6_6  and  N1_7 
ROOT
ATOM      1  C1  <0> d          -1.249   3.036   0.030  0.00  0.00    -0.032 A 
ATOM      2  C2  <0> d          -2.460   3.714   0.035  0.00  0.00     0.029 A 
ATOM      3  C3  <0> d          -3.653   3.003   0.036  0.00  0.00    -0.032 A 
ATOM      4  C4  <0> d          -3.634   1.615   0.028  0.00  0.00     0.029 A 
ATOM      5  C5  <0> d          -2.423   0.937   0.019  0.00  0.00    -0.032 A 
ATOM      6  C6  <0> d          -1.230   1.648   0.017  0.00  0.00     0.029 A 
ATOM      7  H1  <0> d          -0.321   3.588   0.033  0.00  0.00     0.090 H 
ATOM      8  H2  <0> d          -4.596   3.530   0.043  0.00  0.00     0.090 H 
ATOM      9  H3  <0> d          -2.408  -0.143   0.012  0.00  0.00     0.090 H 
ENDROOT
BRANCH   2  10
ATOM     10  N3  <0> d          -2.479   5.110   0.043  0.00  0.00    -0.399 N 
ATOM     11  H8  <0> d          -3.326   5.584   0.049  0.00  0.00     0.156 HD
ATOM     12  H9  <0> d          -1.646   5.606   0.042  0.00  0.00     0.156 HD
ENDBRANCH   2  10
BRANCH   6  13
ATOM     13  N1  <0> d          -0.011   0.966   0.007  0.00  0.00    -0.399 N 
ATOM     14  H4  <0> d           0.002  -0.004   0.002  0.00  0.00     0.156 HD
ATOM     15  H5  <0> d           0.822   1.462   0.002  0.00  0.00     0.156 HD
ENDBRANCH   6  13
BRANCH   4  16
ATOM     16  N2  <0> d          -4.834   0.900   0.029  0.00  0.00    -0.399 N 
ATOM     17  H6  <0> d          -4.821  -0.070   0.023  0.00  0.00     0.156 HD
ATOM     18  H7  <0> d          -5.681   1.374   0.035  0.00  0.00     0.156 HD
ENDBRANCH   4  16
TORSDOF 3
