REMARK  1 active torsions:
REMARK  status: ('A' for Active; 'I' for Inactive)
REMARK    1  A    between atoms: C6_6  and  N1_7 
ROOT
ATOM      1  C1  <0> d          -0.043   4.127   0.024  0.00  0.00    -0.037 A 
ATOM      2  C2  <0> d          -1.244   3.416   0.032  0.00  0.00     0.049 A 
ATOM      3  C3  <0> d          -1.224   2.020   0.019  0.00  0.00    -0.025 A 
ATOM      4  C4  <0> d          -0.016   1.347   0.009  0.00  0.00     0.119 A 
ATOM      5  C5  <0> d           1.174   2.053   0.002  0.00  0.00    -0.020 A 
ATOM      6  C6  <0> d           1.163   3.443   0.009  0.00  0.00     0.030 A 
ATOM      7  F1  <0> d           0.002  -0.004   0.002  0.00  0.00    -0.206 F 
ATOM      8  C7  <0> d          -2.493   4.116   0.047  0.00  0.00     0.099 C 
ATOM      9  N2  <0> d          -3.484   4.671   0.059  0.00  0.00    -0.191 NA
ATOM     10  H1  <0> d          -0.054   5.207   0.030  0.00  0.00     0.089 H 
ATOM     11  H2  <0> d          -2.151   1.466   0.020  0.00  0.00     0.090 H 
ATOM     12  H3  <0> d           2.115   1.523  -0.010  0.00  0.00     0.091 H 
ENDROOT
BRANCH   6  13
ATOM     13  N1  <0> d           2.366   4.151   0.002  0.00  0.00    -0.399 N 
ATOM     14  H4  <0> d           3.210   3.673  -0.009  0.00  0.00     0.156 HD
ATOM     15  H5  <0> d           2.359   5.121   0.007  0.00  0.00     0.156 HD
ENDBRANCH   6  13
TORSDOF 1
