REMARK  0 active torsions:
REMARK  status: ('A' for Active; 'I' for Inactive)
ROOT
ATOM      1  C1  <0> d          -0.013   1.076   0.008  0.00  0.00     0.067 A 
ATOM      2  N1  <0> d           1.089   1.878   0.002  0.00  0.00    -0.327 N 
ATOM      3  H1  <0> d           2.094   1.432  -0.010  0.00  0.00     0.169 HD
ATOM      4  C2  <0> d           0.658   3.172   0.013  0.00  0.00     0.219 A 
ATOM      5  C3  <0> d          -0.725   3.124   0.026  0.00  0.00     0.191 A 
ATOM      6  N2  <0> d          -1.084   1.812   0.017  0.00  0.00    -0.229 NA
ATOM      7  C4  <0> d          -1.613   4.247   0.040  0.00  0.00     0.124 C 
ATOM      8  N3  <0> d          -2.317   5.138   0.052  0.00  0.00    -0.190 NA
ATOM      9  O1  <0> d           1.431   4.284   0.012  0.00  0.00    -0.169 OA
ATOM     10  H2  <0> d           0.002  -0.004   0.002  0.00  0.00     0.143 H 
ENDROOT
TORSDOF 0
