REMARK  3 active torsions:
REMARK  status: ('A' for Active; 'I' for Inactive)
REMARK    1  A    between atoms: C1_1  and  C2_2 
REMARK    2  A    between atoms: C2_2  and  C3_4 
REMARK    3  A    between atoms: C7_8  and  C9_10 
ROOT
ATOM      1  C9  <0> d          -2.462   1.022   0.019  0.00  0.00    -0.078 C 
ATOM      2  C10 <0> d          -3.470   0.420   0.021  0.00  0.00    -0.149 C 
ATOM      3  H8  <0> d          -4.372  -0.118   0.022  0.00  0.00     0.166 H 
ENDROOT
BRANCH   1   4
ATOM      4  C7  <0> d          -1.233   1.755   0.017  0.00  0.00     0.017 A 
ATOM      5  C6  <0> d          -0.013   1.076   0.008  0.00  0.00    -0.065 A 
ATOM      6  C5  <0> d           1.176   1.781   0.000  0.00  0.00    -0.081 A 
ATOM      7  H6  <0> d           0.002  -0.004   0.002  0.00  0.00     0.085 H 
ATOM      8  C4  <0> d           1.167   3.160   0.007  0.00  0.00    -0.069 A 
ATOM      9  H5  <0> d           2.116   1.249  -0.011  0.00  0.00     0.083 H 
ATOM     10  C3  <0> d          -0.048   3.855   0.022  0.00  0.00     0.011 A 
ATOM     11  H4  <0> d           2.100   3.705   0.001  0.00  0.00     0.085 H 
ATOM     12  C8  <0> d          -1.251   3.148   0.030  0.00  0.00    -0.051 A 
ATOM     13  H7  <0> d          -2.192   3.678   0.042  0.00  0.00     0.087 H 
BRANCH  10  14
ATOM     14  C2  <0> d          -0.056   5.327   0.030  0.00  0.00     0.155 C 
ATOM     15  O1  <0> d          -1.110   5.927   0.043  0.00  0.00    -0.293 OA
BRANCH  14  16
ATOM     16  C1  <0> d           1.244   6.088   0.021  0.00  0.00    -0.017 C 
ATOM     17  H1  <0> d           1.762   5.854  -0.801  0.00  0.00     0.038 H 
ATOM     18  H2  <0> d           1.039   7.159   0.029  0.00  0.00     0.038 H 
ATOM     19  H3  <0> d           1.826   5.824   0.905  0.00  0.00     0.038 H 
ENDBRANCH  14  16
ENDBRANCH  10  14
ENDBRANCH   1   4
TORSDOF 3
