REMARK  3 active torsions:
REMARK  status: ('A' for Active; 'I' for Inactive)
REMARK    1  A    between atoms: C1_1  and  N1_2 
REMARK    2  A    between atoms: N1_2  and  C2_3 
REMARK    3  A    between atoms: N1_2  and  C3_4 
ROOT
ATOM      1  C3  <0> d           1.149  -0.666  -0.013  0.00  0.00     0.729 A 
ATOM      2  N2  <0> d           0.002  -0.004   0.002  0.00  0.00    -0.033 NA
ATOM      3  C4  <0> d          -0.016   1.321   0.009  0.00  0.00     0.232 A 
ATOM      4  C5  <0> d           1.187   2.014   0.002  0.00  0.00     0.030 A 
ATOM      5  C6  <0> d           2.370   1.288  -0.013  0.00  0.00     0.232 A 
ATOM      6  N3  <0> d           2.315  -0.036  -0.020  0.00  0.00    -0.033 NA
ATOM      7  F1  <0> d           3.562   1.924  -0.021  0.00  0.00    -0.183 F 
ATOM      8  F2  <0> d          -1.190   1.990   0.018  0.00  0.00    -0.183 F 
ATOM      9  H7  <0> d           1.202   3.094   0.007  0.00  0.00     0.098 H 
ENDROOT
BRANCH   1  10
ATOM     10  N1  <0> d           1.130  -2.050  -0.020  0.00  0.00    -0.223 N 
BRANCH  10  11
ATOM     11  C1  <0> d          -0.148  -2.765  -0.011  0.00  0.00    -0.003 C 
ATOM     12  H1  <0> d          -0.475  -2.937  -1.037  0.00  0.00     0.057 H 
ATOM     13  H2  <0> d          -0.026  -3.722   0.496  0.00  0.00     0.057 H 
ATOM     14  H3  <0> d          -0.895  -2.168   0.513  0.00  0.00     0.057 H 
ENDBRANCH  10  11
BRANCH  10  15
ATOM     15  C2  <0> d           2.389  -2.800  -0.036  0.00  0.00    -0.003 C 
ATOM     16  H4  <0> d           3.227  -2.103  -0.040  0.00  0.00     0.057 H 
ATOM     17  H5  <0> d           2.446  -3.432   0.850  0.00  0.00     0.057 H 
ATOM     18  H6  <0> d           2.429  -3.422  -0.929  0.00  0.00     0.057 H 
ENDBRANCH  10  15
ENDBRANCH   1  10
TORSDOF 3
