REMARK  1 active torsions:
REMARK  status: ('A' for Active; 'I' for Inactive)
REMARK    1  A    between atoms: C1_1  and  C2_2 
ROOT
ATOM      1  C2  <0> d           2.370   1.388  -0.011  0.00  0.00    -0.046 A 
ATOM      2  C3  <0> d           1.181   2.066   0.002  0.00  0.00    -0.011 A 
ATOM      3  C4  <0> d          -0.016   1.339   0.009  0.00  0.00     0.247 A 
ATOM      4  O1  <0> d          -1.084   1.931   0.018  0.00  0.00    -0.268 OA
ATOM      5  N1  <0> d           0.002  -0.004   0.002  0.00  0.00    -0.304 N 
ATOM      6  H1  <0> d          -0.943  -0.567   0.011  0.00  0.00     0.171 HD
ATOM      7  C5  <0> d           1.183  -0.695  -0.017  0.00  0.00     0.151 A 
ATOM      8  C6  <0> d           2.361  -0.003  -0.017  0.00  0.00     0.001 A 
ATOM      9  C7  <0> d           3.484  -1.022  -0.022  0.00  0.00    -0.016 C 
ATOM     10  C8  <0> d           2.735  -2.317   0.372  0.00  0.00     0.031 C 
ATOM     11  O2  <0> d           1.389  -2.035  -0.047  0.00  0.00    -0.335 OA
ATOM     12  H5  <0> d           1.167   3.146   0.005  0.00  0.00     0.092 H 
ATOM     13  H6  <0> d           3.932  -1.069  -1.026  0.00  0.00     0.043 H 
ATOM     14  H7  <0> d           4.252  -0.726   0.709  0.00  0.00     0.043 H 
ATOM     15  H8  <0> d           3.178  -3.173  -0.158  0.00  0.00     0.075 H 
ATOM     16  H9  <0> d           2.821  -2.475   1.458  0.00  0.00     0.075 H 
ENDROOT
BRANCH   1  17
ATOM     17  C1  <0> d           3.676   2.141  -0.018  0.00  0.00    -0.050 C 
ATOM     18  H2  <0> d           3.476   3.222  -0.011  0.00  0.00     0.033 H 
ATOM     19  H3  <0> d           4.245   1.879  -0.922  0.00  0.00     0.033 H 
ATOM     20  H4  <0> d           4.260   1.870   0.874  0.00  0.00     0.033 H 
ENDBRANCH   1  17
TORSDOF 1
