REMARK  3 active torsions:
REMARK  status: ('A' for Active; 'I' for Inactive)
REMARK    1  A    between atoms: C1_1  and  O1_2 
REMARK    2  A    between atoms: O1_2  and  C2_3 
REMARK    3  A    between atoms: C6_7  and  N1_10 
ROOT
ATOM      1  C2  <0> d           1.174   2.090   0.002  0.00  0.00     0.109 A 
ATOM      2  C3  <0> d          -0.017   1.378   0.010  0.00  0.00    -0.048 A 
ATOM      3  C4  <0> d           0.002  -0.004   0.002  0.00  0.00    -0.078 A 
ATOM      4  C5  <0> d           1.206  -0.682  -0.013  0.00  0.00    -0.054 A 
ATOM      5  C6  <0> d           2.402   0.025  -0.021  0.00  0.00     0.067 A 
ATOM      6  C7  <0> d           2.385   1.414  -0.013  0.00  0.00     0.175 A 
ATOM      7  F1  <0> d           3.546   2.105  -0.022  0.00  0.00    -0.201 F 
ATOM      8  H4  <0> d          -0.960   1.904   0.017  0.00  0.00     0.087 H 
ATOM      9  H5  <0> d          -0.926  -0.555   0.008  0.00  0.00     0.083 H 
ATOM     10  H6  <0> d           1.218  -1.762  -0.019  0.00  0.00     0.087 H 
ENDROOT
BRANCH   1  11
ATOM     11  O1  <0> d           1.154   3.449   0.009  0.00  0.00    -0.353 OA
BRANCH  11  12
ATOM     12  C1  <0> d          -0.129   4.079   0.024  0.00  0.00     0.011 C 
ATOM     13  H1  <0> d          -0.001   5.171   0.029  0.00  0.00     0.066 H 
ATOM     14  H2  <0> d          -0.678   3.771   0.926  0.00  0.00     0.066 H 
ATOM     15  H3  <0> d          -0.695   3.780  -0.870  0.00  0.00     0.066 H 
ENDBRANCH  11  12
ENDBRANCH   1  11
BRANCH   5  16
ATOM     16  N1  <0> d           3.620  -0.661  -0.036  0.00  0.00    -0.397 N 
ATOM     17  H7  <0> d           4.567  -0.101  -0.043  0.00  0.00     0.156 HD
ATOM     18  H8  <0> d           3.632  -1.761  -0.042  0.00  0.00     0.156 HD
ENDBRANCH   5  16
TORSDOF 3
