REMARK  2 active torsions:
REMARK  status: ('A' for Active; 'I' for Inactive)
REMARK    1  A    between atoms: C3_3  and  C4_4 
REMARK    2  A    between atoms: C5_6  and  N3_9 
ROOT
ATOM      1  C1  <0> d          -0.019   1.526   0.010  0.00  0.00    -0.054 A 
ATOM      2  C2  <0> d           1.317   0.779  -0.006  0.00  0.00    -0.054 A 
ATOM      3  C3  <0> d           0.002  -0.004   0.002  0.00  0.00     0.013 A 
ATOM      4  H1  <0> d          -0.307   2.020   0.938  0.00  0.00     0.034 H 
ATOM      5  H2  <0> d          -0.325   2.030  -0.906  0.00  0.00     0.034 H 
ATOM      6  H3  <0> d           1.889   0.792  -0.934  0.00  0.00     0.034 H 
ATOM      7  H4  <0> d           1.906   0.782   0.910  0.00  0.00     0.034 H 
ATOM      8  H5  <0> d          -0.273  -0.516   0.924  0.00  0.00     0.052 H 
ENDROOT
BRANCH   3   9
ATOM      9  C4  <0> d          -0.402  -0.698  -1.273  0.00  0.00     0.194 A 
ATOM     10  O1  <0> d           0.198  -0.563  -2.462  0.00  0.00    -0.182 OA
ATOM     11  N2  <0> d          -0.512  -1.398  -3.366  0.00  0.00     0.070 NA
ATOM     12  C5  <0> d          -1.473  -1.958  -2.676  0.00  0.00     0.745 A 
ATOM     13  N1  <0> d          -1.399  -1.528  -1.406  0.00  0.00    -0.038 NA
BRANCH  12  14
ATOM     14  N3  <0> d          -2.413  -2.851  -3.174  0.00  0.00    -0.229 N 
ATOM     15  H6  <0> d          -3.092  -3.218  -2.587  0.00  0.00     0.174 HD
ATOM     16  H7  <0> d          -2.390  -3.106  -4.110  0.00  0.00     0.174 HD
ENDBRANCH  12  14
ENDBRANCH   3   9
TORSDOF 2
