REMARK  6 active torsions:
REMARK  status: ('A' for Active; 'I' for Inactive)
REMARK    1  A    between atoms: C1_1  and  C2_2 
REMARK    2  A    between atoms: C1_1  and  C5_7 
REMARK    3  A    between atoms: C2_2  and  C3_3 
REMARK    4  A    between atoms: C3_3  and  C4_4 
REMARK       I    between atoms: C4_4  and  N1_6 
REMARK    5  A    between atoms: C5_7  and  C6_8 
REMARK    6  A    between atoms: C6_8  and  C7_9 
REMARK       I    between atoms: C7_9  and  N2_11 
ROOT
ATOM      1  C1  <0> d          -2.678   5.151   0.043  0.00  0.00    -0.064 C 
ATOM      2  H1  <0> d          -2.165   5.516   0.932  0.00  0.00     0.033 H 
ATOM      3  H2  <0> d          -2.173   5.526  -0.848  0.00  0.00     0.033 H 
ENDROOT
BRANCH   1   4
ATOM      4  C2  <0> d          -2.657   3.621   0.034  0.00  0.00    -0.057 C 
ATOM      5  H3  <0> d          -3.170   3.256  -0.855  0.00  0.00     0.033 H 
ATOM      6  H4  <0> d          -3.162   3.246   0.925  0.00  0.00     0.033 H 
BRANCH   4   7
ATOM      7  C3  <0> d          -1.208   3.131   0.025  0.00  0.00     0.009 C 
ATOM      8  H5  <0> d          -0.695   3.496   0.914  0.00  0.00     0.047 H 
ATOM      9  H6  <0> d          -0.703   3.506  -0.866  0.00  0.00     0.047 H 
BRANCH   7  10
ATOM     10  C4  <0> d          -1.187   1.624   0.017  0.00  0.00     0.215 C 
ATOM     11  O1  <0> d          -2.229   1.003   0.018  0.00  0.00    -0.274 OA
ATOM     12  N1  <0> d          -0.011   0.966   0.007  0.00  0.00    -0.370 N 
ATOM     13  H7  <0> d           0.002  -0.004   0.002  0.00  0.00     0.159 HD
ATOM     14  H8  <0> d           0.822   1.462   0.002  0.00  0.00     0.159 HD
ENDBRANCH   7  10
ENDBRANCH   4   7
ENDBRANCH   1   4
BRANCH   1  15
ATOM     15  C5  <0> d          -4.127   5.641   0.052  0.00  0.00    -0.057 C 
ATOM     16  H9  <0> d          -4.640   5.276  -0.837  0.00  0.00     0.033 H 
ATOM     17  H10 <0> d          -4.632   5.266   0.943  0.00  0.00     0.033 H 
BRANCH  15  18
ATOM     18  C6  <0> d          -4.148   7.171   0.061  0.00  0.00     0.009 C 
ATOM     19  H11 <0> d          -3.635   7.536   0.950  0.00  0.00     0.047 H 
ATOM     20  H12 <0> d          -3.643   7.546  -0.830  0.00  0.00     0.047 H 
BRANCH  18  21
ATOM     21  C7  <0> d          -5.575   7.654   0.070  0.00  0.00     0.215 C 
ATOM     22  O2  <0> d          -6.486   6.853   0.070  0.00  0.00    -0.274 OA
ATOM     23  N2  <0> d          -5.840   8.976   0.079  0.00  0.00    -0.370 N 
ATOM     24  H13 <0> d          -5.111   9.616   0.079  0.00  0.00     0.159 HD
ATOM     25  H14 <0> d          -6.758   9.286   0.085  0.00  0.00     0.159 HD
ENDBRANCH  18  21
ENDBRANCH  15  18
ENDBRANCH   1  15
TORSDOF 6
