REMARK  9 active torsions:
REMARK  status: ('A' for Active; 'I' for Inactive)
REMARK    1  A    between atoms: C1_1  and  C2_2 
REMARK    2  A    between atoms: C2_2  and  C3_3 
REMARK    3  A    between atoms: C2_2  and  C4_4 
REMARK    4  A    between atoms: C4_4  and  C5_5 
REMARK    5  A    between atoms: C4_4  and  C8_8 
REMARK    6  A    between atoms: C4_4  and  O2_11 
REMARK    7  A    between atoms: C5_5  and  C6_6 
REMARK    8  A    between atoms: C5_5  and  C7_7 
REMARK    9  A    between atoms: C8_8  and  C9_10 
ROOT
ATOM      1  C4  <0> d           1.280   1.975   0.000  0.00  0.00     0.123 C 
ENDROOT
BRANCH   1   2
ATOM      2  C2  <0> d           1.732   2.228   1.440  0.00  0.00    -0.024 C 
ATOM      3  H4  <0> d           2.620   2.861   1.436  0.00  0.00     0.044 H 
BRANCH   2   4
ATOM      4  C1  <0> d           0.611   2.927   2.211  0.00  0.00    -0.070 C 
ATOM      5  H1  <0> d           0.933   3.107   3.237  0.00  0.00     0.028 H 
ATOM      6  H2  <0> d           0.377   3.877   1.731  0.00  0.00     0.028 H 
ATOM      7  H3  <0> d          -0.277   2.294   2.215  0.00  0.00     0.028 H 
ENDBRANCH   2   4
BRANCH   2   8
ATOM      8  C3  <0> d           2.060   0.894   2.114  0.00  0.00    -0.070 C 
ATOM      9  H5  <0> d           2.859   0.396   1.565  0.00  0.00     0.028 H 
ATOM     10  H6  <0> d           2.382   1.074   3.139  0.00  0.00     0.028 H 
ATOM     11  H7  <0> d           1.173   0.261   2.118  0.00  0.00     0.028 H 
ENDBRANCH   2   8
ENDBRANCH   1   2
BRANCH   1  12
ATOM     12  C5  <0> d           2.351   1.166  -0.735  0.00  0.00    -0.024 C 
ATOM     13  H8  <0> d           2.499   0.213  -0.228  0.00  0.00     0.044 H 
BRANCH  12  14
ATOM     14  C6  <0> d           1.899   0.913  -2.175  0.00  0.00    -0.070 C 
ATOM     15  H9  <0> d           2.662   0.337  -2.699  0.00  0.00     0.028 H 
ATOM     16  H10 <0> d           0.963   0.355  -2.169  0.00  0.00     0.028 H 
ATOM     17  H11 <0> d           1.751   1.866  -2.682  0.00  0.00     0.028 H 
ENDBRANCH  12  14
BRANCH  12  18
ATOM     18  C7  <0> d           3.665   1.949  -0.744  0.00  0.00    -0.070 C 
ATOM     19  H12 <0> d           3.987   2.130   0.282  0.00  0.00     0.028 H 
ATOM     20  H13 <0> d           4.428   1.373  -1.268  0.00  0.00     0.028 H 
ATOM     21  H14 <0> d           3.517   2.902  -1.251  0.00  0.00     0.028 H 
ENDBRANCH  12  18
ENDBRANCH   1  12
BRANCH   1  22
ATOM     22  C8  <0> d          -0.014   1.203   0.009  0.00  0.00     0.158 C 
ATOM     23  O1  <0> d           0.002  -0.004   0.002  0.00  0.00    -0.295 OA
BRANCH  22  24
ATOM     24  C9  <0> d          -1.329   1.939   0.019  0.00  0.00    -0.018 C 
ATOM     25  H15 <0> d          -1.616   2.097   0.964  0.00  0.00     0.037 H 
ATOM     26  H16 <0> d          -1.214   2.896  -0.490  0.00  0.00     0.037 H 
ATOM     27  H17 <0> d          -2.083   1.343  -0.495  0.00  0.00     0.037 H 
ENDBRANCH  22  24
ENDBRANCH   1  22
BRANCH   1  28
ATOM     28  O2  <0> d           1.086   3.224  -0.665  0.00  0.00    -0.381 OA
ATOM     29  H18 <0> d           0.798   3.140  -1.584  0.00  0.00     0.211 HD
ENDBRANCH   1  28
TORSDOF 9
