REMARK  3 active torsions:
REMARK  status: ('A' for Active; 'I' for Inactive)
REMARK    1  A    between atoms: C1_1  and  C2_2 
REMARK    2  A    between atoms: C2_2  and  O2_4 
REMARK    3  A    between atoms: O2_4  and  C3_5 
ROOT
ATOM      1  C3  <0> d           2.367   1.117  -0.015  0.00  0.00     0.107 C 
ATOM      2  C4  <0> d           3.522   2.029  -0.021  0.00  0.00     0.085 C 
ATOM      3  N1  <0> d           4.414   2.733  -0.025  0.00  0.00    -0.195 NA
ATOM      4  H4  <0> d           2.409   0.484   0.872  0.00  0.00     0.098 H 
ATOM      5  H5  <0> d           2.392   0.493  -0.908  0.00  0.00     0.098 H 
ENDROOT
BRANCH   1   6
ATOM      6  O2  <0> d           1.139   1.891   0.001  0.00  0.00    -0.308 OA
BRANCH   6   7
ATOM      7  C2  <0> d          -0.014   1.204   0.009  0.00  0.00     0.255 C 
ATOM      8  O1  <0> d           0.002  -0.004   0.002  0.00  0.00    -0.266 OA
BRANCH   7   9
ATOM      9  C1  <0> d          -1.329   1.940   0.019  0.00  0.00     0.004 C 
ATOM     10  H1  <0> d          -1.642   2.111   1.049  0.00  0.00     0.041 H 
ATOM     11  H2  <0> d          -1.214   2.897  -0.490  0.00  0.00     0.041 H 
ATOM     12  H3  <0> d          -2.083   1.343  -0.495  0.00  0.00     0.041 H 
ENDBRANCH   7   9
ENDBRANCH   6   7
ENDBRANCH   1   6
TORSDOF 3
