REMARK  3 active torsions:
REMARK  status: ('A' for Active; 'I' for Inactive)
REMARK    1  A    between atoms: C1_1  and  C2_2 
REMARK    2  A    between atoms: C4_4  and  C6_8 
REMARK    3  A    between atoms: N1_5  and  C5_7 
REMARK       I    between atoms: C6_8  and  N3_10 
ROOT
ATOM      1  C2  <0> d          -1.020   2.143   3.243  0.00  0.00     0.053 A 
ATOM      2  C3  <0> d          -2.253   2.268   2.599  0.00  0.00    -0.025 A 
ATOM      3  C4  <0> d          -2.020   1.898   1.286  0.00  0.00     0.121 A 
ATOM      4  N1  <0> d          -0.696   1.570   1.210  0.00  0.00    -0.269 N 
ATOM      5  N2  <0> d          -0.147   1.726   2.361  0.00  0.00    -0.177 NA
ATOM      6  H4  <0> d          -3.189   2.588   3.032  0.00  0.00     0.090 H 
ENDROOT
BRANCH   3   7
ATOM      7  C6  <0> d          -3.002   1.862   0.190  0.00  0.00     0.267 C 
ATOM      8  O1  <0> d          -2.685   1.417  -0.896  0.00  0.00    -0.266 OA
ATOM      9  N3  <0> d          -4.252   2.323   0.391  0.00  0.00    -0.365 N 
ATOM     10  H8  <0> d          -4.484   2.745   1.233  0.00  0.00     0.159 HD
ATOM     11  H9  <0> d          -4.920   2.232  -0.306  0.00  0.00     0.159 HD
ENDBRANCH   3   7
BRANCH   4  12
ATOM     12  C5  <0> d          -0.005   1.116   0.001  0.00  0.00     0.003 C 
ATOM     13  H5  <0> d           0.002   0.027  -0.026  0.00  0.00     0.059 H 
ATOM     14  H6  <0> d           1.020   1.486   0.007  0.00  0.00     0.059 H 
ATOM     15  H7  <0> d          -0.524   1.498  -0.879  0.00  0.00     0.059 H 
ENDBRANCH   4  12
BRANCH   1  16
ATOM     16  C1  <0> d          -0.744   2.435   4.695  0.00  0.00    -0.034 C 
ATOM     17  H1  <0> d          -0.454   3.479   4.807  0.00  0.00     0.035 H 
ATOM     18  H2  <0> d          -1.643   2.242   5.282  0.00  0.00     0.035 H 
ATOM     19  H3  <0> d           0.064   1.794   5.048  0.00  0.00     0.035 H 
ENDBRANCH   1  16
TORSDOF 3
