REMARK  2 active torsions:
REMARK  status: ('A' for Active; 'I' for Inactive)
REMARK    1  A    between atoms: C1_1  and  C2_2 
REMARK    2  A    between atoms: C4_5  and  C5_7 
ROOT
ATOM      1  C2  <0> d          -1.136   1.773   0.788  0.00  0.00    -0.048 A 
ATOM      2  H1  <0> d          -0.897   2.708   1.294  0.00  0.00     0.040 H 
ATOM      3  C3  <0> d          -1.150   1.781  -0.743  0.00  0.00    -0.052 A 
ATOM      4  C4  <0> d          -0.013   1.086   0.008  0.00  0.00    -0.004 A 
ATOM      5  H2  <0> d           0.002  -0.004   0.002  0.00  0.00     0.051 H 
ATOM      6  H6  <0> d          -0.922   2.722  -1.243  0.00  0.00     0.034 H 
ATOM      7  H7  <0> d          -1.884   1.149  -1.243  0.00  0.00     0.034 H 
ENDROOT
BRANCH   4   8
ATOM      8  C5  <0> d           1.338   1.754  -0.001  0.00  0.00     0.057 A 
ATOM      9  O1  <0> d           1.603   2.983  -0.473  0.00  0.00    -0.327 OA
ATOM     10  C8  <0> d           2.909   3.252  -0.316  0.00  0.00     0.019 A 
ATOM     11  C7  <0> d           3.497   2.184   0.253  0.00  0.00    -0.059 A 
ATOM     12  H10 <0> d           3.405   4.168  -0.602  0.00  0.00     0.123 H 
ATOM     13  C6  <0> d           2.484   1.219   0.456  0.00  0.00    -0.052 A 
ATOM     14  H9  <0> d           4.542   2.083   0.507  0.00  0.00     0.086 H 
ATOM     15  H8  <0> d           2.607   0.239   0.895  0.00  0.00     0.087 H 
ENDBRANCH   4   8
BRANCH   1  16
ATOM     16  C1  <0> d          -2.152   0.877   1.500  0.00  0.00    -0.072 C 
ATOM     17  H3  <0> d          -1.637   0.251   2.228  0.00  0.00     0.028 H 
ATOM     18  H4  <0> d          -2.888   1.498   2.010  0.00  0.00     0.028 H 
ATOM     19  H5  <0> d          -2.654   0.245   0.768  0.00  0.00     0.028 H 
ENDBRANCH   1  16
TORSDOF 2
