REMARK  6 active torsions:
REMARK  status: ('A' for Active; 'I' for Inactive)
REMARK    1  A    between atoms: C1_1  and  C2_2 
REMARK    2  A    between atoms: C2_2  and  N1_3 
REMARK    3  A    between atoms: C3_4  and  C9_11 
REMARK    4  A    between atoms: C5_6  and  C8_9 
REMARK    5  A    between atoms: C6_7  and  C7_8 
REMARK    6  A    between atoms: C8_9  and  O1_10 
ROOT
ATOM      1  N1  <0> d           1.075   2.317   0.004  0.00  0.00    -0.354 N 
ATOM      2  C3  <0> d           0.655   3.614   0.015  0.00  0.00     0.008 A 
ATOM      3  C4  <0> d          -0.693   3.621   0.027  0.00  0.00    -0.051 A 
ATOM      4  C5  <0> d          -1.121   2.278   0.019  0.00  0.00    -0.011 A 
ATOM      5  C6  <0> d          -0.018   1.503   0.010  0.00  0.00     0.016 A 
ATOM      6  H6  <0> d          -1.328   4.494   0.037  0.00  0.00     0.087 H 
ENDROOT
BRANCH   1   7
ATOM      7  C2  <0> d           2.471   1.872  -0.011  0.00  0.00    -0.004 C 
ATOM      8  H4  <0> d           3.092   2.607   0.501  0.00  0.00     0.064 H 
ATOM      9  H5  <0> d           2.551   0.911   0.498  0.00  0.00     0.064 H 
BRANCH   7  10
ATOM     10  C1  <0> d           2.943   1.724  -1.458  0.00  0.00    -0.061 C 
ATOM     11  H1  <0> d           2.322   0.989  -1.970  0.00  0.00     0.029 H 
ATOM     12  H2  <0> d           2.863   2.684  -1.967  0.00  0.00     0.029 H 
ATOM     13  H3  <0> d           3.982   1.392  -1.469  0.00  0.00     0.029 H 
ENDBRANCH   7  10
ENDBRANCH   1   7
BRANCH   5  14
ATOM     14  C7  <0> d           0.002  -0.004   0.002  0.00  0.00    -0.037 C 
ATOM     15  H7  <0> d           0.017  -0.373   1.028  0.00  0.00     0.035 H 
ATOM     16  H8  <0> d          -0.888  -0.377  -0.505  0.00  0.00     0.035 H 
ATOM     17  H9  <0> d           0.892  -0.352  -0.522  0.00  0.00     0.035 H 
ENDBRANCH   5  14
BRANCH   2  18
ATOM     18  C9  <0> d           1.545   4.831   0.012  0.00  0.00    -0.037 C 
ATOM     19  H13 <0> d           1.749   5.129  -1.016  0.00  0.00     0.035 H 
ATOM     20  H14 <0> d           1.046   5.647   0.535  0.00  0.00     0.035 H 
ATOM     21  H15 <0> d           2.483   4.596   0.515  0.00  0.00     0.035 H 
ENDBRANCH   2  18
BRANCH   4  22
ATOM     22  C8  <0> d          -2.550   1.798   0.023  0.00  0.00     0.042 C 
ATOM     23  H10 <0> d          -2.734   1.200  -0.869  0.00  0.00     0.081 H 
ATOM     24  H11 <0> d          -2.726   1.190   0.911  0.00  0.00     0.081 H 
BRANCH  22  25
ATOM     25  O1  <0> d          -3.431   2.923   0.033  0.00  0.00    -0.396 OA
ATOM     26  H12 <0> d          -4.369   2.688   0.035  0.00  0.00     0.209 HD
ENDBRANCH  22  25
ENDBRANCH   4  22
TORSDOF 6
