REMARK  1 active torsions:
REMARK  status: ('A' for Active; 'I' for Inactive)
REMARK    1  A    between atoms: C1_1  and  C2_2 
ROOT
ATOM      1  C2  <0> d           2.178   4.216   0.003  0.00  0.00    -0.027 A 
ATOM      2  C3  <0> d           1.525   5.386   0.014  0.00  0.00     0.026 A 
ATOM      3  O1  <0> d           0.197   5.175   0.026  0.00  0.00    -0.321 OA
ATOM      4  C4  <0> d          -0.080   3.855   0.023  0.00  0.00     0.085 A 
ATOM      5  C5  <0> d           1.147   3.171   0.008  0.00  0.00     0.005 A 
ATOM      6  C6  <0> d           1.173   1.778   0.000  0.00  0.00    -0.070 A 
ATOM      7  C7  <0> d          -0.013   1.076   0.008  0.00  0.00    -0.082 A 
ATOM      8  C8  <0> d          -1.225   1.750   0.017  0.00  0.00    -0.080 A 
ATOM      9  C9  <0> d          -1.263   3.128   0.030  0.00  0.00    -0.049 A 
ATOM     10  H4  <0> d           1.996   6.358   0.015  0.00  0.00     0.124 H 
ATOM     11  H5  <0> d           2.116   1.252  -0.011  0.00  0.00     0.085 H 
ATOM     12  H6  <0> d           0.002  -0.004   0.002  0.00  0.00     0.083 H 
ATOM     13  H7  <0> d          -2.148   1.190   0.019  0.00  0.00     0.083 H 
ATOM     14  H8  <0> d          -2.213   3.642   0.042  0.00  0.00     0.087 H 
ENDROOT
BRANCH   1  15
ATOM     15  C1  <0> d           3.672   4.014  -0.012  0.00  0.00    -0.049 C 
ATOM     16  H1  <0> d           4.022   3.970  -1.043  0.00  0.00     0.033 H 
ATOM     17  H2  <0> d           4.156   4.846   0.501  0.00  0.00     0.033 H 
ATOM     18  H3  <0> d           3.917   3.082   0.496  0.00  0.00     0.033 H 
ENDBRANCH   1  15
TORSDOF 1
