REMARK  4 active torsions:
REMARK  status: ('A' for Active; 'I' for Inactive)
REMARK    1  A    between atoms: C1_1  and  C2_2 
REMARK    2  A    between atoms: C2_2  and  C3_3 
REMARK    3  A    between atoms: C2_2  and  C4_4 
REMARK    4  A    between atoms: C4_4  and  N1_5 
ROOT
ATOM      1  C4  <0> d           0.718  -0.497  -1.257  0.00  0.00     0.019 C 
ATOM      2  H8  <0> d           0.656  -1.585  -1.308  0.00  0.00     0.067 H 
ATOM      3  H9  <0> d           0.244  -0.064  -2.138  0.00  0.00     0.067 H 
ENDROOT
BRANCH   1   4
ATOM      4  C2  <0> d           0.002  -0.004   0.002  0.00  0.00    -0.044 C 
ATOM      5  H4  <0> d           0.529  -0.365   0.885  0.00  0.00     0.041 H 
BRANCH   4   6
ATOM      6  C1  <0> d          -0.019   1.526   0.010  0.00  0.00    -0.072 C 
ATOM      7  H1  <0> d           1.004   1.903   0.003  0.00  0.00     0.028 H 
ATOM      8  H2  <0> d          -0.546   1.887  -0.873  0.00  0.00     0.028 H 
ATOM      9  H3  <0> d          -0.529   1.877   0.907  0.00  0.00     0.028 H 
ENDBRANCH   4   6
BRANCH   4  10
ATOM     10  C3  <0> d          -1.433  -0.534   0.013  0.00  0.00    -0.072 C 
ATOM     11  H5  <0> d          -1.960  -0.173  -0.870  0.00  0.00     0.028 H 
ATOM     12  H6  <0> d          -1.419  -1.623   0.007  0.00  0.00     0.028 H 
ATOM     13  H7  <0> d          -1.944  -0.182   0.910  0.00  0.00     0.028 H 
ENDBRANCH   4  10
ENDBRANCH   1   4
BRANCH   1  14
ATOM     14  N1  <0> d           2.125  -0.091  -1.209  0.00  0.00    -0.279 N 
ATOM     15  N2  <0> d           2.600   1.216  -1.041  0.00  0.00    -0.184 NA
ATOM     16  C7  <0> d           3.908   1.180  -1.048  0.00  0.00     0.044 A 
ATOM     17  C6  <0> d           4.308  -0.148  -1.229  0.00  0.00     0.070 A 
ATOM     18  H11 <0> d           4.565   2.030  -0.937  0.00  0.00     0.120 H 
ATOM     19  C5  <0> d           3.193  -0.910  -1.326  0.00  0.00     0.021 A 
ATOM     20 Cl1  <0> d           5.945  -0.720  -1.315  0.00  0.00    -0.081 Cl
ATOM     21  H10 <0> d           3.162  -1.980  -1.470  0.00  0.00     0.116 H 
ENDBRANCH   1  14
TORSDOF 4
