REMARK  7 active torsions:
REMARK  status: ('A' for Active; 'I' for Inactive)
REMARK    1  A    between atoms: C1_1  and  C2_2 
REMARK    2  A    between atoms: C2_2  and  O1_3 
REMARK    3  A    between atoms: O1_3  and  C3_4 
REMARK    4  A    between atoms: C3_4  and  C4_5 
REMARK    5  A    between atoms: C3_4  and  O2_6 
REMARK    6  A    between atoms: O2_6  and  C5_7 
REMARK    7  A    between atoms: C5_7  and  C6_8 
ROOT
ATOM      1  C3  <0> d           0.666  -1.934   1.255  0.00  0.00     0.127 C 
ATOM      2  H6  <0> d           1.124  -2.405   0.386  0.00  0.00     0.128 H 
ENDROOT
BRANCH   1   3
ATOM      3  O1  <0> d           0.734  -0.514   1.118  0.00  0.00    -0.362 OA
BRANCH   3   4
ATOM      4  C2  <0> d           0.639  -0.055  -0.232  0.00  0.00     0.019 C 
ATOM      5  H4  <0> d          -0.270  -0.447  -0.686  0.00  0.00     0.073 H 
ATOM      6  H5  <0> d           1.506  -0.401  -0.795  0.00  0.00     0.073 H 
BRANCH   4   7
ATOM      7  C1  <0> d           0.599   1.475  -0.249  0.00  0.00    -0.056 C 
ATOM      8  H1  <0> d           1.508   1.867   0.206  0.00  0.00     0.030 H 
ATOM      9  H2  <0> d           0.526   1.825  -1.278  0.00  0.00     0.030 H 
ATOM     10  H3  <0> d          -0.268   1.821   0.315  0.00  0.00     0.030 H 
ENDBRANCH   4   7
ENDBRANCH   3   4
ENDBRANCH   1   3
BRANCH   1  11
ATOM     11  C4  <0> d           1.414  -2.361   2.520  0.00  0.00    -0.031 C 
ATOM     12  H7  <0> d           1.362  -3.445   2.624  0.00  0.00     0.034 H 
ATOM     13  H8  <0> d           2.457  -2.053   2.447  0.00  0.00     0.034 H 
ATOM     14  H9  <0> d           0.956  -1.890   3.389  0.00  0.00     0.034 H 
ENDBRANCH   1  11
BRANCH   1  15
ATOM     15  O2  <0> d          -0.701  -2.339   1.351  0.00  0.00    -0.362 OA
BRANCH  15  16
ATOM     16  C5  <0> d          -1.411  -2.284   0.112  0.00  0.00     0.019 C 
ATOM     17  H10 <0> d          -1.504  -1.247  -0.208  0.00  0.00     0.073 H 
ATOM     18  H11 <0> d          -0.868  -2.851  -0.644  0.00  0.00     0.073 H 
BRANCH  16  19
ATOM     19  C6  <0> d          -2.805  -2.887   0.296  0.00  0.00    -0.056 C 
ATOM     20  H12 <0> d          -2.713  -3.925   0.617  0.00  0.00     0.030 H 
ATOM     21  H13 <0> d          -3.349  -2.321   1.052  0.00  0.00     0.030 H 
ATOM     22  H14 <0> d          -3.347  -2.846  -0.648  0.00  0.00     0.030 H 
ENDBRANCH  16  19
ENDBRANCH  15  16
ENDBRANCH   1  15
TORSDOF 7
