REMARK  2 active torsions:
REMARK  status: ('A' for Active; 'I' for Inactive)
REMARK    1  A    between atoms: C3_3  and  N2_9 
REMARK    2  A    between atoms: C4_4  and  C6_7 
ROOT
ATOM      1  C1  <0> d           1.331   2.059  -0.008  0.00  0.00    -0.064 A 
ATOM      2  C2  <0> d           0.060   1.516   0.019  0.00  0.00    -0.054 A 
ATOM      3  C3  <0> d          -0.068   0.126   0.022  0.00  0.00     0.061 A 
ATOM      4  C4  <0> d           1.092  -0.661  -0.004  0.00  0.00     0.159 A 
ATOM      5  N1  <0> d           2.292  -0.089  -0.029  0.00  0.00    -0.252 NA
ATOM      6  C5  <0> d           2.434   1.217  -0.032  0.00  0.00     0.003 A 
ATOM      7  H1  <0> d           1.465   3.131  -0.011  0.00  0.00     0.085 H 
ATOM      8  H2  <0> d          -0.812   2.151   0.034  0.00  0.00     0.087 H 
ATOM      9  H3  <0> d           3.427   1.642  -0.054  0.00  0.00     0.114 H 
ENDROOT
BRANCH   3  10
ATOM     10  N2  <0> d          -1.322  -0.467   0.050  0.00  0.00    -0.397 N 
ATOM     11  H4  <0> d          -2.116   0.082   0.146  0.00  0.00     0.156 HD
ATOM     12  H5  <0> d          -1.405  -1.431  -0.028  0.00  0.00     0.156 HD
ENDBRANCH   3  10
BRANCH   4  13
ATOM     13  C6  <0> d           0.981  -2.132  -0.001  0.00  0.00     0.231 C 
ATOM     14  O1  <0> d          -0.111  -2.659  -0.080  0.00  0.00    -0.643 OA
ATOM     15  O2  <0> d           2.090  -2.892   0.089  0.00  0.00    -0.643 OA
ENDBRANCH   4  13
TORSDOF 2
