REMARK  2 active torsions:
REMARK  status: ('A' for Active; 'I' for Inactive)
REMARK    1  A    between atoms: C2_2  and  O4_10 
REMARK    2  A    between atoms: C4_6  and  O3_9 
ROOT
ATOM      1  C1  <0> d           1.408   1.545   2.389  0.00  0.00     0.068 C 
ATOM      2  C2  <0> d           1.268   3.070   2.407  0.00  0.00     0.149 C 
ATOM      3  H1  <0> d           2.258   3.527   2.401  0.00  0.00     0.132 H 
ATOM      4  O1  <0> d           0.540   3.488   1.248  0.00  0.00    -0.354 OA
ATOM      5  C3  <0> d           1.146   3.087   0.016  0.00  0.00     0.068 C 
ATOM      6  C4  <0> d           1.286   1.562  -0.002  0.00  0.00     0.149 C 
ATOM      7  H2  <0> d           1.823   1.255  -0.899  0.00  0.00     0.132 H 
ATOM      8  O2  <0> d           2.014   1.144   1.157  0.00  0.00    -0.354 OA
ATOM      9  H3  <0> d           0.423   1.088   2.477  0.00  0.00     0.082 H 
ATOM     10  H4  <0> d           2.034   1.227   3.223  0.00  0.00     0.082 H 
ATOM     11  H5  <0> d           2.132   3.544  -0.071  0.00  0.00     0.082 H 
ATOM     12  H6  <0> d           0.521   3.405  -0.818  0.00  0.00     0.082 H 
ENDROOT
BRANCH   2  13
ATOM     13  O4  <0> d           0.564   3.471   3.584  0.00  0.00    -0.369 OA
ATOM     14  H8  <0> d           0.439   4.427   3.661  0.00  0.00     0.212 HD
ENDBRANCH   2  13
BRANCH   6  15
ATOM     15  O3  <0> d          -0.011   0.963   0.007  0.00  0.00    -0.369 OA
ATOM     16  H7  <0> d           0.002  -0.004   0.002  0.00  0.00     0.212 HD
ENDBRANCH   6  15
TORSDOF 2
