REMARK  1 active torsions:
REMARK  status: ('A' for Active; 'I' for Inactive)
REMARK    1  A    between atoms: C8_8  and  C9_10 
ROOT
ATOM      1  C1  <0> d          -0.550  -3.861  -2.446  0.00  0.00    -0.065 C 
ATOM      2  C2  <0> d          -1.889  -3.127  -2.365  0.00  0.00    -0.064 C 
ATOM      3  C3  <0> d          -2.317  -3.007  -0.899  0.00  0.00    -0.057 C 
ATOM      4  C4  <0> d          -1.209  -2.296  -0.116  0.00  0.00    -0.026 A 
ATOM      5  C5  <0> d           0.182  -2.924  -0.247  0.00  0.00    -0.057 C 
ATOM      6  C6  <0> d           0.532  -3.047  -1.734  0.00  0.00    -0.064 C 
ATOM      7  C7  <0> d          -1.579  -1.662   1.224  0.00  0.00    -0.044 A 
ATOM      8  C8  <0> d          -1.293  -0.775   0.010  0.00  0.00     0.038 A 
ATOM      9  H1  <0> d          -2.140  -0.277  -0.460  0.00  0.00     0.057 H 
ATOM     10  H2  <0> d          -0.641  -4.837  -1.969  0.00  0.00     0.033 H 
ATOM     11  H3  <0> d          -0.273  -3.994  -3.491  0.00  0.00     0.033 H 
ATOM     12  H4  <0> d          -2.644  -3.686  -2.919  0.00  0.00     0.033 H 
ATOM     13  H5  <0> d          -1.785  -2.131  -2.795  0.00  0.00     0.033 H 
ATOM     14  H6  <0> d          -2.477  -4.002  -0.482  0.00  0.00     0.034 H 
ATOM     15  H7  <0> d          -3.239  -2.429  -0.833  0.00  0.00     0.034 H 
ATOM     16  H8  <0> d           0.917  -2.290   0.250  0.00  0.00     0.034 H 
ATOM     17  H9  <0> d           0.181  -3.913   0.210  0.00  0.00     0.034 H 
ATOM     18  H10 <0> d           1.494  -3.548  -1.840  0.00  0.00     0.033 H 
ATOM     19  H11 <0> d           0.589  -2.053  -2.177  0.00  0.00     0.033 H 
ATOM     20  H12 <0> d          -0.832  -1.687   2.017  0.00  0.00     0.035 H 
ATOM     21  H13 <0> d          -2.616  -1.747   1.552  0.00  0.00     0.035 H 
ENDROOT
BRANCH   8  22
ATOM     22  C9  <0> d           0.002  -0.004   0.002  0.00  0.00     0.177 C 
ATOM     23  O1  <0> d           0.787  -0.132   0.912  0.00  0.00    -0.648 OA
ATOM     24  O2  <0> d           0.283   0.825  -1.016  0.00  0.00    -0.648 OA
ENDBRANCH   8  22
TORSDOF 1
