REMARK  3 active torsions:
REMARK  status: ('A' for Active; 'I' for Inactive)
REMARK    1  A    between atoms: C1_1  and  C2_2 
REMARK    2  A    between atoms: C5_5  and  C7_10 
REMARK    3  A    between atoms: C7_10  and  O2_11 
ROOT
ATOM      1  C2  <0> d           0.002  -0.004   0.002  0.00  0.00     0.008 A 
ATOM      2  C3  <0> d           0.005  -0.667  -1.178  0.00  0.00    -0.061 A 
ATOM      3  C4  <0> d           0.025  -2.069  -1.193  0.00  0.00    -0.068 A 
ATOM      4  C5  <0> d           0.039  -2.748  -0.010  0.00  0.00     0.033 A 
ATOM      5  C6  <0> d           0.035  -2.028   1.197  0.00  0.00     0.254 A 
ATOM      6  O1  <0> d           0.049  -2.624   2.262  0.00  0.00    -0.268 OA
ATOM      7  N1  <0> d           0.022  -0.682   1.178  0.00  0.00    -0.327 N 
ATOM      8  H1  <0> d           0.024  -0.191   2.015  0.00  0.00     0.169 HD
ATOM      9  H5  <0> d          -0.007  -0.117  -2.107  0.00  0.00     0.086 H 
ATOM     10  H6  <0> d           0.027  -2.605  -2.131  0.00  0.00     0.084 H 
ENDROOT
BRANCH   4  11
ATOM     11  C7  <0> d           0.059  -4.255   0.002  0.00  0.00     0.046 C 
ATOM     12  H7  <0> d           0.957  -4.602   0.514  0.00  0.00     0.081 H 
ATOM     13  H8  <0> d          -0.823  -4.626   0.523  0.00  0.00     0.081 H 
BRANCH  11  14
ATOM     14  O2  <0> d           0.059  -4.742  -1.341  0.00  0.00    -0.396 OA
ATOM     15  H9  <0> d           0.072  -5.707  -1.410  0.00  0.00     0.209 HD
ENDBRANCH  11  14
ENDBRANCH   4  11
BRANCH   1  16
ATOM     16  C1  <0> d          -0.018   1.503   0.010  0.00  0.00    -0.037 C 
ATOM     17  H2  <0> d           1.004   1.880   0.003  0.00  0.00     0.035 H 
ATOM     18  H3  <0> d          -0.545   1.864  -0.873  0.00  0.00     0.035 H 
ATOM     19  H4  <0> d          -0.529   1.854   0.907  0.00  0.00     0.035 H 
ENDBRANCH   1  16
TORSDOF 3
