REMARK  2 active torsions:
REMARK  status: ('A' for Active; 'I' for Inactive)
REMARK    1  A    between atoms: C1_1  and  C2_2 
REMARK    2  A    between atoms: C7_8  and  O1_10 
ROOT
ATOM      1  C2  <0> d           2.133   1.562  -1.259  0.00  0.00    -0.033 C 
ATOM      2  H1  <0> d           1.606   1.923  -2.142  0.00  0.00     0.043 H 
ATOM      3  C3  <0> d           2.154   0.032  -1.268  0.00  0.00    -0.060 C 
ATOM      4  C4  <0> d           0.718  -0.497  -1.257  0.00  0.00    -0.065 C 
ATOM      5  C5  <0> d           0.002  -0.004   0.002  0.00  0.00    -0.063 C 
ATOM      6  C6  <0> d          -0.019   1.526   0.010  0.00  0.00    -0.041 C 
ATOM      7  C7  <0> d           1.417   2.055  -0.000  0.00  0.00     0.038 C 
ATOM      8  H2  <0> d           1.944   1.694   0.883  0.00  0.00     0.083 H 
ATOM      9  H6  <0> d           2.681  -0.329  -0.385  0.00  0.00     0.033 H 
ATOM     10  H7  <0> d           2.664  -0.319  -2.164  0.00  0.00     0.033 H 
ATOM     11  H8  <0> d           0.733  -1.587  -1.263  0.00  0.00     0.033 H 
ATOM     12  H9  <0> d           0.191  -0.136  -2.140  0.00  0.00     0.033 H 
ATOM     13  H10 <0> d           0.529  -0.365   0.885  0.00  0.00     0.033 H 
ATOM     14  H11 <0> d          -1.020  -0.381   0.010  0.00  0.00     0.033 H 
ATOM     15  H12 <0> d          -0.546   1.887  -0.873  0.00  0.00     0.036 H 
ATOM     16  H13 <0> d          -0.529   1.877   0.907  0.00  0.00     0.036 H 
ENDROOT
BRANCH   1  17
ATOM     17  C1  <0> d           3.568   2.091  -1.270  0.00  0.00    -0.071 C 
ATOM     18  H3  <0> d           4.078   1.740  -2.167  0.00  0.00     0.028 H 
ATOM     19  H4  <0> d           3.554   3.181  -1.264  0.00  0.00     0.028 H 
ATOM     20  H5  <0> d           4.095   1.730  -0.387  0.00  0.00     0.028 H 
ENDBRANCH   1  17
BRANCH   7  21
ATOM     21  O1  <0> d           1.397   3.484   0.007  0.00  0.00    -0.395 OA
ATOM     22  H14 <0> d           0.958   3.867   0.779  0.00  0.00     0.210 HD
ENDBRANCH   7  21
TORSDOF 2
