REMARK  9 active torsions:
REMARK  status: ('A' for Active; 'I' for Inactive)
REMARK    1  A    between atoms: C1_1  and  C2_2 
REMARK    2  A    between atoms: C2_2  and  C3_3 
REMARK    3  A    between atoms: C3_3  and  C4_4 
REMARK    4  A    between atoms: C4_4  and  C5_5 
REMARK    5  A    between atoms: C5_5  and  C6_7 
REMARK    6  A    between atoms: C5_5  and  O1_11 
REMARK    7  A    between atoms: C6_7  and  C7_8 
REMARK    8  A    between atoms: C6_7  and  C8_9 
REMARK    9  A    between atoms: C6_7  and  C9_10 
ROOT
ATOM      1  C5  <0> d          -0.729   1.579   1.267  0.00  0.00     0.042 C 
ATOM      2  H1  <0> d          -0.822   2.665   1.230  0.00  0.00     0.084 H 
ENDROOT
BRANCH   1   3
ATOM      3  C4  <0> d          -0.013   1.086   0.008  0.00  0.00    -0.040 C 
ATOM      4  H9  <0> d           0.002  -0.004   0.002  0.00  0.00     0.036 H 
ATOM      5  H10 <0> d           1.010   1.463   0.000  0.00  0.00     0.036 H 
BRANCH   3   6
ATOM      6  C3  <0> d          -0.753   1.593  -1.232  0.00  0.00    -0.063 C 
ATOM      7  H7  <0> d          -1.775   1.215  -1.224  0.00  0.00     0.033 H 
ATOM      8  H8  <0> d          -0.767   2.683  -1.226  0.00  0.00     0.033 H 
BRANCH   6   9
ATOM      9  C2  <0> d          -0.037   1.099  -2.490  0.00  0.00    -0.068 C 
ATOM     10  H5  <0> d           0.986   1.476  -2.498  0.00  0.00     0.032 H 
ATOM     11  H6  <0> d          -0.022   0.009  -2.496  0.00  0.00     0.032 H 
BRANCH   9  12
ATOM     12  C1  <0> d          -0.777   1.606  -3.730  0.00  0.00    -0.077 C 
ATOM     13  H2  <0> d          -0.791   2.696  -3.724  0.00  0.00     0.027 H 
ATOM     14  H3  <0> d          -0.266   1.254  -4.627  0.00  0.00     0.027 H 
ATOM     15  H4  <0> d          -1.799   1.229  -3.722  0.00  0.00     0.027 H 
ENDBRANCH   9  12
ENDBRANCH   6   9
ENDBRANCH   3   6
ENDBRANCH   1   3
BRANCH   1  16
ATOM     16  C6  <0> d           0.079   1.179   2.503  0.00  0.00    -0.025 C 
BRANCH  16  17
ATOM     17  C7  <0> d           1.471   1.808   2.429  0.00  0.00    -0.067 C 
ATOM     18  H11 <0> d           1.378   2.893   2.392  0.00  0.00     0.028 H 
ATOM     19  H12 <0> d           2.046   1.523   3.309  0.00  0.00     0.028 H 
ATOM     20  H13 <0> d           1.981   1.456   1.532  0.00  0.00     0.028 H 
ENDBRANCH  16  17
BRANCH  16  21
ATOM     21  C8  <0> d          -0.637   1.672   3.762  0.00  0.00    -0.067 C 
ATOM     22  H14 <0> d          -1.630   1.224   3.815  0.00  0.00     0.028 H 
ATOM     23  H15 <0> d          -0.062   1.387   4.643  0.00  0.00     0.028 H 
ATOM     24  H16 <0> d          -0.731   2.757   3.725  0.00  0.00     0.028 H 
ENDBRANCH  16  21
BRANCH  16  25
ATOM     25  C9  <0> d           0.210  -0.345   2.555  0.00  0.00    -0.067 C 
ATOM     26  H17 <0> d           0.720  -0.696   1.658  0.00  0.00     0.028 H 
ATOM     27  H18 <0> d           0.785  -0.630   3.436  0.00  0.00     0.028 H 
ATOM     28  H19 <0> d          -0.782  -0.793   2.608  0.00  0.00     0.028 H 
ENDBRANCH  16  25
ENDBRANCH   1  16
BRANCH   1  29
ATOM     29  O1  <0> d          -2.030   0.991   1.336  0.00  0.00    -0.395 OA
ATOM     30  H20 <0> d          -2.023   0.025   1.372  0.00  0.00     0.210 HD
ENDBRANCH   1  29
TORSDOF 9
