REMARK  1 active torsions:
REMARK  status: ('A' for Active; 'I' for Inactive)
REMARK    1  A    between atoms: C2_2  and  C3_3 
ROOT
ATOM      1  C1  <0> d          -0.016   1.306   0.009  0.00  0.00    -0.117 C 
ATOM      2  C2  <0> d           0.002  -0.004   0.002  0.00  0.00    -0.011 C 
ATOM      3  H1  <0> d           0.912   1.859   0.003  0.00  0.00     0.066 H 
ATOM      4  H2  <0> d          -0.958   1.833   0.017  0.00  0.00     0.066 H 
ATOM      5  H3  <0> d           0.945  -0.531  -0.010  0.00  0.00     0.089 H 
ENDROOT
BRANCH   2   6
ATOM      6  C3  <0> d          -1.293  -0.775   0.010  0.00  0.00     0.407 C 
ATOM      7  F1  <0> d          -2.368   0.119   0.025  0.00  0.00    -0.167 F 
ATOM      8  F2  <0> d          -1.367  -1.574  -1.136  0.00  0.00    -0.167 F 
ATOM      9  F3  <0> d          -1.345  -1.587   1.149  0.00  0.00    -0.167 F 
ENDBRANCH   2   6
TORSDOF 1
