REMARK  3 active torsions:
REMARK  status: ('A' for Active; 'I' for Inactive)
REMARK    1  A    between atoms: C1_1  and  C2_2 
REMARK    2  A    between atoms: C2_2  and  C3_3 
REMARK    3  A    between atoms: C3_3  and  C4_5 
ROOT
ATOM      1  C4  <0> d          -1.304   1.925   0.019  0.00  0.00     0.074 C 
ATOM      2  N1  <0> d          -1.421   3.204   0.026  0.00  0.00    -0.290 NA
ATOM      3  C5  <0> d          -2.823   3.636   0.032  0.00  0.00     0.016 C 
ATOM      4  C6  <0> d          -3.630   2.383   0.446  0.00  0.00    -0.043 C 
ATOM      5  C7  <0> d          -2.660   1.255   0.015  0.00  0.00    -0.020 C 
ATOM      6  H6  <0> d          -2.969   4.437   0.757  0.00  0.00     0.067 H 
ATOM      7  H7  <0> d          -3.122   3.966  -0.963  0.00  0.00     0.067 H 
ATOM      8  H8  <0> d          -3.805   2.367   1.522  0.00  0.00     0.036 H 
ATOM      9  H9  <0> d          -4.569   2.321  -0.103  0.00  0.00     0.036 H 
ATOM     10  H10 <0> d          -2.855   0.902  -0.900  0.00  0.00     0.042 H 
ATOM     11  H11 <0> d          -2.683   0.436   0.735  0.00  0.00     0.042 H 
ENDROOT
BRANCH   1  12
ATOM     12  C3  <0> d          -0.014   1.204   0.009  0.00  0.00     0.173 C 
ATOM     13  O1  <0> d           0.002  -0.004   0.002  0.00  0.00    -0.291 OA
BRANCH  12  14
ATOM     14  C2  <0> d           1.280   1.975   0.000  0.00  0.00    -0.007 C 
ATOM     15  H4  <0> d           1.318   2.555  -0.813  0.00  0.00     0.044 H 
ATOM     16  H5  <0> d           1.338   2.598   0.893  0.00  0.00     0.044 H 
BRANCH  14  17
ATOM     17  C1  <0> d           2.457   0.997  -0.016  0.00  0.00    -0.070 C 
ATOM     18  H1  <0> d           2.416   0.365   0.871  0.00  0.00     0.028 H 
ATOM     19  H2  <0> d           2.399   0.374  -0.909  0.00  0.00     0.028 H 
ATOM     20  H3  <0> d           3.393   1.555  -0.022  0.00  0.00     0.028 H 
ENDBRANCH  14  17
ENDBRANCH  12  14
ENDBRANCH   1  12
TORSDOF 3
