REMARK  4 active torsions:
REMARK  status: ('A' for Active; 'I' for Inactive)
REMARK    1  A    between atoms: C1_1  and  C2_2 
REMARK    2  A    between atoms: C2_2  and  C3_3 
REMARK    3  A    between atoms: C3_3  and  C4_4 
REMARK    4  A    between atoms: C5_5  and  C6_6 
ROOT
ATOM      1  C3  <0> d           0.038  -2.650  -0.013  0.00  0.00    -0.009 C 
ATOM      2  H6  <0> d          -0.985  -3.027  -0.005  0.00  0.00     0.051 H 
ATOM      3  H7  <0> d           0.548  -3.001  -0.909  0.00  0.00     0.051 H 
ENDROOT
BRANCH   1   4
ATOM      4  C2  <0> d           0.778  -3.157   1.227  0.00  0.00    -0.059 C 
ATOM      5  H4  <0> d           1.800  -2.779   1.219  0.00  0.00     0.033 H 
ATOM      6  H5  <0> d           0.268  -2.805   2.124  0.00  0.00     0.033 H 
BRANCH   4   7
ATOM      7  C1  <0> d           0.799  -4.686   1.219  0.00  0.00    -0.076 C 
ATOM      8  H1  <0> d          -0.224  -5.064   1.226  0.00  0.00     0.027 H 
ATOM      9  H2  <0> d           1.309  -5.038   0.322  0.00  0.00     0.027 H 
ATOM     10  H3  <0> d           1.326  -5.048   2.102  0.00  0.00     0.027 H 
ENDBRANCH   4   7
ENDBRANCH   1   4
BRANCH   1  11
ATOM     11  C4  <0> d           0.018  -1.178  -0.004  0.00  0.00    -0.095 C 
ATOM     12  C5  <0> d           0.002  -0.004   0.002  0.00  0.00     0.005 C 
BRANCH  12  13
ATOM     13  C6  <0> d          -0.017   1.428   0.010  0.00  0.00     0.258 C 
ATOM     14  O1  <0> d           1.027   2.050   0.003  0.00  0.00    -0.637 OA
ATOM     15  O2  <0> d          -1.194   2.086   0.019  0.00  0.00    -0.637 OA
ENDBRANCH  12  13
ENDBRANCH   1  11
TORSDOF 4
