REMARK  4 active torsions:
REMARK  status: ('A' for Active; 'I' for Inactive)
REMARK    1  A    between atoms: C1_1  and  C2_2 
REMARK    2  A    between atoms: C3_3  and  C6_9 
REMARK    3  A    between atoms: C6_9  and  C7_10 
REMARK    4  A    between atoms: C7_10  and  O2_11 
ROOT
ATOM      1  C2  <0> d          -1.392  -2.755   1.188  0.00  0.00     0.042 A 
ATOM      2  C3  <0> d          -1.413  -2.041   0.005  0.00  0.00     0.022 A 
ATOM      3  C4  <0> d          -1.420  -2.748  -1.196  0.00  0.00     0.188 A 
ATOM      4  N1  <0> d          -1.395  -4.076  -1.161  0.00  0.00    -0.329 N 
ATOM      5  C5  <0> d          -1.375  -4.718  -0.010  0.00  0.00     0.066 A 
ATOM      6  N2  <0> d          -1.374  -4.079   1.142  0.00  0.00    -0.248 NA
ATOM      7  O1  <0> d          -1.447  -2.092  -2.381  0.00  0.00    -0.172 OA
ATOM      8  H4  <0> d          -1.361  -5.718  -0.028  0.00  0.00     0.143 H 
ATOM      9  H5  <0> d          -1.391  -4.639  -2.105  0.00  0.00     0.168 HD
ENDROOT
BRANCH   2  10
ATOM     10  C6  <0> d          -1.427  -0.533   0.013  0.00  0.00    -0.015 C 
ATOM     11  H6  <0> d          -1.939  -0.177   0.919  0.00  0.00     0.043 H 
ATOM     12  H7  <0> d          -1.960  -0.167  -0.877  0.00  0.00     0.043 H 
BRANCH  10  13
ATOM     13  C7  <0> d           0.010  -0.010  -0.002  0.00  0.00     0.021 C 
ATOM     14  H8  <0> d           0.543  -0.376   0.888  0.00  0.00     0.074 H 
ATOM     15  H9  <0> d           0.521  -0.367  -0.908  0.00  0.00     0.074 H 
BRANCH  13  16
ATOM     16  O2  <0> d          -0.004   1.419   0.006  0.00  0.00    -0.401 OA
ATOM     17  H10 <0> d           0.944   1.978  -0.002  0.00  0.00     0.209 HD
ENDBRANCH  13  16
ENDBRANCH  10  13
ENDBRANCH   2  10
BRANCH   1  18
ATOM     18  C1  <0> d          -1.390  -2.037   2.513  0.00  0.00    -0.035 C 
ATOM     19  H1  <0> d          -1.372  -2.774   3.329  0.00  0.00     0.035 H 
ATOM     20  H2  <0> d          -2.296  -1.419   2.596  0.00  0.00     0.035 H 
ATOM     21  H3  <0> d          -0.500  -1.394   2.580  0.00  0.00     0.035 H 
ENDBRANCH   1  18
TORSDOF 4
