REMARK  1 active torsions:
REMARK  status: ('A' for Active; 'I' for Inactive)
REMARK    1  A    between atoms: C4_8  and  C6_10 
ROOT
ATOM      1  C1  <0> d           0.208   6.555   0.036  0.00  0.00    -0.021 A 
ATOM      2  C2  <0> d           1.330   7.290   0.029  0.00  0.00    -0.002 A 
ATOM      3  N1  <0> d           2.421   6.452   0.014  0.00  0.00    -0.304 N 
ATOM      4  H1  <0> d           3.348   6.736   0.007  0.00  0.00     0.186 HD
ATOM      5  N2  <0> d           1.980   5.124   0.011  0.00  0.00    -0.247 N 
ATOM      6  C3  <0> d           0.609   5.142   0.025  0.00  0.00     0.150 A 
ATOM      7  N3  <0> d           0.173   3.903   0.022  0.00  0.00    -0.221 NA
ATOM      8  C4  <0> d           1.239   3.062   0.007  0.00  0.00     0.152 A 
ATOM      9  C5  <0> d           2.373   3.822   0.005  0.00  0.00     0.038 A 
ATOM     10  H2  <0> d          -0.804   6.932   0.048  0.00  0.00     0.091 H 
ATOM     11  H3  <0> d           1.370   8.369   0.035  0.00  0.00     0.113 H 
ATOM     12  H4  <0> d           3.389   3.458  -0.001  0.00  0.00     0.118 H 
ENDROOT
BRANCH   8  13
ATOM     13  C6  <0> d           1.182   1.591  -0.001  0.00  0.00     0.230 C 
ATOM     14  O1  <0> d           2.210   0.943  -0.014  0.00  0.00    -0.643 OA
ATOM     15  O2  <0> d          -0.011   0.963   0.007  0.00  0.00    -0.643 OA
ENDBRANCH   8  13
TORSDOF 1
