REMARK  4 active torsions:
REMARK  status: ('A' for Active; 'I' for Inactive)
REMARK    1  A    between atoms: C1_1  and  C2_2 
REMARK    2  A    between atoms: C4_4  and  C8_10 
REMARK    3  A    between atoms: C5_6  and  C6_7 
REMARK    4  A    between atoms: C6_7  and  C7_9 
ROOT
ATOM      1  C2  <0> d           2.101   0.675  -0.014  0.00  0.00    -0.022 A 
ATOM      2  C3  <0> d           1.256   1.793  -0.000  0.00  0.00    -0.046 A 
ATOM      3  C4  <0> d          -0.016   1.334   0.009  0.00  0.00     0.050 A 
ATOM      4  O1  <0> d           0.002  -0.004   0.002  0.00  0.00    -0.311 OA
ATOM      5  C5  <0> d           1.281  -0.436  -0.013  0.00  0.00     0.127 A 
ATOM      6  H4  <0> d           1.564   2.829   0.002  0.00  0.00     0.088 H 
ENDROOT
BRANCH   5   7
ATOM      7  C6  <0> d           1.705  -1.784  -0.024  0.00  0.00     0.179 C 
ATOM      8  O2  <0> d           2.891  -2.047  -0.037  0.00  0.00    -0.291 OA
BRANCH   7   9
ATOM      9  C7  <0> d           0.687  -2.894  -0.020  0.00  0.00    -0.015 C 
ATOM     10  H5  <0> d           1.203  -3.865  -0.031  0.00  0.00     0.038 H 
ATOM     11  H6  <0> d           0.048  -2.809  -0.912  0.00  0.00     0.038 H 
ATOM     12  H7  <0> d           0.066  -2.819   0.884  0.00  0.00     0.038 H 
ENDBRANCH   7   9
ENDBRANCH   5   7
BRANCH   1  13
ATOM     13  C1  <0> d           3.608   0.684  -0.028  0.00  0.00    -0.048 C 
ATOM     14  H1  <0> d           3.969   1.723  -0.026  0.00  0.00     0.033 H 
ATOM     15  H2  <0> d           3.969   0.172  -0.932  0.00  0.00     0.033 H 
ATOM     16  H3  <0> d           3.986   0.163   0.864  0.00  0.00     0.033 H 
ENDBRANCH   1  13
BRANCH   3  17
ATOM     17  C8  <0> d          -1.255   2.192   0.020  0.00  0.00    -0.031 C 
ATOM     18  H8  <0> d          -2.147   1.548   0.027  0.00  0.00     0.036 H 
ATOM     19  H9  <0> d          -1.269   2.828  -0.877  0.00  0.00     0.036 H 
ATOM     20  H10 <0> d          -1.254   2.826   0.919  0.00  0.00     0.036 H 
ENDBRANCH   3  17
TORSDOF 4
