REMARK  4 active torsions:
REMARK  status: ('A' for Active; 'I' for Inactive)
REMARK    1  A    between atoms: C1_1  and  C2_2 
REMARK    2  A    between atoms: C5_6  and  C8_12 
REMARK    3  A    between atoms: C6_8  and  O1_11 
REMARK    4  A    between atoms: C8_12  and  C10_14 
ROOT
ATOM      1  C2  <0> d          -0.800   1.870   1.113  0.00  0.00    -0.055 C 
ATOM      2  H1  <0> d          -1.871   1.690   1.017  0.00  0.00     0.039 H 
ATOM      3  C3  <0> d          -0.263   1.113   2.329  0.00  0.00    -0.061 C 
ATOM      4  C4  <0> d          -0.978   1.602   3.591  0.00  0.00    -0.056 C 
ATOM      5  C5  <0> d          -0.727   3.100   3.771  0.00  0.00    -0.008 C 
ATOM      6  H2  <0> d           0.344   3.281   3.867  0.00  0.00     0.050 H 
ATOM      7  C6  <0> d          -1.264   3.857   2.555  0.00  0.00     0.043 C 
ATOM      8  H3  <0> d          -1.086   4.925   2.683  0.00  0.00     0.084 H 
ATOM      9  C7  <0> d          -0.550   3.369   1.293  0.00  0.00    -0.037 C 
ATOM     10  H7  <0> d          -0.441   0.046   2.201  0.00  0.00     0.033 H 
ATOM     11  H8  <0> d           0.808   1.294   2.425  0.00  0.00     0.033 H 
ATOM     12  H9  <0> d          -2.048   1.422   3.494  0.00  0.00     0.034 H 
ATOM     13  H10 <0> d          -0.595   1.063   4.457  0.00  0.00     0.034 H 
ATOM     14  H11 <0> d           0.521   3.549   1.389  0.00  0.00     0.037 H 
ATOM     15  H12 <0> d          -0.932   3.908   0.427  0.00  0.00     0.037 H 
ENDROOT
BRANCH   5  16
ATOM     16  C8  <0> d          -1.431   3.582   5.013  0.00  0.00    -0.086 C 
ATOM     17  C9  <0> d          -0.769   4.252   5.924  0.00  0.00    -0.119 C 
ATOM     18  H14 <0> d           0.282   4.460   5.784  0.00  0.00     0.067 H 
ATOM     19  H15 <0> d          -1.274   4.597   6.814  0.00  0.00     0.067 H 
BRANCH  16  20
ATOM     20  C10 <0> d          -2.897   3.292   5.209  0.00  0.00    -0.055 C 
ATOM     21  H16 <0> d          -3.012   2.391   5.812  0.00  0.00     0.033 H 
ATOM     22  H17 <0> d          -3.369   4.132   5.718  0.00  0.00     0.033 H 
ATOM     23  H18 <0> d          -3.370   3.143   4.239  0.00  0.00     0.033 H 
ENDBRANCH  16  20
ENDBRANCH   5  16
BRANCH   7  24
ATOM     24  O1  <0> d          -2.668   3.621   2.429  0.00  0.00    -0.395 OA
ATOM     25  H13 <0> d          -3.077   4.071   1.677  0.00  0.00     0.210 HD
ENDBRANCH   7  24
BRANCH   1  26
ATOM     26  C1  <0> d          -0.085   1.382  -0.148  0.00  0.00    -0.073 C 
ATOM     27  H4  <0> d          -0.264   0.314  -0.277  0.00  0.00     0.028 H 
ATOM     28  H5  <0> d           0.985   1.562  -0.052  0.00  0.00     0.028 H 
ATOM     29  H6  <0> d          -0.468   1.921  -1.015  0.00  0.00     0.028 H 
ENDBRANCH   1  26
TORSDOF 4
