REMARK  2 active torsions:
REMARK  status: ('A' for Active; 'I' for Inactive)
REMARK    1  A    between atoms: C1_1  and  C2_2 
REMARK    2  A    between atoms: C4_6  and  C6_10 
ROOT
ATOM      1  C2  <0> d           0.002  -0.004   0.002  0.00  0.00     0.055 C 
ATOM      2  H1  <0> d          -1.020  -0.382   0.010  0.00  0.00     0.086 H 
ATOM      3  C3  <0> d           0.722  -0.499  -1.256  0.00  0.00     0.044 C 
ATOM      4  O1  <0> d           2.092  -0.091  -1.204  0.00  0.00    -0.382 OA
ATOM      5  C4  <0> d           2.788  -0.566  -0.048  0.00  0.00     0.055 C 
ATOM      6  H2  <0> d           2.802  -1.656  -0.054  0.00  0.00     0.086 H 
ATOM      7  C5  <0> d           2.068  -0.071   1.210  0.00  0.00     0.044 C 
ATOM      8  O2  <0> d           0.697  -0.479   1.159  0.00  0.00    -0.382 OA
ATOM      9  H6  <0> d           0.667  -1.587  -1.302  0.00  0.00     0.078 H 
ATOM     10  H7  <0> d           0.247  -0.071  -2.139  0.00  0.00     0.078 H 
ATOM     11  H8  <0> d           2.543  -0.499   2.093  0.00  0.00     0.078 H 
ATOM     12  H9  <0> d           2.123   1.016   1.257  0.00  0.00     0.078 H 
ENDROOT
BRANCH   1  13
ATOM     13  C1  <0> d          -0.019   1.526   0.010  0.00  0.00    -0.050 C 
ATOM     14  H3  <0> d           1.004   1.903   0.003  0.00  0.00     0.031 H 
ATOM     15  H4  <0> d          -0.546   1.887  -0.873  0.00  0.00     0.031 H 
ATOM     16  H5  <0> d          -0.529   1.877   0.907  0.00  0.00     0.031 H 
ENDBRANCH   1  13
BRANCH   5  17
ATOM     17  C6  <0> d           4.223  -0.035  -0.060  0.00  0.00    -0.050 C 
ATOM     18  H10 <0> d           4.207   1.054  -0.052  0.00  0.00     0.031 H 
ATOM     19  H11 <0> d           4.752  -0.398   0.821  0.00  0.00     0.031 H 
ATOM     20  H12 <0> d           4.731  -0.385  -0.959  0.00  0.00     0.031 H 
ENDBRANCH   5  17
TORSDOF 2
