REMARK  0 active torsions:
REMARK  status: ('A' for Active; 'I' for Inactive)
ROOT
ATOM      1  C1  <0> d          -0.013   1.076   0.008  0.00  0.00    -0.082 A 
ATOM      2  C2  <0> d           1.183   1.781   0.000  0.00  0.00    -0.080 A 
ATOM      3  C3  <0> d           1.184   3.159   0.007  0.00  0.00    -0.047 A 
ATOM      4  C4  <0> d          -0.022   3.850   0.022  0.00  0.00     0.116 A 
ATOM      5  C5  <0> d          -1.228   3.133   0.030  0.00  0.00     0.058 A 
ATOM      6  C6  <0> d          -1.208   1.738   0.017  0.00  0.00    -0.066 A 
ATOM      7  C7  <0> d          -2.305   4.133   0.045  0.00  0.00     0.239 A 
ATOM      8  N1  <0> d          -1.743   5.308   0.046  0.00  0.00    -0.098 NA
ATOM      9  O1  <0> d          -0.337   5.162   0.032  0.00  0.00    -0.210 OA
ATOM     10  O2  <0> d          -3.638   3.880   0.057  0.00  0.00    -0.167 OA
ATOM     11  H1  <0> d           0.002  -0.004   0.002  0.00  0.00     0.083 H 
ATOM     12  H2  <0> d           2.120   1.245  -0.011  0.00  0.00     0.083 H 
ATOM     13  H3  <0> d           2.118   3.700   0.002  0.00  0.00     0.087 H 
ATOM     14  H4  <0> d          -2.135   1.183   0.019  0.00  0.00     0.085 H 
ENDROOT
TORSDOF 0
