REMARK  9 active torsions:
REMARK  status: ('A' for Active; 'I' for Inactive)
REMARK    1  A    between atoms: C1_1  and  C2_2 
REMARK    2  A    between atoms: C2_2  and  O1_3 
REMARK    3  A    between atoms: O1_3  and  C3_4 
REMARK    4  A    between atoms: C3_4  and  C4_5 
REMARK    5  A    between atoms: C4_5  and  O2_6 
REMARK    6  A    between atoms: O2_6  and  C5_7 
REMARK    7  A    between atoms: C5_7  and  C6_8 
REMARK    8  A    between atoms: C6_8  and  C7_10 
REMARK    9  A    between atoms: C6_8  and  O3_11 
ROOT
ATOM      1  C4  <0> d          -0.114   1.152  -2.386  0.00  0.00     0.039 C 
ATOM      2  H9  <0> d           0.907   1.531  -2.443  0.00  0.00     0.077 H 
ATOM      3  H10 <0> d          -0.101   0.064  -2.442  0.00  0.00     0.077 H 
ENDROOT
BRANCH   1   4
ATOM      4  C3  <0> d          -0.932   1.713  -3.551  0.00  0.00     0.039 C 
ATOM      5  H7  <0> d          -0.535   1.331  -4.491  0.00  0.00     0.077 H 
ATOM      6  H8  <0> d          -1.973   1.407  -3.444  0.00  0.00     0.077 H 
BRANCH   4   7
ATOM      7  O1  <0> d          -0.853   3.140  -3.545  0.00  0.00    -0.389 OA
BRANCH   7   8
ATOM      8  C2  <0> d          -1.586   3.767  -4.599  0.00  0.00     0.016 C 
ATOM      9  H5  <0> d          -1.203   3.427  -5.561  0.00  0.00     0.073 H 
ATOM     10  H6  <0> d          -2.641   3.503  -4.514  0.00  0.00     0.073 H 
BRANCH   8  11
ATOM     11  C1  <0> d          -1.431   5.285  -4.496  0.00  0.00    -0.056 C 
ATOM     12  H2  <0> d          -1.814   5.625  -3.534  0.00  0.00     0.030 H 
ATOM     13  H3  <0> d          -0.376   5.549  -4.580  0.00  0.00     0.030 H 
ATOM     14  H4  <0> d          -1.990   5.763  -5.300  0.00  0.00     0.030 H 
ENDBRANCH   8  11
ENDBRANCH   7   8
ENDBRANCH   4   7
ENDBRANCH   1   4
BRANCH   1  15
ATOM     15  O2  <0> d          -0.704   1.559  -1.150  0.00  0.00    -0.387 OA
BRANCH  15  16
ATOM     16  C5  <0> d          -0.013   1.086   0.008  0.00  0.00     0.043 C 
ATOM     17  H11 <0> d           0.002  -0.004   0.002  0.00  0.00     0.078 H 
ATOM     18  H12 <0> d           1.010   1.463   0.000  0.00  0.00     0.078 H 
BRANCH  16  19
ATOM     19  C6  <0> d          -0.729   1.579   1.267  0.00  0.00     0.052 C 
ATOM     20  H1  <0> d          -1.776   1.277   1.232  0.00  0.00     0.085 H 
BRANCH  19  21
ATOM     21  C7  <0> d          -0.064   0.971   2.503  0.00  0.00    -0.051 C 
ATOM     22  H13 <0> d           0.983   1.274   2.539  0.00  0.00     0.031 H 
ATOM     23  H14 <0> d          -0.574   1.323   3.400  0.00  0.00     0.031 H 
ATOM     24  H15 <0> d          -0.126  -0.116   2.452  0.00  0.00     0.031 H 
ENDBRANCH  19  21
BRANCH  19  25
ATOM     25  O3  <0> d          -0.647   3.004   1.334  0.00  0.00    -0.394 OA
ATOM     26  H16 <0> d           0.258   3.345   1.368  0.00  0.00     0.210 HD
ENDBRANCH  19  25
ENDBRANCH  16  19
ENDBRANCH  15  16
ENDBRANCH   1  15
TORSDOF 9
