REMARK  4 active torsions:
REMARK  status: ('A' for Active; 'I' for Inactive)
REMARK    1  A    between atoms: C1_1  and  C2_2 
REMARK    2  A    between atoms: C2_2  and  C3_4 
REMARK    3  A    between atoms: C2_2  and  N1_6 
REMARK       I    between atoms: N1_6  and  C4_7 
REMARK    4  A    between atoms: C4_7  and  C5_9 
ROOT
ATOM      1  C2  <0> d          -1.290   1.681   0.017  0.00  0.00     0.092 C 
ATOM      2  H1  <0> d          -1.198   2.596  -0.568  0.00  0.00     0.089 H 
ENDROOT
BRANCH   1   3
ATOM      3  C1  <0> d          -1.667   2.032   1.458  0.00  0.00    -0.048 C 
ATOM      4  H2  <0> d          -0.893   2.665   1.892  0.00  0.00     0.030 H 
ATOM      5  H3  <0> d          -2.618   2.564   1.465  0.00  0.00     0.030 H 
ATOM      6  H4  <0> d          -1.758   1.117   2.043  0.00  0.00     0.030 H 
ENDBRANCH   1   3
BRANCH   1   7
ATOM      7  C3  <0> d          -2.360   0.806  -0.583  0.00  0.00     0.196 C 
ATOM      8  O1  <0> d          -2.083  -0.302  -0.978  0.00  0.00    -0.646 OA
ATOM      9  O3  <0> d          -3.620   1.256  -0.678  0.00  0.00    -0.646 OA
ENDBRANCH   1   7
BRANCH   1  10
ATOM     10  N1  <0> d          -0.011   0.966   0.007  0.00  0.00    -0.347 N 
ATOM     11  C4  <0> d           1.147   1.655  -0.000  0.00  0.00     0.214 C 
ATOM     12  O2  <0> d           1.130   2.868   0.007  0.00  0.00    -0.274 OA
ATOM     13  H5  <0> d           0.002  -0.004   0.002  0.00  0.00     0.163 HD
BRANCH  11  14
ATOM     14  C5  <0> d           2.462   0.920  -0.017  0.00  0.00    -0.003 C 
ATOM     15  H6  <0> d           2.277  -0.154  -0.021  0.00  0.00     0.040 H 
ATOM     16  H7  <0> d           3.021   1.196  -0.910  0.00  0.00     0.040 H 
ATOM     17  H8  <0> d           3.038   1.186   0.870  0.00  0.00     0.040 H 
ENDBRANCH  11  14
ENDBRANCH   1  10
TORSDOF 4
