REMARK  3 active torsions:
REMARK  status: ('A' for Active; 'I' for Inactive)
REMARK    1  A    between atoms: C1_1  and  C2_2 
REMARK    2  A    between atoms: C5_6  and  C8_10 
REMARK    3  A    between atoms: C6_7  and  C7_8 
ROOT
ATOM      1  C2  <0> d          -1.919   2.273   1.229  0.00  0.00    -0.042 A 
ATOM      2  C3  <0> d          -3.126   2.948   1.184  0.00  0.00    -0.059 A 
ATOM      3  C4  <0> d          -3.681   3.261  -0.044  0.00  0.00     0.003 A 
ATOM      4  N1  <0> d          -3.078   2.928  -1.169  0.00  0.00    -0.265 NA
ATOM      5  C5  <0> d          -1.926   2.290  -1.179  0.00  0.00     0.048 A 
ATOM      6  C6  <0> d          -1.304   1.932   0.019  0.00  0.00     0.070 A 
ATOM      7  H4  <0> d          -3.630   3.228   2.097  0.00  0.00     0.086 H 
ATOM      8  H5  <0> d          -4.623   3.788  -0.083  0.00  0.00     0.114 H 
ENDROOT
BRANCH   1   9
ATOM      9  C1  <0> d          -1.284   1.913   2.548  0.00  0.00    -0.050 C 
ATOM     10  H1  <0> d          -0.629   2.723   2.868  0.00  0.00     0.033 H 
ATOM     11  H2  <0> d          -2.062   1.758   3.295  0.00  0.00     0.033 H 
ATOM     12  H3  <0> d          -0.702   0.999   2.433  0.00  0.00     0.033 H 
ENDBRANCH   1   9
BRANCH   6  13
ATOM     13  C7  <0> d          -0.014   1.210   0.009  0.00  0.00     0.211 C 
ATOM     14  O1  <0> d           0.002  -0.004   0.002  0.00  0.00    -0.644 OA
ATOM     15  O2  <0> d           1.143   1.900   0.001  0.00  0.00    -0.644 OA
ENDBRANCH   6  13
BRANCH   5  16
ATOM     16  C8  <0> d          -1.277   1.938  -2.492  0.00  0.00    -0.035 C 
ATOM     17  H6  <0> d          -1.623   0.956  -2.817  0.00  0.00     0.035 H 
ATOM     18  H7  <0> d          -1.546   2.683  -3.241  0.00  0.00     0.035 H 
ATOM     19  H8  <0> d          -0.194   1.920  -2.369  0.00  0.00     0.035 H 
ENDBRANCH   5  16
TORSDOF 3
