REMARK  2 active torsions:
REMARK  status: ('A' for Active; 'I' for Inactive)
REMARK    1  A    between atoms: C1_1  and  C2_2 
REMARK    2  A    between atoms: C2_2  and  C10_12 
ROOT
ATOM      1  C2  <0> d           2.476  -0.312   0.317  0.00  0.00    -0.037 C 
ATOM      2  C3  <0> d           2.282   1.094   0.914  0.00  0.00    -0.046 C 
ATOM      3  H1  <0> d           3.197   1.562   1.280  0.00  0.00     0.041 H 
ATOM      4  C4  <0> d           1.442   1.994  -0.001  0.00  0.00    -0.058 C 
ATOM      5  C5  <0> d          -0.019   1.518   0.010  0.00  0.00    -0.044 C 
ATOM      6  C6  <0> d           0.002  -0.004   0.002  0.00  0.00    -0.084 C 
ATOM      7  C7  <0> d          -0.832  -0.721  -0.709  0.00  0.00    -0.119 C 
ATOM      8  C8  <0> d           1.079  -0.625   0.892  0.00  0.00    -0.026 C 
ATOM      9  H2  <0> d           0.894  -1.655   1.196  0.00  0.00     0.048 H 
ATOM     10  C9  <0> d           1.444   0.395   1.998  0.00  0.00    -0.053 C 
ATOM     11  H6  <0> d           1.832   1.943  -1.018  0.00  0.00     0.034 H 
ATOM     12  H7  <0> d           1.492   3.022   0.356  0.00  0.00     0.034 H 
ATOM     13  H8  <0> d          -0.536   1.887  -0.875  0.00  0.00     0.039 H 
ATOM     14  H9  <0> d          -0.519   1.877   0.910  0.00  0.00     0.039 H 
ATOM     15  H10 <0> d          -1.576  -0.235  -1.323  0.00  0.00     0.067 H 
ATOM     16  H11 <0> d          -0.777  -1.800  -0.681  0.00  0.00     0.067 H 
ATOM     17  H12 <0> d           0.597   0.985   2.349  0.00  0.00     0.034 H 
ATOM     18  H13 <0> d           2.036  -0.028   2.809  0.00  0.00     0.034 H 
ENDROOT
BRANCH   1  19
ATOM     19  C1  <0> d           3.605  -1.111   0.971  0.00  0.00    -0.068 C 
ATOM     20  H3  <0> d           3.631  -2.116   0.550  0.00  0.00     0.028 H 
ATOM     21  H4  <0> d           4.557  -0.614   0.783  0.00  0.00     0.028 H 
ATOM     22  H5  <0> d           3.433  -1.171   2.046  0.00  0.00     0.028 H 
ENDBRANCH   1  19
BRANCH   1  23
ATOM     23  C10 <0> d           2.534  -0.332  -1.211  0.00  0.00    -0.068 C 
ATOM     24  H14 <0> d           1.636   0.135  -1.615  0.00  0.00     0.028 H 
ATOM     25  H15 <0> d           3.412   0.217  -1.549  0.00  0.00     0.028 H 
ATOM     26  H16 <0> d           2.595  -1.364  -1.559  0.00  0.00     0.028 H 
ENDBRANCH   1  23
TORSDOF 2
