REMARK  3 active torsions:
REMARK  status: ('A' for Active; 'I' for Inactive)
REMARK    1  A    between atoms: C1_1  and  C2_2 
REMARK    2  A    between atoms: C6_9  and  C7_10 
REMARK    3  A    between atoms: C6_9  and  C8_11 
ROOT
ATOM      1  C2  <0> d           0.002  -0.037  -0.029  0.00  0.00     0.004 C 
ATOM      2  H1  <0> d          -0.930  -0.395   0.030  0.00  0.00     0.051 H 
ATOM      3  C3  <0> d           0.844  -0.542   1.160  0.00  0.00    -0.037 C 
ATOM      4  H2  <0> d           0.684   0.006   2.088  0.00  0.00     0.042 H 
ATOM      5  C4  <0> d           0.776  -2.077   1.278  0.00  0.00    -0.056 C 
ATOM      6  C5  <0> d           1.863  -2.115   0.187  0.00  0.00    -0.040 C 
ATOM      7  H3  <0> d           2.584  -2.928   0.273  0.00  0.00     0.041 H 
ATOM      8  C6  <0> d           2.318  -0.733   0.749  0.00  0.00    -0.039 C 
ATOM      9  C9  <0> d           1.248  -1.960  -1.218  0.00  0.00    -0.005 C 
ATOM     10  C10 <0> d           0.682  -0.540  -1.292  0.00  0.00     0.131 C 
ATOM     11  O1  <0> d           0.751   0.135  -2.291  0.00  0.00    -0.298 OA
ATOM     12  H7  <0> d           1.111  -2.457   2.243  0.00  0.00     0.034 H 
ATOM     13  H8  <0> d          -0.178  -2.498   0.963  0.00  0.00     0.034 H 
ATOM     14  H15 <0> d           1.956  -2.100  -1.910  0.00  0.00     0.044 H 
ATOM     15  H16 <0> d           0.456  -2.695  -1.362  0.00  0.00     0.044 H 
ENDROOT
BRANCH   8  16
ATOM     16  C7  <0> d           2.792   0.255  -0.319  0.00  0.00    -0.069 C 
ATOM     17  H9  <0> d           2.321   1.223  -0.153  0.00  0.00     0.028 H 
ATOM     18  H10 <0> d           3.875   0.362  -0.260  0.00  0.00     0.028 H 
ATOM     19  H11 <0> d           2.518  -0.118  -1.306  0.00  0.00     0.028 H 
ENDBRANCH   8  16
BRANCH   8  20
ATOM     20  C8  <0> d           3.279  -0.839   1.934  0.00  0.00    -0.069 C 
ATOM     21  H12 <0> d           3.002  -1.693   2.552  0.00  0.00     0.028 H 
ATOM     22  H13 <0> d           4.297  -0.972   1.567  0.00  0.00     0.028 H 
ATOM     23  H14 <0> d           3.224   0.073   2.529  0.00  0.00     0.028 H 
ENDBRANCH   8  20
BRANCH   1  24
ATOM     24  C1  <0> d          -0.038   1.492  -0.029  0.00  0.00    -0.066 C 
ATOM     25  H4  <0> d           0.980   1.882  -0.012  0.00  0.00     0.028 H 
ATOM     26  H5  <0> d          -0.546   1.843  -0.927  0.00  0.00     0.028 H 
ATOM     27  H6  <0> d          -0.576   1.842   0.852  0.00  0.00     0.028 H 
ENDBRANCH   1  24
TORSDOF 3
