REMARK  1 active torsions:
REMARK  status: ('A' for Active; 'I' for Inactive)
REMARK    1  A    between atoms: C1_1  and  C2_2 
ROOT
ATOM      1  C2  <0> d          -0.018   1.503   0.010  0.00  0.00    -0.035 A 
ATOM      2  C3  <0> d           1.164   2.210   0.003  0.00  0.00    -0.075 A 
ATOM      3  C4  <0> d           1.159   3.598   0.010  0.00  0.00    -0.082 A 
ATOM      4  C5  <0> d          -0.021   4.288   0.024  0.00  0.00    -0.071 A 
ATOM      5  C6  <0> d          -1.231   3.591   0.032  0.00  0.00    -0.008 A 
ATOM      6  C7  <0> d          -1.231   2.184   0.020  0.00  0.00     0.048 A 
ATOM      7  N1  <0> d          -2.546   1.778   0.035  0.00  0.00    -0.365 N 
ATOM      8  H1  <0> d          -2.845   0.855   0.033  0.00  0.00     0.165 HD
ATOM      9  C8  <0> d          -3.370   2.870   0.049  0.00  0.00    -0.022 A 
ATOM     10  C9  <0> d          -2.639   3.996   0.047  0.00  0.00    -0.056 A 
ATOM     11  H5  <0> d           2.104   1.679  -0.008  0.00  0.00     0.084 H 
ATOM     12  H6  <0> d           2.094   4.137   0.004  0.00  0.00     0.083 H 
ATOM     13  H7  <0> d          -0.018   5.368   0.030  0.00  0.00     0.084 H 
ATOM     14  H8  <0> d          -4.450   2.833   0.058  0.00  0.00     0.111 H 
ATOM     15  H9  <0> d          -3.016   5.008   0.056  0.00  0.00     0.086 H 
ENDROOT
BRANCH   1  16
ATOM     16  C1  <0> d           0.002  -0.004   0.002  0.00  0.00    -0.049 C 
ATOM     17  H2  <0> d           0.017  -0.373   1.028  0.00  0.00     0.033 H 
ATOM     18  H3  <0> d          -0.888  -0.377  -0.505  0.00  0.00     0.033 H 
ATOM     19  H4  <0> d           0.892  -0.352  -0.522  0.00  0.00     0.033 H 
ENDBRANCH   1  16
TORSDOF 1
