REMARK  1 active torsions:
REMARK  status: ('A' for Active; 'I' for Inactive)
REMARK    1  A    between atoms: C4_4  and  N2_7 
ROOT
ATOM      1  C1  <0> d          -0.013   1.076   0.008  0.00  0.00    -0.063 A 
ATOM      2  C2  <0> d          -1.221   1.761   0.017  0.00  0.00    -0.041 A 
ATOM      3  C3  <0> d          -1.195   3.145   0.029  0.00  0.00     0.161 A 
ATOM      4  C4  <0> d           0.035   3.799   0.021  0.00  0.00     0.160 A 
ATOM      5  N1  <0> d           1.164   3.109   0.007  0.00  0.00    -0.241 NA
ATOM      6  C5  <0> d           1.169   1.789   0.001  0.00  0.00     0.005 A 
ATOM      7  F1  <0> d          -2.347   3.852   0.043  0.00  0.00    -0.202 F 
ATOM      8  H1  <0> d           0.002  -0.004   0.002  0.00  0.00     0.085 H 
ATOM      9  H2  <0> d          -2.159   1.226   0.019  0.00  0.00     0.088 H 
ATOM     10  H3  <0> d           2.110   1.259  -0.011  0.00  0.00     0.114 H 
ENDROOT
BRANCH   4  11
ATOM     11  N2  <0> d           0.077   5.190   0.026  0.00  0.00    -0.382 N 
ATOM     12  H4  <0> d           1.046   5.711   0.020  0.00  0.00     0.157 HD
ATOM     13  H5  <0> d          -0.859   5.768   0.038  0.00  0.00     0.157 HD
ENDBRANCH   4  11
TORSDOF 1
