REMARK  4 active torsions:
REMARK  status: ('A' for Active; 'I' for Inactive)
REMARK    1  A    between atoms: C1_1  and  C2_2 
REMARK    2  A    between atoms: C2_2  and  C3_3 
REMARK    3  A    between atoms: C3_3  and  C4_5 
REMARK    4  A    between atoms: C3_3  and  O1_12 
ROOT
ATOM      1  C4  <0> d           0.002  -0.004   0.002  0.00  0.00    -0.029 A 
ATOM      2  C5  <0> d          -1.108  -0.712   0.424  0.00  0.00    -0.071 A 
ATOM      3  C6  <0> d          -1.092  -2.094   0.411  0.00  0.00    -0.045 A 
ATOM      4  C7  <0> d           0.040  -2.769  -0.013  0.00  0.00     0.116 A 
ATOM      5  C8  <0> d           1.153  -2.059  -0.430  0.00  0.00    -0.045 A 
ATOM      6  C9  <0> d           1.133  -0.677  -0.422  0.00  0.00    -0.071 A 
ATOM      7  F1  <0> d           0.058  -4.120  -0.019  0.00  0.00    -0.206 F 
ATOM      8  H7  <0> d          -1.989  -0.185   0.759  0.00  0.00     0.084 H 
ATOM      9  H8  <0> d          -1.961  -2.647   0.737  0.00  0.00     0.088 H 
ATOM     10  H9  <0> d           2.036  -2.585  -0.760  0.00  0.00     0.088 H 
ATOM     11  H10 <0> d           2.001  -0.123  -0.747  0.00  0.00     0.084 H 
ENDROOT
BRANCH   1  12
ATOM     12  C3  <0> d          -0.018   1.503   0.010  0.00  0.00     0.060 C 
ATOM     13  H1  <0> d           1.004   1.880   0.003  0.00  0.00     0.090 H 
BRANCH  12  14
ATOM     14  C2  <0> d          -0.758   2.010  -1.229  0.00  0.00    -0.041 C 
ATOM     15  H5  <0> d          -0.301   1.586  -2.124  0.00  0.00     0.036 H 
ATOM     16  H6  <0> d          -1.804   1.707  -1.177  0.00  0.00     0.036 H 
BRANCH  14  17
ATOM     17  C1  <0> d          -0.672   3.536  -1.286  0.00  0.00    -0.074 C 
ATOM     18  H2  <0> d          -1.199   3.897  -2.169  0.00  0.00     0.027 H 
ATOM     19  H3  <0> d          -1.129   3.960  -0.392  0.00  0.00     0.027 H 
ATOM     20  H4  <0> d           0.374   3.839  -1.338  0.00  0.00     0.027 H 
ENDBRANCH  14  17
ENDBRANCH  12  14
BRANCH  12  21
ATOM     21  O1  <0> d          -0.687   1.964   1.186  0.00  0.00    -0.391 OA
ATOM     22  H11 <0> d          -1.604   1.665   1.259  0.00  0.00     0.210 HD
ENDBRANCH  12  21
ENDBRANCH   1  12
TORSDOF 4
