REMARK  3 active torsions:
REMARK  status: ('A' for Active; 'I' for Inactive)
REMARK    1  A    between atoms: C1_1  and  O1_2 
REMARK    2  A    between atoms: O1_2  and  S1_3 
REMARK    3  A    between atoms: S1_3  and  C2_5 
ROOT
ATOM      1  S1  <0> d          -0.017   1.417   0.010  0.00  0.00     0.148 S 
ATOM      2  O2  <0> d           0.002  -0.004   0.002  0.00  0.00    -0.229 OA
ENDROOT
BRANCH   1   3
ATOM      3  O1  <0> d          -0.530   1.770   1.399  0.00  0.00    -0.301 OA
BRANCH   3   4
ATOM      4  C1  <0> d          -1.878   1.364   1.642  0.00  0.00     0.020 C 
ATOM      5  H1  <0> d          -2.538   1.848   0.922  0.00  0.00     0.068 H 
ATOM      6  H2  <0> d          -1.956   0.282   1.536  0.00  0.00     0.068 H 
ATOM      7  H3  <0> d          -2.168   1.652   2.652  0.00  0.00     0.068 H 
ENDBRANCH   3   4
ENDBRANCH   1   3
BRANCH   1   8
ATOM      8  C2  <0> d           1.685   2.045  -0.003  0.00  0.00     0.015 C 
ATOM      9  H4  <0> d           2.142   1.836  -0.970  0.00  0.00     0.048 H 
ATOM     10  H5  <0> d           1.676   3.121   0.170  0.00  0.00     0.048 H 
ATOM     11  H6  <0> d           2.259   1.555   0.783  0.00  0.00     0.048 H 
ENDBRANCH   1   8
TORSDOF 3
