REMARK  2 active torsions:
REMARK  status: ('A' for Active; 'I' for Inactive)
REMARK    1  A    between atoms: C1_1  and  C2_2 
REMARK    2  A    between atoms: C3_3  and  C4_4 
ROOT
ATOM      1  C2  <0> d           0.018  -1.178  -0.004  0.00  0.00    -0.100 C 
ATOM      2  C3  <0> d           0.002  -0.004   0.002  0.00  0.00     0.004 C 
ENDROOT
BRANCH   1   3
ATOM      3  C1  <0> d           0.038  -2.650  -0.013  0.00  0.00    -0.021 C 
ATOM      4  H1  <0> d          -0.985  -3.027  -0.005  0.00  0.00     0.044 H 
ATOM      5  H2  <0> d           0.548  -3.001  -0.909  0.00  0.00     0.044 H 
ATOM      6  H3  <0> d           0.565  -3.011   0.871  0.00  0.00     0.044 H 
ENDBRANCH   1   3
BRANCH   2   7
ATOM      7  C4  <0> d          -0.017   1.428   0.010  0.00  0.00     0.258 C 
ATOM      8  O1  <0> d           1.027   2.050   0.003  0.00  0.00    -0.637 OA
ATOM      9  O2  <0> d          -1.194   2.086   0.019  0.00  0.00    -0.637 OA
ENDBRANCH   2   7
TORSDOF 2
