REMARK  1 active torsions:
REMARK  status: ('A' for Active; 'I' for Inactive)
REMARK    1  A    between atoms: C4_5  and  C6_7 
ROOT
ATOM      1  C6  <0> d           1.250  -2.168  -0.023  0.00  0.00     0.093 A 
ATOM      2  C7  <0> d           2.081  -2.863   1.057  0.00  0.00    -0.038 A 
ATOM      3  C8  <0> d           2.573  -2.844  -0.392  0.00  0.00    -0.038 A 
ATOM      4  C9  <0> d           0.007  -2.827  -0.454  0.00  0.00     0.075 C 
ATOM      5  N2  <0> d          -0.953  -3.336  -0.787  0.00  0.00    -0.196 NA
ATOM      6  H5  <0> d           2.604  -2.231   1.775  0.00  0.00     0.036 H 
ATOM      7  H6  <0> d           1.707  -3.809   1.449  0.00  0.00     0.036 H 
ATOM      8  H7  <0> d           2.522  -3.776  -0.953  0.00  0.00     0.036 H 
ATOM      9  H8  <0> d           3.419  -2.199  -0.627  0.00  0.00     0.036 H 
ENDROOT
BRANCH   1  10
ATOM     10  C4  <0> d           1.218  -0.661  -0.014  0.00  0.00     0.057 A 
ATOM     11  N1  <0> d           2.350   0.015  -0.021  0.00  0.00    -0.264 NA
ATOM     12  C3  <0> d           2.370   1.334  -0.013  0.00  0.00     0.003 A 
ATOM     13  C2  <0> d           1.194   2.059   0.002  0.00  0.00    -0.066 A 
ATOM     14  H3  <0> d           3.317   1.853  -0.020  0.00  0.00     0.114 H 
ATOM     15  C1  <0> d          -0.017   1.382   0.010  0.00  0.00    -0.080 A 
ATOM     16  H2  <0> d           1.217   3.138   0.007  0.00  0.00     0.085 H 
ATOM     17  C5  <0> d           0.002  -0.004   0.002  0.00  0.00    -0.057 A 
ATOM     18  H1  <0> d          -0.952   1.922   0.026  0.00  0.00     0.083 H 
ATOM     19  H4  <0> d          -0.922  -0.564   0.008  0.00  0.00     0.086 H 
ENDBRANCH   1  10
TORSDOF 1
