REMARK  4 active torsions:
REMARK  status: ('A' for Active; 'I' for Inactive)
REMARK    1  A    between atoms: C1_1  and  C2_2 
REMARK    2  A    between atoms: C2_2  and  C3_3 
REMARK    3  A    between atoms: C2_2  and  C4_4 
REMARK       I    between atoms: C4_4  and  N1_6 
REMARK    4  A    between atoms: N1_6  and  C5_7 
ROOT
ATOM      1  C4  <0> d          -0.018   1.503   0.010  0.00  0.00     0.226 C 
ATOM      2  O1  <0> d           1.024   2.123   0.004  0.00  0.00    -0.273 OA
ATOM      3  N1  <0> d          -1.195   2.161   0.019  0.00  0.00    -0.309 N 
ATOM      4  H8  <0> d          -2.028   1.664   0.021  0.00  0.00     0.170 HD
ENDROOT
BRANCH   1   5
ATOM      5  C2  <0> d           0.002  -0.004   0.002  0.00  0.00     0.017 C 
ATOM      6  H4  <0> d          -0.498  -0.379   0.895  0.00  0.00     0.053 H 
BRANCH   5   7
ATOM      7  C1  <0> d          -0.724  -0.517  -1.243  0.00  0.00    -0.065 C 
ATOM      8  H1  <0> d          -0.224  -0.142  -2.136  0.00  0.00     0.028 H 
ATOM      9  H2  <0> d          -0.709  -1.607  -1.249  0.00  0.00     0.028 H 
ATOM     10  H3  <0> d          -1.756  -0.168  -1.231  0.00  0.00     0.028 H 
ENDBRANCH   5   7
BRANCH   5  11
ATOM     11  C3  <0> d           1.451  -0.494  -0.015  0.00  0.00    -0.065 C 
ATOM     12  H5  <0> d           1.969  -0.129   0.873  0.00  0.00     0.028 H 
ATOM     13  H6  <0> d           1.466  -1.584  -0.020  0.00  0.00     0.028 H 
ATOM     14  H7  <0> d           1.952  -0.119  -0.907  0.00  0.00     0.028 H 
ENDBRANCH   5  11
ENDBRANCH   1   5
BRANCH   3  15
ATOM     15  C5  <0> d          -1.214   3.556   0.027  0.00  0.00     0.159 A 
ATOM     16  N2  <0> d          -2.269   4.326   0.037  0.00  0.00    -0.111 NA
ATOM     17  O2  <0> d          -1.964   5.496   0.042  0.00  0.00    -0.224 OA
ATOM     18  C7  <0> d          -0.633   5.662   0.035  0.00  0.00     0.047 A 
ATOM     19  C6  <0> d          -0.089   4.423   0.032  0.00  0.00    -0.013 A 
ATOM     20  H10 <0> d          -0.100   6.601   0.038  0.00  0.00     0.127 H 
ATOM     21  H9  <0> d           0.957   4.157   0.031  0.00  0.00     0.092 H 
ENDBRANCH   3  15
TORSDOF 4
