REMARK  3 active torsions:
REMARK  status: ('A' for Active; 'I' for Inactive)
REMARK    1  A    between atoms: C2_2  and  C3_3 
REMARK    2  A    between atoms: C3_3  and  C4_4 
REMARK    3  A    between atoms: C9_9  and  O1_10 
ROOT
ATOM      1  C4  <0> d          -1.318  -1.726  -1.159  0.00  0.00    -0.020 A 
ATOM      2  C5  <0> d          -1.934  -1.355  -2.334  0.00  0.00    -0.054 A 
ATOM      3  C6  <0> d          -1.953  -2.236  -3.418  0.00  0.00     0.045 A 
ATOM      4  C7  <0> d          -1.356  -3.494  -3.302  0.00  0.00    -0.060 A 
ATOM      5  C8  <0> d          -0.747  -3.859  -2.122  0.00  0.00    -0.049 A 
ATOM      6  C9  <0> d          -0.726  -2.978  -1.048  0.00  0.00     0.072 A 
ATOM      7  C10 <0> d          -2.587  -1.852  -4.644  0.00  0.00     0.099 C 
ATOM      8  N1  <0> d          -3.091  -1.548  -5.615  0.00  0.00    -0.191 NA
ATOM      9  H6  <0> d          -2.398  -0.384  -2.418  0.00  0.00     0.086 H 
ATOM     10  H7  <0> d          -1.372  -4.180  -4.137  0.00  0.00     0.086 H 
ATOM     11  H8  <0> d          -0.285  -4.831  -2.032  0.00  0.00     0.087 H 
ENDROOT
BRANCH   1  12
ATOM     12  C3  <0> d          -1.293  -0.775   0.010  0.00  0.00    -0.024 C 
ATOM     13  H4  <0> d          -1.374  -1.339   0.939  0.00  0.00     0.046 H 
ATOM     14  H5  <0> d          -2.130  -0.081  -0.068  0.00  0.00     0.046 H 
BRANCH  12  15
ATOM     15  C2  <0> d           0.002  -0.004   0.002  0.00  0.00    -0.108 C 
ATOM     16  C1  <0> d          -0.016   1.306   0.009  0.00  0.00    -0.124 C 
ATOM     17  H1  <0> d           0.912   1.859   0.003  0.00  0.00     0.066 H 
ATOM     18  H2  <0> d          -0.958   1.833   0.017  0.00  0.00     0.066 H 
ATOM     19  H3  <0> d           0.945  -0.531  -0.010  0.00  0.00     0.076 H 
ENDBRANCH  12  15
ENDBRANCH   1  12
BRANCH   6  20
ATOM     20  O1  <0> d          -0.126  -3.342   0.114  0.00  0.00    -0.360 OA
ATOM     21  H9  <0> d          -0.716  -3.783   0.741  0.00  0.00     0.217 HD
ENDBRANCH   6  20
TORSDOF 3
