REMARK  3 active torsions:
REMARK  status: ('A' for Active; 'I' for Inactive)
REMARK    1  A    between atoms: C1_1  and  N1_2 
REMARK       I    between atoms: N1_2  and  C2_3 
REMARK    2  A    between atoms: C2_3  and  C3_5 
REMARK    3  A    between atoms: C7_10  and  N3_11 
ROOT
ATOM      1  C3  <0> d           0.633  -2.149   0.990  0.00  0.00     0.077 A 
ATOM      2  C4  <0> d          -0.053  -2.866   0.002  0.00  0.00    -0.063 A 
ATOM      3  C5  <0> d          -0.011  -4.248   0.044  0.00  0.00    -0.065 A 
ATOM      4  C6  <0> d           0.700  -4.878   1.050  0.00  0.00     0.004 A 
ATOM      5  N2  <0> d           1.339  -4.185   1.972  0.00  0.00    -0.243 NA
ATOM      6  C7  <0> d           1.337  -2.861   1.976  0.00  0.00     0.136 A 
ATOM      7  H5  <0> d          -0.602  -2.353  -0.773  0.00  0.00     0.085 H 
ATOM      8  H6  <0> d          -0.530  -4.831  -0.702  0.00  0.00     0.085 H 
ATOM      9  H7  <0> d           0.732  -5.957   1.081  0.00  0.00     0.114 H 
ENDROOT
BRANCH   1  10
ATOM     10  C2  <0> d           0.621  -0.675   0.992  0.00  0.00     0.255 C 
ATOM     11  N1  <0> d           0.048  -0.004  -0.027  0.00  0.00    -0.361 N 
ATOM     12  H4  <0> d          -0.357  -0.491  -0.762  0.00  0.00     0.162 HD
ATOM     13  O1  <0> d           1.129  -0.064   1.912  0.00  0.00    -0.268 OA
BRANCH  11  14
ATOM     14  C1  <0> d           0.037   1.461  -0.025  0.00  0.00    -0.018 C 
ATOM     15  H1  <0> d           1.062   1.832  -0.009  0.00  0.00     0.056 H 
ATOM     16  H2  <0> d          -0.466   1.821  -0.923  0.00  0.00     0.056 H 
ATOM     17  H3  <0> d          -0.493   1.819   0.857  0.00  0.00     0.056 H 
ENDBRANCH  11  14
ENDBRANCH   1  10
BRANCH   6  18
ATOM     18  N3  <0> d           2.027  -2.175   2.958  0.00  0.00    -0.383 N 
ATOM     19  H8  <0> d           1.959  -1.208   3.013  0.00  0.00     0.157 HD
ATOM     20  H9  <0> d           2.578  -2.659   3.592  0.00  0.00     0.157 HD
ENDBRANCH   6  18
TORSDOF 3
