REMARK  3 active torsions:
REMARK  status: ('A' for Active; 'I' for Inactive)
REMARK    1  A    between atoms: C1_1  and  S1_2 
REMARK    2  A    between atoms: S1_2  and  C2_3 
REMARK    3  A    between atoms: C3_4  and  O1_9 
ROOT
ATOM      1  C2  <0> d           1.195   2.076   0.002  0.00  0.00     0.125 A 
ATOM      2  C3  <0> d          -0.017   1.382   0.010  0.00  0.00     0.101 A 
ATOM      3  C4  <0> d           0.002  -0.004   0.002  0.00  0.00    -0.047 A 
ATOM      4  C5  <0> d           1.232  -0.649  -0.013  0.00  0.00    -0.063 A 
ATOM      5  C6  <0> d           2.390   0.101  -0.020  0.00  0.00     0.004 A 
ATOM      6  N1  <0> d           2.345   1.420  -0.013  0.00  0.00    -0.251 NA
ATOM      7  H4  <0> d          -0.918  -0.569   0.007  0.00  0.00     0.087 H 
ATOM      8  H5  <0> d           1.282  -1.728  -0.020  0.00  0.00     0.085 H 
ATOM      9  H6  <0> d           3.348  -0.399  -0.032  0.00  0.00     0.114 H 
ENDROOT
BRANCH   1  10
ATOM     10  S1  <0> d           1.194   3.838   0.011  0.00  0.00    -0.112 SA
BRANCH  10  11
ATOM     11  C1  <0> d           2.954   4.278  -0.004  0.00  0.00    -0.029 C 
ATOM     12  H1  <0> d           3.439   3.863   0.880  0.00  0.00     0.042 H 
ATOM     13  H2  <0> d           3.423   3.872  -0.900  0.00  0.00     0.042 H 
ATOM     14  H3  <0> d           3.057   5.363   0.001  0.00  0.00     0.042 H 
ENDBRANCH  10  11
ENDBRANCH   1  10
BRANCH   2  15
ATOM     15  O1  <0> d          -1.198   2.056   0.019  0.00  0.00    -0.358 OA
ATOM     16  H7  <0> d          -1.535   2.247   0.905  0.00  0.00     0.217 HD
ENDBRANCH   2  15
TORSDOF 3
