REMARK  7 active torsions:
REMARK  status: ('A' for Active; 'I' for Inactive)
REMARK    1  A    between atoms: C1_1  and  C2_2 
REMARK    2  A    between atoms: C2_2  and  C3_3 
REMARK    3  A    between atoms: C4_4  and  C5_5 
REMARK    4  A    between atoms: C5_5  and  C6_6 
REMARK    5  A    between atoms: C6_6  and  C7_7 
REMARK    6  A    between atoms: C8_8  and  C9_9 
REMARK    7  A    between atoms: C9_9  and  O1_10 
ROOT
ATOM      1  C5  <0> d           1.470   5.762   2.242  0.00  0.00    -0.047 C 
ATOM      2  H8  <0> d           0.546   5.309   2.600  0.00  0.00     0.039 H 
ATOM      3  H9  <0> d           2.294   5.469   2.893  0.00  0.00     0.039 H 
ENDROOT
BRANCH   1   4
ATOM      4  C4  <0> d           1.331   7.262   2.251  0.00  0.00    -0.106 C 
ATOM      5  C3  <0> d           0.251   7.817   2.744  0.00  0.00    -0.107 C 
ATOM      6  H6  <0> d          -0.539   7.199   3.144  0.00  0.00     0.076 H 
ATOM      7  H7  <0> d           2.121   7.881   1.852  0.00  0.00     0.076 H 
BRANCH   5   8
ATOM      8  C2  <0> d           0.112   9.317   2.753  0.00  0.00    -0.053 C 
ATOM      9  H4  <0> d           0.088   9.674   3.783  0.00  0.00     0.038 H 
ATOM     10  H5  <0> d           0.960   9.764   2.234  0.00  0.00     0.038 H 
BRANCH   8  11
ATOM     11  C1  <0> d          -1.186   9.713   2.047  0.00  0.00    -0.073 C 
ATOM     12  H1  <0> d          -1.162   9.357   1.017  0.00  0.00     0.027 H 
ATOM     13  H2  <0> d          -2.033   9.267   2.566  0.00  0.00     0.027 H 
ATOM     14  H3  <0> d          -1.287  10.799   2.054  0.00  0.00     0.027 H 
ENDBRANCH   8  11
ENDBRANCH   5   8
ENDBRANCH   1   4
BRANCH   1  15
ATOM     15  C6  <0> d           1.754   5.285   0.816  0.00  0.00    -0.047 C 
ATOM     16  H10 <0> d           2.678   5.738   0.458  0.00  0.00     0.039 H 
ATOM     17  H11 <0> d           0.930   5.577   0.165  0.00  0.00     0.039 H 
BRANCH  15  18
ATOM     18  C7  <0> d           1.893   3.784   0.807  0.00  0.00    -0.104 C 
ATOM     19  C8  <0> d           1.147   3.062   0.008  0.00  0.00    -0.084 C 
ATOM     20  H13 <0> d           0.432   3.542  -0.644  0.00  0.00     0.079 H 
ATOM     21  H12 <0> d           2.608   3.304   1.459  0.00  0.00     0.076 H 
BRANCH  19  22
ATOM     22  C9  <0> d           1.286   1.562  -0.002  0.00  0.00     0.032 C 
ATOM     23  H14 <0> d           1.840   1.243   0.881  0.00  0.00     0.080 H 
ATOM     24  H15 <0> d           1.823   1.252  -0.899  0.00  0.00     0.080 H 
BRANCH  22  25
ATOM     25  O1  <0> d          -0.011   0.963   0.007  0.00  0.00    -0.397 OA
ATOM     26  H16 <0> d           0.002  -0.004   0.002  0.00  0.00     0.209 HD
ENDBRANCH  22  25
ENDBRANCH  19  22
ENDBRANCH  15  18
ENDBRANCH   1  15
TORSDOF 7
