REMARK  2 active torsions:
REMARK  status: ('A' for Active; 'I' for Inactive)
REMARK    1  A    between atoms: C1_1  and  C2_2 
REMARK    2  A    between atoms: C3_4  and  C5_7 
ROOT
ATOM      1  C2  <0> d           2.049   0.681  -0.014  0.00  0.00     0.142 A 
ATOM      2  N1  <0> d           1.308  -0.386  -0.013  0.00  0.00    -0.220 NA
ATOM      3  C3  <0> d           0.002  -0.004   0.002  0.00  0.00     0.157 A 
ATOM      4  C4  <0> d          -0.016   1.357   0.009  0.00  0.00     0.055 A 
ATOM      5  O1  <0> d           1.262   1.766  -0.001  0.00  0.00    -0.306 OA
ATOM      6  H4  <0> d          -0.893   1.988   0.017  0.00  0.00     0.127 H 
ENDROOT
BRANCH   1   7
ATOM      7  C1  <0> d           3.556   0.697  -0.028  0.00  0.00    -0.015 C 
ATOM      8  H1  <0> d           3.910   0.706  -1.059  0.00  0.00     0.038 H 
ATOM      9  H2  <0> d           3.915   1.588   0.487  0.00  0.00     0.038 H 
ATOM     10  H3  <0> d           3.933  -0.192   0.478  0.00  0.00     0.038 H 
ENDBRANCH   1   7
BRANCH   3  11
ATOM     11  C5  <0> d          -1.170  -0.895   0.008  0.00  0.00     0.231 C 
ATOM     12  O2  <0> d          -2.291  -0.425   0.021  0.00  0.00    -0.643 OA
ATOM     13  O3  <0> d          -1.001  -2.232  -0.001  0.00  0.00    -0.643 OA
ENDBRANCH   3  11
TORSDOF 2
