REMARK  3 active torsions:
REMARK  status: ('A' for Active; 'I' for Inactive)
REMARK    1  A    between atoms: C1_1  and  C2_2 
REMARK    2  A    between atoms: C2_2  and  C3_4 
REMARK    3  A    between atoms: C2_2  and  O1_8 
ROOT
ATOM      1  C3  <0> d          -1.349   2.730   0.028  0.00  0.00    -0.029 C 
ATOM      2  C4  <0> d          -0.959   1.695  -1.040  0.00  0.00    -0.059 C 
ATOM      3  C5  <0> d          -0.013   1.086   0.008  0.00  0.00    -0.064 C 
ATOM      4  C6  <0> d          -0.939   1.683   1.080  0.00  0.00    -0.059 C 
ATOM      5  H5  <0> d          -0.716   3.618   0.028  0.00  0.00     0.043 H 
ATOM      6  H6  <0> d          -0.442   2.126  -1.897  0.00  0.00     0.033 H 
ATOM      7  H7  <0> d          -1.777   1.034  -1.326  0.00  0.00     0.033 H 
ATOM      8  H8  <0> d           0.002  -0.004   0.002  0.00  0.00     0.033 H 
ATOM      9  H9  <0> d           0.986   1.523   0.001  0.00  0.00     0.033 H 
ATOM     10  H10 <0> d          -1.751   1.019   1.375  0.00  0.00     0.033 H 
ATOM     11  H11 <0> d          -0.405   2.105   1.932  0.00  0.00     0.033 H 
ENDROOT
BRANCH   1  12
ATOM     12  C2  <0> d          -2.841   3.065   0.042  0.00  0.00     0.035 C 
ATOM     13  H1  <0> d          -3.415   2.160   0.241  0.00  0.00     0.082 H 
BRANCH  12  14
ATOM     14  C1  <0> d          -3.123   4.098   1.134  0.00  0.00    -0.052 C 
ATOM     15  H2  <0> d          -4.186   4.337   1.144  0.00  0.00     0.030 H 
ATOM     16  H3  <0> d          -2.833   3.691   2.103  0.00  0.00     0.030 H 
ATOM     17  H4  <0> d          -2.549   5.004   0.935  0.00  0.00     0.030 H 
ENDBRANCH  12  14
BRANCH  12  18
ATOM     18  O1  <0> d          -3.221   3.599  -1.228  0.00  0.00    -0.396 OA
ATOM     19  H12 <0> d          -4.157   3.835  -1.292  0.00  0.00     0.210 HD
ENDBRANCH  12  18
ENDBRANCH   1  12
TORSDOF 3
