REMARK  1 active torsions:
REMARK  status: ('A' for Active; 'I' for Inactive)
REMARK    1  A    between atoms: C3_3  and  C6_7 
ROOT
ATOM      1  C1  <0> d           4.834   1.956  -0.035  0.00  0.00    -0.065 A 
ATOM      2  C2  <0> d           3.525   2.408  -0.019  0.00  0.00    -0.069 A 
ATOM      3  C3  <0> d           2.498   1.461  -0.015  0.00  0.00    -0.007 A 
ATOM      4  C4  <0> d           2.829   0.107  -0.020  0.00  0.00     0.013 A 
ATOM      5  N1  <0> d           4.090  -0.275  -0.041  0.00  0.00    -0.272 NA
ATOM      6  C5  <0> d           5.081   0.596  -0.045  0.00  0.00     0.002 A 
ATOM      7  H2  <0> d           5.654   2.660  -0.039  0.00  0.00     0.085 H 
ATOM      8  H3  <0> d           3.304   3.465  -0.011  0.00  0.00     0.085 H 
ATOM      9  H4  <0> d           2.045  -0.635  -0.012  0.00  0.00     0.116 H 
ATOM     10  H5  <0> d           6.100   0.240  -0.058  0.00  0.00     0.114 H 
ENDROOT
BRANCH   3  11
ATOM     11  C6  <0> d           1.077   1.890   0.002  0.00  0.00    -0.008 A 
ATOM     12  C9  <0> d          -0.013   1.076   0.008  0.00  0.00    -0.013 A 
ATOM     13  N2  <0> d          -1.125   1.860   0.017  0.00  0.00    -0.374 N 
ATOM     14  H8  <0> d           0.002  -0.004   0.002  0.00  0.00     0.112 H 
ATOM     15  C8  <0> d          -0.745   3.171   0.026  0.00  0.00    -0.022 A 
ATOM     16  H1  <0> d          -2.041   1.540   0.019  0.00  0.00     0.164 HD
ATOM     17  C7  <0> d           0.600   3.225   0.014  0.00  0.00    -0.056 A 
ATOM     18  H7  <0> d          -1.411   4.021   0.037  0.00  0.00     0.111 H 
ATOM     19  H6  <0> d           1.204   4.120   0.013  0.00  0.00     0.086 H 
ENDBRANCH   3  11
TORSDOF 1
