REMARK  0 active torsions:
REMARK  status: ('A' for Active; 'I' for Inactive)
ROOT
ATOM      1  C1  <0> d          -4.293   1.023   2.353  0.00  0.00    -0.082 A 
ATOM      2  C2  <0> d          -4.923   0.703   1.164  0.00  0.00    -0.082 A 
ATOM      3  C3  <0> d          -4.196   0.659  -0.007  0.00  0.00    -0.076 A 
ATOM      4  C4  <0> d          -2.834   0.935  -0.003  0.00  0.00    -0.052 A 
ATOM      5  C5  <0> d          -2.208   1.258   1.179  0.00  0.00    -0.052 A 
ATOM      6  C6  <0> d          -2.941   1.299   2.358  0.00  0.00    -0.076 A 
ATOM      7  C7  <0> d          -0.738   1.584   1.257  0.00  0.00    -0.040 C 
ATOM      8  C8  <0> d          -0.013   1.086   0.008  0.00  0.00    -0.061 C 
ATOM      9  C9  <0> d          -0.765   1.599  -1.226  0.00  0.00    -0.061 C 
ATOM     10  C10 <0> d          -2.100   0.864  -1.316  0.00  0.00    -0.040 C 
ATOM     11  H1  <0> d          -4.857   1.057   3.273  0.00  0.00     0.083 H 
ATOM     12  H2  <0> d          -5.981   0.488   1.153  0.00  0.00     0.083 H 
ATOM     13  H3  <0> d          -4.689   0.408  -0.934  0.00  0.00     0.084 H 
ATOM     14  H4  <0> d          -2.450   1.548   3.287  0.00  0.00     0.084 H 
ATOM     15  H5  <0> d          -0.309   1.105   2.137  0.00  0.00     0.040 H 
ATOM     16  H6  <0> d          -0.613   2.663   1.339  0.00  0.00     0.040 H 
ATOM     17  H7  <0> d           0.002  -0.004   0.002  0.00  0.00     0.033 H 
ATOM     18  H8  <0> d           1.008   1.467   0.000  0.00  0.00     0.033 H 
ATOM     19  H9  <0> d          -0.941   2.670  -1.129  0.00  0.00     0.033 H 
ATOM     20  H10 <0> d          -0.176   1.403  -2.122  0.00  0.00     0.033 H 
ATOM     21  H11 <0> d          -2.711   1.322  -2.095  0.00  0.00     0.040 H 
ATOM     22  H12 <0> d          -1.919  -0.181  -1.571  0.00  0.00     0.040 H 
ENDROOT
TORSDOF 0
