REMARK  8 active torsions:
REMARK  status: ('A' for Active; 'I' for Inactive)
REMARK    1  A    between atoms: C1_1  and  C2_2 
REMARK    2  A    between atoms: C2_2  and  C3_3 
REMARK    3  A    between atoms: C3_3  and  C4_4 
REMARK    4  A    between atoms: C4_4  and  C5_6 
REMARK    5  A    between atoms: C4_4  and  O1_11 
REMARK    6  A    between atoms: C5_6  and  C6_8 
REMARK    7  A    between atoms: C5_6  and  C7_9 
REMARK    8  A    between atoms: C7_9  and  C8_10 
ROOT
ATOM      1  C4  <0> d           0.739  -2.027  -1.265  0.00  0.00     0.038 C 
ATOM      2  H1  <0> d           1.187  -2.390  -0.340  0.00  0.00     0.083 H 
ENDROOT
BRANCH   1   3
ATOM      3  C3  <0> d           0.718  -0.497  -1.257  0.00  0.00    -0.041 C 
ATOM      4  H8  <0> d           0.191  -0.136  -2.140  0.00  0.00     0.036 H 
ATOM      5  H9  <0> d           1.741  -0.120  -1.264  0.00  0.00     0.036 H 
BRANCH   3   6
ATOM      6  C2  <0> d           0.002  -0.004   0.002  0.00  0.00    -0.066 C 
ATOM      7  H6  <0> d           0.529  -0.365   0.885  0.00  0.00     0.032 H 
ATOM      8  H7  <0> d          -1.020  -0.381   0.010  0.00  0.00     0.032 H 
BRANCH   6   9
ATOM      9  C1  <0> d          -0.019   1.526   0.010  0.00  0.00    -0.076 C 
ATOM     10  H3  <0> d           1.004   1.903   0.003  0.00  0.00     0.027 H 
ATOM     11  H4  <0> d          -0.546   1.887  -0.873  0.00  0.00     0.027 H 
ATOM     12  H5  <0> d          -0.529   1.877   0.907  0.00  0.00     0.027 H 
ENDBRANCH   6   9
ENDBRANCH   3   6
ENDBRANCH   1   3
BRANCH   1  13
ATOM     13  C5  <0> d           1.562  -2.520  -2.457  0.00  0.00    -0.033 C 
ATOM     14  H2  <0> d           1.114  -2.157  -3.383  0.00  0.00     0.043 H 
BRANCH  13  15
ATOM     15  C6  <0> d           2.993  -1.991  -2.342  0.00  0.00    -0.071 C 
ATOM     16  H10 <0> d           3.441  -2.353  -1.417  0.00  0.00     0.028 H 
ATOM     17  H11 <0> d           3.579  -2.342  -3.192  0.00  0.00     0.028 H 
ATOM     18  H12 <0> d           2.978  -0.901  -2.337  0.00  0.00     0.028 H 
ENDBRANCH  13  15
BRANCH  13  19
ATOM     19  C7  <0> d           1.583  -4.050  -2.466  0.00  0.00    -0.063 C 
ATOM     20  H13 <0> d           2.110  -4.411  -1.583  0.00  0.00     0.033 H 
ATOM     21  H14 <0> d           0.560  -4.427  -2.458  0.00  0.00     0.033 H 
BRANCH  19  22
ATOM     22  C8  <0> d           2.299  -4.543  -3.725  0.00  0.00    -0.076 C 
ATOM     23  H15 <0> d           3.321  -4.166  -3.732  0.00  0.00     0.027 H 
ATOM     24  H16 <0> d           2.313  -5.633  -3.731  0.00  0.00     0.027 H 
ATOM     25  H17 <0> d           1.772  -4.182  -4.608  0.00  0.00     0.027 H 
ENDBRANCH  19  22
ENDBRANCH  13  19
ENDBRANCH   1  13
BRANCH   1  26
ATOM     26  O1  <0> d          -0.598  -2.521  -1.373  0.00  0.00    -0.395 OA
ATOM     27  H18 <0> d          -1.059  -2.238  -2.174  0.00  0.00     0.210 HD
ENDBRANCH   1  26
TORSDOF 8
