REMARK  3 active torsions:
REMARK  status: ('A' for Active; 'I' for Inactive)
REMARK    1  A    between atoms: C1_1  and  C2_2 
REMARK    2  A    between atoms: C2_2  and  C3_3 
REMARK    3  A    between atoms: C5_6  and  C10_13 
ROOT
ATOM      1  C3  <0> d           0.718  -0.497  -1.257  0.00  0.00    -0.012 C 
ATOM      2  H1  <0> d           1.709  -0.048  -1.332  0.00  0.00     0.049 H 
ATOM      3  C4  <0> d           0.823  -2.039  -1.250  0.00  0.00    -0.038 C 
ATOM      4  C5  <0> d           0.649  -2.378  -2.745  0.00  0.00     0.013 C 
ATOM      5  H2  <0> d           1.622  -2.445  -3.232  0.00  0.00     0.072 H 
ATOM      6  N1  <0> d          -0.131  -1.268  -3.316  0.00  0.00    -0.355 N 
ATOM      7  C6  <0> d          -0.102  -0.182  -2.491  0.00  0.00     0.016 A 
ATOM      8  C7  <0> d          -0.820   0.809  -3.062  0.00  0.00    -0.059 A 
ATOM      9  C8  <0> d          -1.317   0.320  -4.285  0.00  0.00    -0.066 A 
ATOM     10  C9  <0> d          -0.884  -0.955  -4.416  0.00  0.00    -0.020 A 
ATOM     11  H8  <0> d           1.800  -2.361  -0.888  0.00  0.00     0.037 H 
ATOM     12  H9  <0> d           0.024  -2.481  -0.655  0.00  0.00     0.037 H 
ATOM     13  H10 <0> d          -0.984   1.796  -2.654  0.00  0.00     0.086 H 
ATOM     14  H11 <0> d          -1.933   0.861  -4.987  0.00  0.00     0.085 H 
ATOM     15  H12 <0> d          -1.093  -1.613  -5.247  0.00  0.00     0.111 H 
ENDROOT
BRANCH   1  16
ATOM     16  C2  <0> d           0.002  -0.004   0.002  0.00  0.00    -0.060 C 
ATOM     17  H6  <0> d           0.529  -0.365   0.885  0.00  0.00     0.033 H 
ATOM     18  H7  <0> d          -1.020  -0.381   0.010  0.00  0.00     0.033 H 
BRANCH  16  19
ATOM     19  C1  <0> d          -0.019   1.526   0.010  0.00  0.00    -0.076 C 
ATOM     20  H3  <0> d           1.004   1.903   0.003  0.00  0.00     0.027 H 
ATOM     21  H4  <0> d          -0.546   1.887  -0.873  0.00  0.00     0.027 H 
ATOM     22  H5  <0> d          -0.529   1.877   0.907  0.00  0.00     0.027 H 
ENDBRANCH  16  19
ENDBRANCH   1  16
BRANCH   4  23
ATOM     23  C10 <0> d          -0.112  -3.696  -2.903  0.00  0.00    -0.057 C 
ATOM     24  H13 <0> d          -1.095  -3.606  -2.441  0.00  0.00     0.030 H 
ATOM     25  H14 <0> d          -0.228  -3.924  -3.962  0.00  0.00     0.030 H 
ATOM     26  H15 <0> d           0.446  -4.498  -2.418  0.00  0.00     0.030 H 
ENDBRANCH   4  23
TORSDOF 3
