REMARK  6 active torsions:
REMARK  status: ('A' for Active; 'I' for Inactive)
REMARK    1  A    between atoms: C1_1  and  C2_2 
REMARK    2  A    between atoms: C2_2  and  N1_3 
REMARK       I    between atoms: N1_3  and  C3_4 
REMARK    3  A    between atoms: C3_4  and  C4_6 
REMARK    4  A    between atoms: C4_6  and  C5_7 
REMARK    5  A    between atoms: C5_7  and  C6_8 
REMARK    6  A    between atoms: C6_8  and  C7_9 
ROOT
ATOM      1  C4  <0> d           2.462   0.920  -0.017  0.00  0.00     0.010 C 
ATOM      2  H7  <0> d           2.537   0.289   0.869  0.00  0.00     0.047 H 
ATOM      3  H8  <0> d           2.520   0.299  -0.910  0.00  0.00     0.047 H 
ENDROOT
BRANCH   1   4
ATOM      4  C3  <0> d           1.147   1.655  -0.000  0.00  0.00     0.217 C 
ATOM      5  N1  <0> d          -0.011   0.966   0.007  0.00  0.00    -0.361 N 
ATOM      6  H6  <0> d           0.002  -0.004   0.002  0.00  0.00     0.162 HD
ATOM      7  O1  <0> d           1.130   2.868   0.007  0.00  0.00    -0.274 OA
BRANCH   5   8
ATOM      8  C2  <0> d          -1.290   1.681   0.017  0.00  0.00    -0.008 C 
ATOM      9  H4  <0> d          -1.352   2.302   0.911  0.00  0.00     0.063 H 
ATOM     10  H5  <0> d          -1.360   2.312  -0.869  0.00  0.00     0.063 H 
BRANCH   8  11
ATOM     11  C1  <0> d          -2.439   0.671   0.017  0.00  0.00    -0.061 C 
ATOM     12  H1  <0> d          -2.369   0.040   0.903  0.00  0.00     0.029 H 
ATOM     13  H2  <0> d          -3.390   1.203   0.025  0.00  0.00     0.029 H 
ATOM     14  H3  <0> d          -2.377   0.050  -0.876  0.00  0.00     0.029 H 
ENDBRANCH   8  11
ENDBRANCH   5   8
ENDBRANCH   1   4
BRANCH   1  15
ATOM     15  C5  <0> d           3.611   1.930  -0.022  0.00  0.00    -0.048 C 
ATOM     16  H9  <0> d           3.537   2.560  -0.908  0.00  0.00     0.034 H 
ATOM     17  H10 <0> d           3.554   2.551   0.872  0.00  0.00     0.034 H 
BRANCH  15  18
ATOM     18  C6  <0> d           4.946   1.183  -0.039  0.00  0.00     0.016 C 
ATOM     19  H11 <0> d           5.021   0.552   0.847  0.00  0.00     0.049 H 
ATOM     20  H12 <0> d           5.004   0.562  -0.933  0.00  0.00     0.049 H 
BRANCH  18  21
ATOM     21  C7  <0> d           6.079   2.178  -0.044  0.00  0.00     0.172 C 
ATOM     22  O2  <0> d           5.842   3.362  -0.036  0.00  0.00    -0.648 OA
ATOM     23  O3  <0> d           7.350   1.748  -0.059  0.00  0.00    -0.648 OA
ENDBRANCH  18  21
ENDBRANCH  15  18
ENDBRANCH   1  15
TORSDOF 6
