REMARK  4 active torsions:
REMARK  status: ('A' for Active; 'I' for Inactive)
REMARK    1  A    between atoms: C1_1  and  C2_2 
REMARK    2  A    between atoms: N2_6  and  C5_7 
REMARK    3  A    between atoms: C5_7  and  C6_9 
REMARK    4  A    between atoms: C5_7  and  C7_10 
ROOT
ATOM      1  C2  <0> d          -0.750   3.104   0.025  0.00  0.00     0.102 A 
ATOM      2  N1  <0> d          -1.108   1.849   0.017  0.00  0.00    -0.246 NA
ATOM      3  C3  <0> d          -0.013   1.076   0.008  0.00  0.00     0.019 A 
ATOM      4  C4  <0> d           1.066   1.882   0.002  0.00  0.00    -0.001 A 
ATOM      5  N2  <0> d           0.599   3.169   0.013  0.00  0.00    -0.329 N 
ATOM      6  H5  <0> d           0.002  -0.004   0.002  0.00  0.00     0.117 H 
ATOM      7  H6  <0> d           2.101   1.573  -0.009  0.00  0.00     0.113 H 
ENDROOT
BRANCH   5   8
ATOM      8  C5  <0> d           1.411   4.388   0.011  0.00  0.00     0.098 C 
ATOM      9  H1  <0> d           0.757   5.260   0.022  0.00  0.00     0.089 H 
BRANCH   8  10
ATOM     10  C6  <0> d           2.306   4.407   1.252  0.00  0.00    -0.048 C 
ATOM     11  H7  <0> d           1.685   4.384   2.148  0.00  0.00     0.030 H 
ATOM     12  H8  <0> d           2.960   3.535   1.241  0.00  0.00     0.030 H 
ATOM     13  H9  <0> d           2.910   5.314   1.251  0.00  0.00     0.030 H 
ENDBRANCH   8  10
BRANCH   8  14
ATOM     14  C7  <0> d           2.269   4.419  -1.228  0.00  0.00     0.196 C 
ATOM     15  O1  <0> d           2.208   3.515  -2.027  0.00  0.00    -0.646 OA
ATOM     16  O2  <0> d           3.100   5.450  -1.443  0.00  0.00    -0.646 OA
ENDBRANCH   8  14
ENDBRANCH   5   8
BRANCH   1  17
ATOM     17  C1  <0> d          -1.686   4.285   0.039  0.00  0.00    -0.021 C 
ATOM     18  H2  <0> d          -1.921   4.575  -0.985  0.00  0.00     0.037 H 
ATOM     19  H3  <0> d          -2.604   4.014   0.560  0.00  0.00     0.037 H 
ATOM     20  H4  <0> d          -1.209   5.120   0.552  0.00  0.00     0.037 H 
ENDBRANCH   1  17
TORSDOF 4
