REMARK  2 active torsions:
REMARK  status: ('A' for Active; 'I' for Inactive)
REMARK    1  A    between atoms: C1_1  and  O1_2 
REMARK    2  A    between atoms: O1_2  and  C2_3 
ROOT
ATOM      1  C2  <0> d          -0.087   3.873   0.024  0.00  0.00     0.069 A 
ATOM      2  C3  <0> d           1.302   3.905   0.011  0.00  0.00    -0.050 A 
ATOM      3  C4  <0> d           2.027   2.729  -0.003  0.00  0.00    -0.073 A 
ATOM      4  C5  <0> d           1.379   1.506  -0.003  0.00  0.00    -0.037 A 
ATOM      5  C6  <0> d          -0.018   1.467   0.010  0.00  0.00     0.019 A 
ATOM      6  C7  <0> d          -0.750   2.659   0.028  0.00  0.00    -0.037 A 
ATOM      7  C8  <0> d           0.002  -0.004   0.002  0.00  0.00     0.164 A 
ATOM      8  O2  <0> d          -0.848  -0.869   0.006  0.00  0.00    -0.292 OA
ATOM      9  C9  <0> d           1.507   0.002  -0.012  0.00  0.00     0.020 A 
ATOM     10  H4  <0> d           1.817   4.854   0.011  0.00  0.00     0.087 H 
ATOM     11  H5  <0> d           3.107   2.765  -0.013  0.00  0.00     0.084 H 
ATOM     12  H6  <0> d          -1.829   2.631   0.044  0.00  0.00     0.089 H 
ATOM     13  H7  <0> d           2.053  -0.291   0.772  0.00  0.00     0.052 H 
ATOM     14  H8  <0> d           1.941  -0.401  -0.927  0.00  0.00     0.052 H 
ENDROOT
BRANCH   1  15
ATOM     15  O1  <0> d          -0.793   5.034   0.037  0.00  0.00    -0.356 OA
BRANCH  15  16
ATOM     16  C1  <0> d          -0.043   6.250   0.037  0.00  0.00     0.010 C 
ATOM     17  H1  <0> d          -0.727   7.099   0.048  0.00  0.00     0.066 H 
ATOM     18  H2  <0> d           0.594   6.285   0.921  0.00  0.00     0.066 H 
ATOM     19  H3  <0> d           0.576   6.295  -0.859  0.00  0.00     0.066 H 
ENDBRANCH  15  16
ENDBRANCH   1  15
TORSDOF 2
