REMARK  4 active torsions:
REMARK  status: ('A' for Active; 'I' for Inactive)
REMARK    1  A    between atoms: C1_1  and  C2_2 
REMARK    2  A    between atoms: C4_4  and  S1_9 
REMARK    3  A    between atoms: C5_5  and  C6_8 
REMARK    4  A    between atoms: S1_9  and  C7_10 
ROOT
ATOM      1  C2  <0> d          -0.184   5.428   0.231  0.00  0.00     0.054 A 
ATOM      2  C3  <0> d          -0.192   4.045   0.270  0.00  0.00    -0.040 A 
ATOM      3  C4  <0> d          -0.803   3.426   1.364  0.00  0.00     0.028 A 
ATOM      4  C5  <0> d          -1.370   4.245   2.341  0.00  0.00     0.069 A 
ATOM      5  N1  <0> d          -1.306   5.555   2.213  0.00  0.00    -0.154 NA
ATOM      6  N2  <0> d          -0.744   6.118   1.207  0.00  0.00    -0.155 NA
ATOM      7  H4  <0> d           0.260   3.463  -0.519  0.00  0.00     0.088 H 
ENDROOT
BRANCH   3   8
ATOM      8  S1  <0> d          -0.862   1.671   1.500  0.00  0.00    -0.132 SA
BRANCH   8   9
ATOM      9  C7  <0> d          -0.013   1.086   0.008  0.00  0.00    -0.030 C 
ATOM     10  H8  <0> d           0.002  -0.004   0.002  0.00  0.00     0.042 H 
ATOM     11  H9  <0> d           1.010   1.463   0.000  0.00  0.00     0.042 H 
ATOM     12  H10 <0> d          -0.540   1.447  -0.875  0.00  0.00     0.042 H 
ENDBRANCH   8   9
ENDBRANCH   3   8
BRANCH   4  13
ATOM     13  C6  <0> d          -2.048   3.634   3.540  0.00  0.00    -0.033 C 
ATOM     14  H5  <0> d          -1.319   3.496   4.339  0.00  0.00     0.035 H 
ATOM     15  H6  <0> d          -2.844   4.295   3.884  0.00  0.00     0.035 H 
ATOM     16  H7  <0> d          -2.472   2.668   3.265  0.00  0.00     0.035 H 
ENDBRANCH   4  13
BRANCH   1  17
ATOM     17  C1  <0> d           0.462   6.145  -0.926  0.00  0.00    -0.034 C 
ATOM     18  H1  <0> d          -0.277   6.309  -1.711  0.00  0.00     0.035 H 
ATOM     19  H2  <0> d           0.850   7.106  -0.587  0.00  0.00     0.035 H 
ATOM     20  H3  <0> d           1.280   5.541  -1.318  0.00  0.00     0.035 H 
ENDBRANCH   1  17
TORSDOF 4
