REMARK  0 active torsions:
REMARK  status: ('A' for Active; 'I' for Inactive)
ROOT
ATOM      1  C1  <0> d          -0.017   1.383   0.010  0.00  0.00    -0.053 A 
ATOM      2  C2  <0> d           1.193   2.060   0.002  0.00  0.00    -0.025 A 
ATOM      3  C3  <0> d           2.373   1.336  -0.013  0.00  0.00     0.212 A 
ATOM      4  N1  <0> d           2.354   0.015  -0.021  0.00  0.00    -0.190 NA
ATOM      5  C4  <0> d           1.221  -0.663  -0.014  0.00  0.00     0.234 A 
ATOM      6  C5  <0> d           0.002  -0.004   0.002  0.00  0.00     0.092 A 
ATOM      7 Cl1  <0> d          -1.483  -0.903   0.012  0.00  0.00    -0.079 Cl
ATOM      8  F1  <0> d           1.250  -2.014  -0.022  0.00  0.00    -0.182 F 
ATOM      9  F2  <0> d           3.556   1.988  -0.021  0.00  0.00    -0.184 F 
ATOM     10  H1  <0> d          -0.952   1.922   0.026  0.00  0.00     0.086 H 
ATOM     11  H2  <0> d           1.214   3.140   0.007  0.00  0.00     0.090 H 
ENDROOT
TORSDOF 0
