REMARK  1 active torsions:
REMARK  status: ('A' for Active; 'I' for Inactive)
REMARK    1  A    between atoms: C3_5  and  C4_6 
ROOT
ATOM      1  C1  <0> d           2.346   3.903   0.006  0.00  0.00    -0.041 A 
ATOM      2  C2  <0> d           2.002   5.233   0.012  0.00  0.00     0.012 A 
ATOM      3  N1  <0> d           0.745   5.582   0.026  0.00  0.00    -0.223 NA
ATOM      4  S1  <0> d          -0.091   4.245   0.026  0.00  0.00     0.017 SA
ATOM      5  C3  <0> d           1.239   3.059   0.007  0.00  0.00     0.101 A 
ATOM      6  H1  <0> d           3.367   3.549   0.000  0.00  0.00     0.088 H 
ATOM      7  H2  <0> d           2.773   5.990   0.009  0.00  0.00     0.115 H 
ENDROOT
BRANCH   5   8
ATOM      8  C4  <0> d           1.182   1.591  -0.001  0.00  0.00     0.218 C 
ATOM      9  O1  <0> d           2.210   0.943  -0.014  0.00  0.00    -0.643 OA
ATOM     10  O2  <0> d          -0.011   0.963   0.007  0.00  0.00    -0.643 OA
ENDBRANCH   5   8
TORSDOF 1
