REMARK  5 active torsions:
REMARK  status: ('A' for Active; 'I' for Inactive)
REMARK    1  A    between atoms: C1_1  and  C2_2 
REMARK    2  A    between atoms: C4_4  and  C10_10 
REMARK    3  A    between atoms: C6_6  and  C9_9 
REMARK    4  A    between atoms: C7_7  and  C8_8 
REMARK    5  A    between atoms: C10_10  and  O1_11 
ROOT
ATOM      1  C2  <0> d           1.175   1.783   0.000  0.00  0.00    -0.055 A 
ATOM      2  C3  <0> d          -0.013   1.076   0.008  0.00  0.00    -0.069 A 
ATOM      3  C4  <0> d          -1.219   1.751   0.017  0.00  0.00    -0.034 A 
ATOM      4  C5  <0> d          -1.238   3.133   0.030  0.00  0.00    -0.069 A 
ATOM      5  C6  <0> d          -0.050   3.840   0.023  0.00  0.00    -0.055 A 
ATOM      6  C7  <0> d           1.156   3.165   0.008  0.00  0.00    -0.050 A 
ATOM      7  H4  <0> d           0.002  -0.004   0.002  0.00  0.00     0.085 H 
ATOM      8  H5  <0> d          -2.180   3.660   0.043  0.00  0.00     0.085 H 
ENDROOT
BRANCH   3   9
ATOM      9  C10 <0> d          -2.514   0.980   0.019  0.00  0.00     0.040 C 
ATOM     10  H12 <0> d          -3.284   1.561  -0.488  0.00  0.00     0.081 H 
ATOM     11  H13 <0> d          -2.373   0.032  -0.500  0.00  0.00     0.081 H 
BRANCH   9  12
ATOM     12  O1  <0> d          -2.917   0.728   1.367  0.00  0.00    -0.396 OA
ATOM     13  H14 <0> d          -3.744   0.235   1.445  0.00  0.00     0.209 HD
ENDBRANCH   9  12
ENDBRANCH   3   9
BRANCH   1  14
ATOM     14  C1  <0> d           2.490   1.048  -0.016  0.00  0.00    -0.051 C 
ATOM     15  H1  <0> d           2.797   0.876  -1.048  0.00  0.00     0.033 H 
ATOM     16  H2  <0> d           3.247   1.644   0.494  0.00  0.00     0.033 H 
ATOM     17  H3  <0> d           2.378   0.091   0.494  0.00  0.00     0.033 H 
ENDBRANCH   1  14
BRANCH   5  18
ATOM     18  C9  <0> d          -0.070   5.347   0.032  0.00  0.00    -0.051 C 
ATOM     19  H9  <0> d          -0.085   5.716  -0.994  0.00  0.00     0.033 H 
ATOM     20  H10 <0> d          -0.961   5.695   0.556  0.00  0.00     0.033 H 
ATOM     21  H11 <0> d           0.819   5.720   0.539  0.00  0.00     0.033 H 
ENDBRANCH   5  18
BRANCH   6  22
ATOM     22  C8  <0> d           2.451   3.937  -0.001  0.00  0.00    -0.050 C 
ATOM     23  H6  <0> d           2.753   4.128  -1.030  0.00  0.00     0.033 H 
ATOM     24  H7  <0> d           2.313   4.885   0.519  0.00  0.00     0.033 H 
ATOM     25  H8  <0> d           3.223   3.355   0.503  0.00  0.00     0.033 H 
ENDBRANCH   6  22
TORSDOF 5
