REMARK  0 active torsions:
REMARK  status: ('A' for Active; 'I' for Inactive)
ROOT
ATOM      1  C1  <0> d          -0.017   1.378   0.010  0.00  0.00    -0.082 A 
ATOM      2  C2  <0> d           1.167   2.097   0.002  0.00  0.00    -0.082 A 
ATOM      3  C3  <0> d           2.375   1.433  -0.015  0.00  0.00    -0.069 A 
ATOM      4  C4  <0> d           2.399   0.035  -0.024  0.00  0.00     0.016 A 
ATOM      5  C5  <0> d           1.205  -0.687  -0.012  0.00  0.00    -0.044 A 
ATOM      6  C6  <0> d           0.002  -0.004   0.002  0.00  0.00    -0.076 A 
ATOM      7  C7  <0> d           1.193  -2.191  -0.008  0.00  0.00    -0.040 C 
ATOM      8  C8  <0> d           2.496  -2.756  -0.567  0.00  0.00    -0.055 C 
ATOM      9  C9  <0> d           3.681  -2.167   0.209  0.00  0.00    -0.005 C 
ATOM     10  C10 <0> d           3.693  -0.674  -0.048  0.00  0.00     0.160 C 
ATOM     11  O1  <0> d           4.729  -0.083  -0.266  0.00  0.00    -0.292 OA
ATOM     12  H1  <0> d          -0.961   1.901   0.026  0.00  0.00     0.083 H 
ATOM     13  H2  <0> d           1.143   3.176   0.010  0.00  0.00     0.083 H 
ATOM     14  H3  <0> d           3.300   1.991  -0.023  0.00  0.00     0.085 H 
ATOM     15  H4  <0> d          -0.927  -0.554   0.008  0.00  0.00     0.084 H 
ATOM     16  H5  <0> d           1.060  -2.544   1.014  0.00  0.00     0.040 H 
ATOM     17  H6  <0> d           0.361  -2.543  -0.618  0.00  0.00     0.040 H 
ATOM     18  H7  <0> d           2.496  -3.841  -0.462  0.00  0.00     0.034 H 
ATOM     19  H8  <0> d           2.584  -2.493  -1.621  0.00  0.00     0.034 H 
ATOM     20  H9  <0> d           3.558  -2.358   1.275  0.00  0.00     0.044 H 
ATOM     21  H10 <0> d           4.612  -2.611  -0.143  0.00  0.00     0.044 H 
ENDROOT
TORSDOF 0
