REMARK  6 active torsions:
REMARK  status: ('A' for Active; 'I' for Inactive)
REMARK    1  A    between atoms: C1_1  and  C2_2 
REMARK    2  A    between atoms: C2_2  and  C3_3 
REMARK    3  A    between atoms: C3_3  and  C4_4 
REMARK    4  A    between atoms: C4_4  and  C5_6 
REMARK    5  A    between atoms: C4_4  and  O2_8 
REMARK    6  A    between atoms: C5_6  and  O1_7 
ROOT
ATOM      1  C3  <0> d           2.530   3.725   0.124  0.00  0.00    -0.039 C 
ATOM      2  H7  <0> d           3.040   3.331   1.002  0.00  0.00     0.036 H 
ATOM      3  H8  <0> d           3.112   3.495  -0.769  0.00  0.00     0.036 H 
ENDROOT
BRANCH   1   4
ATOM      4  C2  <0> d           2.381   5.242   0.259  0.00  0.00    -0.066 C 
ATOM      5  H5  <0> d           1.871   5.637  -0.620  0.00  0.00     0.032 H 
ATOM      6  H6  <0> d           1.798   5.472   1.151  0.00  0.00     0.032 H 
BRANCH   4   7
ATOM      7  C1  <0> d           3.766   5.882   0.375  0.00  0.00    -0.076 C 
ATOM      8  H2  <0> d           4.276   5.487   1.253  0.00  0.00     0.027 H 
ATOM      9  H3  <0> d           4.348   5.652  -0.518  0.00  0.00     0.027 H 
ATOM     10  H4  <0> d           3.660   6.963   0.471  0.00  0.00     0.027 H 
ENDBRANCH   4   7
ENDBRANCH   1   4
BRANCH   1  11
ATOM     11  C4  <0> d           1.145   3.085   0.008  0.00  0.00     0.056 C 
ATOM     12  H1  <0> d           0.532   3.388   0.857  0.00  0.00     0.086 H 
BRANCH  11  13
ATOM     13  C5  <0> d           1.286   1.562  -0.002  0.00  0.00     0.040 C 
ATOM     14  H9  <0> d           1.840   1.243   0.881  0.00  0.00     0.077 H 
ATOM     15  H10 <0> d           1.823   1.252  -0.899  0.00  0.00     0.077 H 
BRANCH  13  16
ATOM     16  O1  <0> d          -0.011   0.963   0.007  0.00  0.00    -0.398 OA
ATOM     17  H11 <0> d           0.002  -0.004   0.002  0.00  0.00     0.209 HD
ENDBRANCH  13  16
ENDBRANCH  11  13
BRANCH  11  18
ATOM     18  O2  <0> d           0.522   3.513  -1.205  0.00  0.00    -0.393 OA
ATOM     19  H12 <0> d           1.013   3.277  -2.004  0.00  0.00     0.210 HD
ENDBRANCH  11  18
ENDBRANCH   1  11
TORSDOF 6
