REMARK  2 active torsions:
REMARK  status: ('A' for Active; 'I' for Inactive)
REMARK    1  A    between atoms: C1_1  and  O1_2 
REMARK    2  A    between atoms: O1_2  and  C2_3 
ROOT
ATOM      1  C2  <0> d           0.604  -0.605  -1.053  0.00  0.00     0.185 A 
ATOM      2  C3  <0> d           0.651  -2.006  -1.122  0.00  0.00     0.100 A 
ATOM      3  C4  <0> d           1.278  -2.606  -2.221  0.00  0.00    -0.020 A 
ATOM      4  C5  <0> d           1.826  -1.786  -3.194  0.00  0.00     0.135 A 
ATOM      5  C6  <0> d           1.738  -0.411  -3.053  0.00  0.00     0.042 A 
ATOM      6  N1  <0> d           1.138   0.131  -2.011  0.00  0.00    -0.233 NA
ATOM      7  F1  <0> d           2.441  -2.323  -4.271  0.00  0.00    -0.205 F 
ATOM      8  C7  <0> d           0.069  -2.807  -0.088  0.00  0.00     0.104 C 
ATOM      9  N2  <0> d          -0.392  -3.443   0.733  0.00  0.00    -0.191 NA
ATOM     10  H4  <0> d           1.333  -3.682  -2.307  0.00  0.00     0.090 H 
ATOM     11  H5  <0> d           2.166   0.228  -3.812  0.00  0.00     0.119 H 
ENDROOT
BRANCH   1  12
ATOM     12  O1  <0> d           0.002  -0.004   0.002  0.00  0.00    -0.338 OA
BRANCH  12  13
ATOM     13  C1  <0> d          -0.017   1.425   0.010  0.00  0.00     0.012 C 
ATOM     14  H1  <0> d           1.005   1.802   0.002  0.00  0.00     0.067 H 
ATOM     15  H2  <0> d          -0.544   1.786  -0.873  0.00  0.00     0.067 H 
ATOM     16  H3  <0> d          -0.527   1.776   0.907  0.00  0.00     0.067 H 
ENDBRANCH  12  13
ENDBRANCH   1  12
TORSDOF 2
