REMARK  4 active torsions:
REMARK  status: ('A' for Active; 'I' for Inactive)
REMARK    1  A    between atoms: C1_1  and  C2_2 
REMARK    2  A    between atoms: C2_2  and  C3_3 
REMARK    3  A    between atoms: C2_2  and  C4_4 
REMARK    4  A    between atoms: C6_6  and  N2_9 
ROOT
ATOM      1  C2  <0> d          -2.582   1.513   0.021  0.00  0.00    -0.016 C 
ATOM      2  H4  <0> d          -3.187   2.306   0.462  0.00  0.00     0.048 H 
ENDROOT
BRANCH   1   3
ATOM      3  C1  <0> d          -3.043   1.259  -1.416  0.00  0.00    -0.068 C 
ATOM      4  H1  <0> d          -4.091   0.959  -1.414  0.00  0.00     0.028 H 
ATOM      5  H2  <0> d          -2.929   2.172  -2.001  0.00  0.00     0.028 H 
ATOM      6  H3  <0> d          -2.439   0.467  -1.857  0.00  0.00     0.028 H 
ENDBRANCH   1   3
BRANCH   1   7
ATOM      7  C3  <0> d          -2.743   0.232   0.842  0.00  0.00    -0.068 C 
ATOM      8  H5  <0> d          -2.415   0.413   1.865  0.00  0.00     0.028 H 
ATOM      9  H6  <0> d          -3.791  -0.069   0.844  0.00  0.00     0.028 H 
ATOM     10  H7  <0> d          -2.139  -0.561   0.400  0.00  0.00     0.028 H 
ENDBRANCH   1   7
BRANCH   1  11
ATOM     11  C4  <0> d          -1.133   1.929   0.017  0.00  0.00     0.069 A 
ATOM     12  N1  <0> d          -0.672   3.148   0.025  0.00  0.00    -0.131 NA
ATOM     13  O1  <0> d           0.536   3.172   0.014  0.00  0.00    -0.196 OA
ATOM     14  C6  <0> d           1.052   1.933   0.002  0.00  0.00     0.168 A 
ATOM     15  C5  <0> d          -0.013   1.076   0.008  0.00  0.00    -0.006 A 
ATOM     16  H8  <0> d           0.002  -0.004   0.002  0.00  0.00     0.093 H 
BRANCH  14  17
ATOM     17  N2  <0> d           2.392   1.591  -0.013  0.00  0.00    -0.378 N 
ATOM     18  H9  <0> d           2.655   0.658  -0.021  0.00  0.00     0.158 HD
ATOM     19  H10 <0> d           3.069   2.286  -0.016  0.00  0.00     0.158 HD
ENDBRANCH  14  17
ENDBRANCH   1  11
TORSDOF 4
