REMARK  1 active torsions:
REMARK  status: ('A' for Active; 'I' for Inactive)
REMARK    1  A    between atoms: C3_5  and  N4_7 
ROOT
ATOM      1  C1  <0> d          -0.013   1.076   0.008  0.00  0.00     0.040 A 
ATOM      2  C2  <0> d           1.172   1.798   0.001  0.00  0.00     0.042 A 
ATOM      3  N1  <0> d           1.124   3.119   0.008  0.00  0.00    -0.145 NA
ATOM      4  N2  <0> d          -0.008   3.731   0.021  0.00  0.00     0.043 NA
ATOM      5  C3  <0> d          -1.153   3.061   0.029  0.00  0.00     0.738 A 
ATOM      6  N3  <0> d          -1.161   1.734   0.017  0.00  0.00    -0.073 NA
ATOM      7  H1  <0> d           0.002  -0.004   0.002  0.00  0.00     0.118 H 
ATOM      8  H2  <0> d           2.123   1.286  -0.011  0.00  0.00     0.119 H 
ENDROOT
BRANCH   5   9
ATOM      9  N4  <0> d          -2.352   3.753   0.043  0.00  0.00    -0.230 N 
ATOM     10  H3  <0> d          -2.352   4.723   0.047  0.00  0.00     0.174 HD
ATOM     11  H4  <0> d          -3.192   3.268   0.048  0.00  0.00     0.174 HD
ENDBRANCH   5   9
TORSDOF 1
