REMARK  0 active torsions:
REMARK  status: ('A' for Active; 'I' for Inactive)
ROOT
ATOM      1  C1  <0> d          -0.017   1.372   0.010  0.00  0.00    -0.061 A 
ATOM      2  C2  <0> d           0.002  -0.004   0.002  0.00  0.00    -0.061 A 
ATOM      3  C3  <0> d           1.221  -0.686  -0.014  0.00  0.00     0.044 A 
ATOM      4  C4  <0> d           2.422   0.029  -0.021  0.00  0.00    -0.061 A 
ATOM      5  C5  <0> d           2.403   1.405  -0.014  0.00  0.00    -0.061 A 
ATOM      6  C6  <0> d           1.184   2.087   0.002  0.00  0.00     0.044 A 
ATOM      7  C7  <0> d           1.164   3.519   0.009  0.00  0.00     0.099 C 
ATOM      8  N1  <0> d           1.149   4.655   0.015  0.00  0.00    -0.191 NA
ATOM      9  C8  <0> d           1.241  -2.118  -0.022  0.00  0.00     0.099 C 
ATOM     10  N2  <0> d           1.256  -3.254  -0.028  0.00  0.00    -0.191 NA
ATOM     11  H1  <0> d          -0.959   1.900   0.017  0.00  0.00     0.085 H 
ATOM     12  H2  <0> d          -0.926  -0.557   0.008  0.00  0.00     0.085 H 
ATOM     13  H3  <0> d           3.364  -0.498  -0.033  0.00  0.00     0.085 H 
ATOM     14  H4  <0> d           3.331   1.958  -0.019  0.00  0.00     0.085 H 
ENDROOT
TORSDOF 0
