REMARK  1 active torsions:
REMARK  status: ('A' for Active; 'I' for Inactive)
REMARK    1  A    between atoms: C6_9  and  N3_11 
ROOT
ATOM      1  C1  <0> d          -4.780   3.842   0.047  0.00  0.00    -0.038 A 
ATOM      2  C2  <0> d          -4.248   5.075   0.051  0.00  0.00    -0.020 A 
ATOM      3  N1  <0> d          -2.882   4.994   0.043  0.00  0.00    -0.364 N 
ATOM      4  H1  <0> d          -2.279   5.753   0.044  0.00  0.00     0.165 HD
ATOM      5  C3  <0> d          -2.493   3.674   0.034  0.00  0.00     0.063 A 
ATOM      6  C4  <0> d          -3.664   2.892   0.035  0.00  0.00     0.084 A 
ATOM      7  N2  <0> d          -3.590   1.564   0.028  0.00  0.00    -0.257 NA
ATOM      8  C5  <0> d          -2.432   0.941   0.019  0.00  0.00     0.028 A 
ATOM      9  C6  <0> d          -1.232   1.649   0.017  0.00  0.00     0.045 A 
ATOM     10  C7  <0> d          -1.256   3.038   0.030  0.00  0.00    -0.028 A 
ATOM     11  H2  <0> d          -5.831   3.596   0.051  0.00  0.00     0.089 H 
ATOM     12  H3  <0> d          -4.814   5.994   0.059  0.00  0.00     0.111 H 
ATOM     13  H4  <0> d          -2.410  -0.139   0.013  0.00  0.00     0.118 H 
ATOM     14  H5  <0> d          -0.340   3.608   0.034  0.00  0.00     0.090 H 
ENDROOT
BRANCH   9  15
ATOM     15  N3  <0> d          -0.011   0.966   0.007  0.00  0.00    -0.398 N 
ATOM     16  H6  <0> d           0.002  -0.004   0.002  0.00  0.00     0.156 HD
ATOM     17  H7  <0> d           0.822   1.462   0.002  0.00  0.00     0.156 HD
ENDBRANCH   9  15
TORSDOF 1
