REMARK  6 active torsions:
REMARK  status: ('A' for Active; 'I' for Inactive)
REMARK    1  A    between atoms: C1_1  and  C2_2 
REMARK    2  A    between atoms: C2_2  and  C3_4 
REMARK    3  A    between atoms: C2_2  and  O3_10 
REMARK       I    between atoms: C3_4  and  N1_6 
REMARK    4  A    between atoms: N1_6  and  C4_7 
REMARK    5  A    between atoms: C4_7  and  C5_8 
REMARK    6  A    between atoms: C5_8  and  O2_9 
ROOT
ATOM      1  C3  <0> d          -0.222   1.232   2.431  0.00  0.00     0.246 C 
ATOM      2  O1  <0> d           0.774   0.548   2.529  0.00  0.00    -0.271 OA
ATOM      3  N1  <0> d          -0.698   1.558   1.213  0.00  0.00    -0.357 N 
ATOM      4  H5  <0> d          -1.495   2.106   1.135  0.00  0.00     0.162 HD
ENDROOT
BRANCH   1   5
ATOM      5  C2  <0> d          -0.927   1.718   3.671  0.00  0.00     0.108 C 
ATOM      6  H1  <0> d          -1.021   2.804   3.634  0.00  0.00     0.097 H 
BRANCH   5   7
ATOM      7  C1  <0> d          -2.320   1.089   3.745  0.00  0.00    -0.044 C 
ATOM      8  H2  <0> d          -2.830   1.440   4.642  0.00  0.00     0.031 H 
ATOM      9  H3  <0> d          -2.895   1.374   2.865  0.00  0.00     0.031 H 
ATOM     10  H4  <0> d          -2.227   0.004   3.782  0.00  0.00     0.031 H 
ENDBRANCH   5   7
BRANCH   5  11
ATOM     11  O3  <0> d          -0.173   1.344   4.826  0.00  0.00    -0.387 OA
ATOM     12  H11 <0> d          -0.569   1.625   5.662  0.00  0.00     0.210 HD
ENDBRANCH   5  11
ENDBRANCH   1   5
BRANCH   3  13
ATOM     13  C4  <0> d          -0.013   1.086   0.008  0.00  0.00     0.015 C 
ATOM     14  H6  <0> d           0.002  -0.004   0.002  0.00  0.00     0.067 H 
ATOM     15  H7  <0> d           1.010   1.463   0.000  0.00  0.00     0.067 H 
BRANCH  13  16
ATOM     16  C5  <0> d          -0.753   1.593  -1.232  0.00  0.00     0.031 C 
ATOM     17  H8  <0> d          -0.296   1.169  -2.126  0.00  0.00     0.076 H 
ATOM     18  H9  <0> d          -1.798   1.290  -1.179  0.00  0.00     0.076 H 
BRANCH  16  19
ATOM     19  O2  <0> d          -0.672   3.018  -1.285  0.00  0.00    -0.399 OA
ATOM     20  H10 <0> d          -1.120   3.410  -2.047  0.00  0.00     0.209 HD
ENDBRANCH  16  19
ENDBRANCH  13  16
ENDBRANCH   3  13
TORSDOF 6
