REMARK  2 active torsions:
REMARK  status: ('A' for Active; 'I' for Inactive)
REMARK    1  A    between atoms: C4_5  and  C5_6 
REMARK    2  A    between atoms: C4_5  and  N1_10 
ROOT
ATOM      1  C1  <0> d          -0.019   1.549   0.011  0.00  0.00    -0.001 C 
ATOM      2  C2  <0> d           1.498   1.864  -0.002  0.00  0.00     0.022 C 
ATOM      3  O1  <0> d           2.100   0.843   0.810  0.00  0.00    -0.388 OA
ATOM      4  C3  <0> d           1.263  -0.319   0.835  0.00  0.00     0.061 C 
ATOM      5  C4  <0> d           0.002  -0.004   0.002  0.00  0.00     0.273 C 
ATOM      6  H1  <0> d          -0.492   1.930   0.916  0.00  0.00     0.040 H 
ATOM      7  H2  <0> d          -0.509   1.940  -0.881  0.00  0.00     0.040 H 
ATOM      8  H3  <0> d           1.886   1.815  -1.020  0.00  0.00     0.074 H 
ATOM      9  H4  <0> d           1.684   2.848   0.427  0.00  0.00     0.074 H 
ATOM     10  H5  <0> d           1.793  -1.165   0.398  0.00  0.00     0.078 H 
ATOM     11  H6  <0> d           0.980  -0.549   1.862  0.00  0.00     0.078 H 
ENDROOT
BRANCH   5  12
ATOM     12  C5  <0> d          -1.250  -0.569   0.675  0.00  0.00     0.424 C 
ATOM     13  F1  <0> d          -2.387  -0.131  -0.012  0.00  0.00    -0.168 F 
ATOM     14  F2  <0> d          -1.202  -1.967   0.651  0.00  0.00    -0.168 F 
ATOM     15  F3  <0> d          -1.307  -0.127   2.001  0.00  0.00    -0.168 F 
ENDBRANCH   5  12
BRANCH   5  16
ATOM     16  N1  <0> d           0.138  -0.517  -1.368  0.00  0.00     0.099 N 
ATOM     17  H7  <0> d           0.152  -1.526  -1.376  0.00  0.00     0.314 HD
ATOM     18  H8  <0> d          -0.595  -0.161  -1.962  0.00  0.00     0.314 HD
ENDBRANCH   5  16
TORSDOF 2
