REMARK  8 active torsions:
REMARK  status: ('A' for Active; 'I' for Inactive)
REMARK    1  A    between atoms: C1_1  and  C2_2 
REMARK    2  A    between atoms: C2_2  and  C3_3 
REMARK    3  A    between atoms: C3_3  and  C4_4 
REMARK    4  A    between atoms: C4_4  and  C5_5 
REMARK    5  A    between atoms: C5_5  and  C6_6 
REMARK    6  A    between atoms: C5_5  and  C7_7 
REMARK    7  A    between atoms: C5_5  and  O1_9 
REMARK    8  A    between atoms: C7_7  and  C8_8 
ROOT
ATOM      1  C5  <0> d           0.002  -0.004   0.002  0.00  0.00     0.054 C 
ENDROOT
BRANCH   1   2
ATOM      2  C4  <0> d           0.718  -0.497  -1.257  0.00  0.00    -0.037 C 
ATOM      3  H8  <0> d           0.733  -1.587  -1.263  0.00  0.00     0.037 H 
ATOM      4  H9  <0> d           0.191  -0.136  -2.140  0.00  0.00     0.037 H 
BRANCH   2   5
ATOM      5  C3  <0> d           2.154   0.032  -1.268  0.00  0.00    -0.063 C 
ATOM      6  H6  <0> d           2.139   1.122  -1.262  0.00  0.00     0.033 H 
ATOM      7  H7  <0> d           2.681  -0.329  -0.385  0.00  0.00     0.033 H 
BRANCH   5   8
ATOM      8  C2  <0> d           2.870  -0.461  -2.526  0.00  0.00    -0.068 C 
ATOM      9  H4  <0> d           2.885  -1.551  -2.532  0.00  0.00     0.032 H 
ATOM     10  H5  <0> d           2.343  -0.100  -3.409  0.00  0.00     0.032 H 
BRANCH   8  11
ATOM     11  C1  <0> d           4.305   0.068  -2.537  0.00  0.00    -0.077 C 
ATOM     12  H1  <0> d           4.815  -0.283  -3.434  0.00  0.00     0.027 H 
ATOM     13  H2  <0> d           4.290   1.158  -2.531  0.00  0.00     0.027 H 
ATOM     14  H3  <0> d           4.832  -0.293  -1.654  0.00  0.00     0.027 H 
ENDBRANCH   8  11
ENDBRANCH   5   8
ENDBRANCH   2   5
ENDBRANCH   1   2
BRANCH   1  15
ATOM     15  C6  <0> d          -0.019   1.526   0.010  0.00  0.00    -0.048 C 
ATOM     16  H10 <0> d           1.004   1.903   0.003  0.00  0.00     0.031 H 
ATOM     17  H11 <0> d          -0.546   1.887  -0.873  0.00  0.00     0.031 H 
ATOM     18  H12 <0> d          -0.529   1.877   0.907  0.00  0.00     0.031 H 
ENDBRANCH   1  15
BRANCH   1  19
ATOM     19  C7  <0> d          -1.433  -0.534   0.013  0.00  0.00    -0.040 C 
ATOM     20  H13 <0> d          -1.933  -0.247  -0.912  0.00  0.00     0.036 H 
ATOM     21  H14 <0> d          -1.419  -1.620   0.097  0.00  0.00     0.036 H 
BRANCH  19  22
ATOM     22  C8  <0> d          -2.187   0.060   1.205  0.00  0.00    -0.074 C 
ATOM     23  H15 <0> d          -3.209  -0.318   1.213  0.00  0.00     0.027 H 
ATOM     24  H16 <0> d          -1.687  -0.227   2.130  0.00  0.00     0.027 H 
ATOM     25  H17 <0> d          -2.201   1.146   1.121  0.00  0.00     0.027 H 
ENDBRANCH  19  22
ENDBRANCH   1  19
BRANCH   1  26
ATOM     26  O1  <0> d           0.693  -0.477   1.160  0.00  0.00    -0.390 OA
ATOM     27  H18 <0> d           0.745  -1.441   1.220  0.00  0.00     0.210 HD
ENDBRANCH   1  26
TORSDOF 8
