REMARK  8 active torsions:
REMARK  status: ('A' for Active; 'I' for Inactive)
REMARK    1  A    between atoms: C1_1  and  C2_2 
REMARK    2  A    between atoms: C2_2  and  C3_3 
REMARK    3  A    between atoms: C2_2  and  C4_4 
REMARK    4  A    between atoms: C4_4  and  C5_5 
REMARK    5  A    between atoms: C5_5  and  C6_6 
REMARK    6  A    between atoms: C5_5  and  C7_7 
REMARK    7  A    between atoms: C5_5  and  O2_10 
REMARK    8  A    between atoms: C7_7  and  C8_9 
ROOT
ATOM      1  C4  <0> d          -0.806   1.885   1.048  0.00  0.00    -0.027 C 
ATOM      2  H8  <0> d          -0.879   2.946   0.806  0.00  0.00     0.038 H 
ATOM      3  H9  <0> d          -1.804   1.446   1.059  0.00  0.00     0.038 H 
ENDROOT
BRANCH   1   4
ATOM      4  C2  <0> d           0.049   1.180  -0.006  0.00  0.00    -0.058 C 
ATOM      5  H4  <0> d           0.210   0.143   0.291  0.00  0.00     0.039 H 
BRANCH   4   6
ATOM      6  C1  <0> d           1.398   1.891  -0.128  0.00  0.00    -0.073 C 
ATOM      7  H1  <0> d           1.979   1.726   0.780  0.00  0.00     0.028 H 
ATOM      8  H2  <0> d           1.943   1.494  -0.984  0.00  0.00     0.028 H 
ATOM      9  H3  <0> d           1.234   2.960  -0.265  0.00  0.00     0.028 H 
ENDBRANCH   4   6
BRANCH   4  10
ATOM     10  C3  <0> d          -0.670   1.217  -1.356  0.00  0.00    -0.073 C 
ATOM     11  H5  <0> d          -0.060   0.715  -2.107  0.00  0.00     0.028 H 
ATOM     12  H6  <0> d          -1.631   0.711  -1.270  0.00  0.00     0.028 H 
ATOM     13  H7  <0> d          -0.831   2.254  -1.653  0.00  0.00     0.028 H 
ENDBRANCH   4  10
ENDBRANCH   1   4
BRANCH   1  14
ATOM     14  C5  <0> d          -0.160   1.719   2.424  0.00  0.00     0.114 C 
BRANCH  14  15
ATOM     15  C6  <0> d           0.068   0.232   2.704  0.00  0.00    -0.041 C 
ATOM     16  H10 <0> d           0.725  -0.185   1.941  0.00  0.00     0.032 H 
ATOM     17  H11 <0> d           0.528   0.113   3.685  0.00  0.00     0.032 H 
ATOM     18  H12 <0> d          -0.888  -0.292   2.686  0.00  0.00     0.032 H 
ENDBRANCH  14  15
BRANCH  14  19
ATOM     19  C7  <0> d          -1.069   2.295   3.479  0.00  0.00     0.156 C 
ATOM     20  O1  <0> d          -2.266   2.288   3.315  0.00  0.00    -0.295 OA
BRANCH  19  21
ATOM     21  C8  <0> d          -0.485   2.880   4.739  0.00  0.00    -0.018 C 
ATOM     22  H13 <0> d           0.511   2.805   4.711  0.00  0.00     0.037 H 
ATOM     23  H14 <0> d          -0.768   3.930   4.817  0.00  0.00     0.037 H 
ATOM     24  H15 <0> d          -0.867   2.336   5.603  0.00  0.00     0.037 H 
ENDBRANCH  19  21
ENDBRANCH  14  19
BRANCH  14  25
ATOM     25  O2  <0> d           1.093   2.405   2.449  0.00  0.00    -0.382 OA
ATOM     26  H16 <0> d           1.024   3.355   2.279  0.00  0.00     0.211 HD
ENDBRANCH  14  25
ENDBRANCH   1  14
TORSDOF 8
