REMARK  2 active torsions:
REMARK  status: ('A' for Active; 'I' for Inactive)
REMARK    1  A    between atoms: C1_1  and  C2_2 
REMARK    2  A    between atoms: C3_3  and  C6_9 
ROOT
ATOM      1  C2  <0> d           0.002  -0.004   0.002  0.00  0.00     0.054 A 
ATOM      2  C3  <0> d           0.006  -0.689  -1.200  0.00  0.00     0.056 A 
ATOM      3  N1  <0> d           0.024  -2.010  -1.208  0.00  0.00    -0.238 NA
ATOM      4  C4  <0> d           0.038  -2.678  -0.067  0.00  0.00     0.143 A 
ATOM      5  C5  <0> d           0.035  -1.992   1.136  0.00  0.00     0.042 A 
ATOM      6  N2  <0> d           0.022  -0.670   1.143  0.00  0.00    -0.261 NA
ATOM      7 Cl1  <0> d           0.061  -4.414  -0.076  0.00  0.00    -0.061 Cl
ATOM      8  H4  <0> d           0.047  -2.536   2.069  0.00  0.00     0.119 H 
ENDROOT
BRANCH   1   9
ATOM      9  C1  <0> d          -0.018   1.503   0.010  0.00  0.00    -0.034 C 
ATOM     10  H1  <0> d           1.004   1.880   0.003  0.00  0.00     0.035 H 
ATOM     11  H2  <0> d          -0.545   1.864  -0.873  0.00  0.00     0.035 H 
ATOM     12  H3  <0> d          -0.529   1.854   0.907  0.00  0.00     0.035 H 
ENDBRANCH   1   9
BRANCH   2  13
ATOM     13  C6  <0> d          -0.011   0.072  -2.501  0.00  0.00    -0.034 C 
ATOM     14  H5  <0> d           1.012   0.270  -2.819  0.00  0.00     0.035 H 
ATOM     15  H6  <0> d          -0.520  -0.519  -3.261  0.00  0.00     0.035 H 
ATOM     16  H7  <0> d          -0.537   1.017  -2.362  0.00  0.00     0.035 H 
ENDBRANCH   2  13
TORSDOF 2
