REMARK  4 active torsions:
REMARK  status: ('A' for Active; 'I' for Inactive)
REMARK    1  A    between atoms: C1_1  and  C2_2 
REMARK    2  A    between atoms: C2_2  and  C3_3 
REMARK    3  A    between atoms: C3_3  and  C4_5 
REMARK    4  A    between atoms: C3_3  and  O1_12 
ROOT
ATOM      1  C4  <0> d          -1.560   3.594   2.450  0.00  0.00    -0.027 A 
ATOM      2  C5  <0> d          -0.968   3.722   3.692  0.00  0.00    -0.074 A 
ATOM      3  C6  <0> d          -1.709   4.171   4.769  0.00  0.00    -0.080 A 
ATOM      4  C7  <0> d          -3.046   4.483   4.607  0.00  0.00    -0.046 A 
ATOM      5  C8  <0> d          -3.641   4.351   3.364  0.00  0.00     0.117 A 
ATOM      6  C9  <0> d          -2.896   3.905   2.285  0.00  0.00    -0.037 A 
ATOM      7  F1  <0> d          -4.947   4.655   3.205  0.00  0.00    -0.206 F 
ATOM      8  H7  <0> d           0.075   3.474   3.821  0.00  0.00     0.084 H 
ATOM      9  H8  <0> d          -1.244   4.274   5.739  0.00  0.00     0.083 H 
ATOM     10  H9  <0> d          -3.626   4.830   5.450  0.00  0.00     0.088 H 
ATOM     11  H10 <0> d          -3.360   3.801   1.315  0.00  0.00     0.089 H 
ENDROOT
BRANCH   1  12
ATOM     12  C3  <0> d          -0.750   3.109   1.275  0.00  0.00     0.060 C 
ATOM     13  H1  <0> d          -1.198   3.471   0.350  0.00  0.00     0.090 H 
BRANCH  12  14
ATOM     14  C2  <0> d          -0.729   1.579   1.267  0.00  0.00    -0.041 C 
ATOM     15  H5  <0> d          -1.751   1.202   1.275  0.00  0.00     0.036 H 
ATOM     16  H6  <0> d          -0.202   1.218   2.150  0.00  0.00     0.036 H 
BRANCH  14  17
ATOM     17  C1  <0> d          -0.013   1.086   0.008  0.00  0.00    -0.074 C 
ATOM     18  H2  <0> d           0.002  -0.004   0.002  0.00  0.00     0.027 H 
ATOM     19  H3  <0> d           1.010   1.463   0.000  0.00  0.00     0.027 H 
ATOM     20  H4  <0> d          -0.540   1.447  -0.875  0.00  0.00     0.027 H 
ENDBRANCH  14  17
ENDBRANCH  12  14
BRANCH  12  21
ATOM     21  O1  <0> d           0.587   3.603   1.383  0.00  0.00    -0.391 OA
ATOM     22  H11 <0> d           1.048   3.320   2.184  0.00  0.00     0.210 HD
ENDBRANCH  12  21
ENDBRANCH   1  12
TORSDOF 4
