REMARK  6 active torsions:
REMARK  status: ('A' for Active; 'I' for Inactive)
REMARK    1  A    between atoms: C1_1  and  C2_2 
REMARK    2  A    between atoms: C2_2  and  C3_3 
REMARK    3  A    between atoms: C3_3  and  C4_4 
REMARK    4  A    between atoms: C4_4  and  C5_6 
REMARK    5  A    between atoms: C4_4  and  N1_8 
REMARK       I    between atoms: N1_8  and  C6_9 
REMARK    6  A    between atoms: C6_9  and  C7_11 
ROOT
ATOM      1  C4  <0> d          -1.329   1.940   0.019  0.00  0.00     0.096 C 
ATOM      2  H1  <0> d          -1.391   2.561   0.913  0.00  0.00     0.089 H 
ENDROOT
BRANCH   1   3
ATOM      3  C3  <0> d          -1.428   2.825  -1.225  0.00  0.00    -0.037 C 
ATOM      4  H7  <0> d          -0.562   3.485  -1.272  0.00  0.00     0.036 H 
ATOM      5  H8  <0> d          -1.456   2.198  -2.116  0.00  0.00     0.036 H 
BRANCH   3   6
ATOM      6  C2  <0> d          -2.705   3.665  -1.153  0.00  0.00    -0.066 C 
ATOM      7  H5  <0> d          -3.572   3.005  -1.107  0.00  0.00     0.032 H 
ATOM      8  H6  <0> d          -2.678   4.292  -0.262  0.00  0.00     0.032 H 
BRANCH   6   9
ATOM      9  C1  <0> d          -2.804   4.550  -2.397  0.00  0.00    -0.076 C 
ATOM     10  H2  <0> d          -2.832   3.923  -3.288  0.00  0.00     0.027 H 
ATOM     11  H3  <0> d          -3.714   5.148  -2.346  0.00  0.00     0.027 H 
ATOM     12  H4  <0> d          -1.938   5.210  -2.444  0.00  0.00     0.027 H 
ENDBRANCH   6   9
ENDBRANCH   3   6
ENDBRANCH   1   3
BRANCH   1  13
ATOM     13  C5  <0> d          -0.014   1.204   0.009  0.00  0.00     0.196 C 
ATOM     14  O1  <0> d           0.002  -0.004   0.002  0.00  0.00    -0.646 OA
ATOM     15  O3  <0> d           1.139   1.891   0.001  0.00  0.00    -0.646 OA
ENDBRANCH   1  13
BRANCH   1  16
ATOM     16  N1  <0> d          -2.430   0.973   0.019  0.00  0.00    -0.347 N 
ATOM     17  C6  <0> d          -2.864   0.445   1.181  0.00  0.00     0.214 C 
ATOM     18  O2  <0> d          -2.343   0.771   2.227  0.00  0.00    -0.274 OA
ATOM     19  H9  <0> d          -2.847   0.712  -0.817  0.00  0.00     0.163 HD
BRANCH  17  20
ATOM     20  C7  <0> d          -3.996  -0.550   1.181  0.00  0.00    -0.003 C 
ATOM     21  H10 <0> d          -3.716  -1.419   0.585  0.00  0.00     0.040 H 
ATOM     22  H11 <0> d          -4.205  -0.862   2.204  0.00  0.00     0.040 H 
ATOM     23  H12 <0> d          -4.885  -0.087   0.753  0.00  0.00     0.040 H 
ENDBRANCH  17  20
ENDBRANCH   1  16
TORSDOF 6
