REMARK  6 active torsions:
REMARK  status: ('A' for Active; 'I' for Inactive)
REMARK    1  A    between atoms: C1_1  and  C2_2 
REMARK    2  A    between atoms: C2_2  and  C3_3 
REMARK    3  A    between atoms: C3_3  and  C4_4 
REMARK    4  A    between atoms: C3_3  and  C5_5 
REMARK    5  A    between atoms: C3_3  and  C6_6 
REMARK    6  A    between atoms: C6_6  and  O1_7 
ROOT
ATOM      1  C3  <0> d           1.145   3.085   0.008  0.00  0.00    -0.027 C 
ENDROOT
BRANCH   1   2
ATOM      2  C2  <0> d           2.534   3.726  -0.002  0.00  0.00    -0.060 C 
ATOM      3  H4  <0> d           3.088   3.407   0.881  0.00  0.00     0.033 H 
ATOM      4  H5  <0> d           3.071   3.417  -0.899  0.00  0.00     0.033 H 
BRANCH   2   5
ATOM      5  C1  <0> d           2.393   5.250   0.007  0.00  0.00    -0.076 C 
ATOM      6  H1  <0> d           1.839   5.569  -0.876  0.00  0.00     0.027 H 
ATOM      7  H2  <0> d           1.856   5.559   0.904  0.00  0.00     0.027 H 
ATOM      8  H3  <0> d           3.382   5.707   0.000  0.00  0.00     0.027 H 
ENDBRANCH   2   5
ENDBRANCH   1   2
BRANCH   1   9
ATOM      9  C4  <0> d           0.368   3.533  -1.232  0.00  0.00    -0.067 C 
ATOM     10  H6  <0> d          -0.622   3.076  -1.225  0.00  0.00     0.028 H 
ATOM     11  H7  <0> d           0.267   4.618  -1.225  0.00  0.00     0.028 H 
ATOM     12  H8  <0> d           0.904   3.224  -2.129  0.00  0.00     0.028 H 
ENDBRANCH   1   9
BRANCH   1  13
ATOM     13  C5  <0> d           0.392   3.519   1.266  0.00  0.00    -0.067 C 
ATOM     14  H9  <0> d           0.945   3.200   2.150  0.00  0.00     0.028 H 
ATOM     15  H10 <0> d           0.291   4.605   1.273  0.00  0.00     0.028 H 
ATOM     16  H11 <0> d          -0.598   3.063   1.274  0.00  0.00     0.028 H 
ENDBRANCH   1  13
BRANCH   1  17
ATOM     17  C6  <0> d           1.286   1.562  -0.002  0.00  0.00     0.023 C 
ATOM     18  H12 <0> d           1.840   1.243   0.881  0.00  0.00     0.075 H 
ATOM     19  H13 <0> d           1.823   1.252  -0.899  0.00  0.00     0.075 H 
BRANCH  17  20
ATOM     20  O1  <0> d          -0.011   0.963   0.007  0.00  0.00    -0.400 OA
ATOM     21  H14 <0> d           0.002  -0.004   0.002  0.00  0.00     0.209 HD
ENDBRANCH  17  20
ENDBRANCH   1  17
TORSDOF 6
