REMARK  6 active torsions:
REMARK  status: ('A' for Active; 'I' for Inactive)
REMARK    1  A    between atoms: C1_1  and  C2_2 
REMARK    2  A    between atoms: C2_2  and  O2_4 
REMARK    3  A    between atoms: O2_4  and  C3_5 
REMARK    4  A    between atoms: C3_5  and  O3_6 
REMARK    5  A    between atoms: O3_6  and  C4_7 
REMARK    6  A    between atoms: C4_7  and  C5_9 
ROOT
ATOM      1  C3  <0> d           2.367   1.117  -0.015  0.00  0.00     0.120 C 
ATOM      2  H4  <0> d           3.206   1.761   0.247  0.00  0.00     0.119 H 
ATOM      3  H5  <0> d           2.294   0.304   0.709  0.00  0.00     0.119 H 
ENDROOT
BRANCH   1   4
ATOM      4  O2  <0> d           1.139   1.891   0.001  0.00  0.00    -0.295 OA
BRANCH   4   5
ATOM      5  C2  <0> d          -0.014   1.204   0.009  0.00  0.00     0.256 C 
ATOM      6  O1  <0> d           0.002  -0.004   0.002  0.00  0.00    -0.266 OA
BRANCH   5   7
ATOM      7  C1  <0> d          -1.329   1.940   0.019  0.00  0.00     0.004 C 
ATOM      8  H1  <0> d          -1.642   2.111   1.049  0.00  0.00     0.041 H 
ATOM      9  H2  <0> d          -1.214   2.897  -0.490  0.00  0.00     0.041 H 
ATOM     10  H3  <0> d          -2.083   1.343  -0.495  0.00  0.00     0.041 H 
ENDBRANCH   5   7
ENDBRANCH   4   5
ENDBRANCH   1   4
BRANCH   1  11
ATOM     11  O3  <0> d           2.575   0.566  -1.342  0.00  0.00    -0.295 OA
BRANCH  11  12
ATOM     12  C4  <0> d           2.992   1.414  -2.295  0.00  0.00     0.256 C 
ATOM     13  O4  <0> d           3.178   2.578  -2.029  0.00  0.00    -0.266 OA
BRANCH  12  14
ATOM     14  C5  <0> d           3.230   0.914  -3.697  0.00  0.00     0.004 C 
ATOM     15  H6  <0> d           3.011  -0.152  -3.744  0.00  0.00     0.041 H 
ATOM     16  H7  <0> d           2.579   1.450  -4.388  0.00  0.00     0.041 H 
ATOM     17  H8  <0> d           4.270   1.085  -3.972  0.00  0.00     0.041 H 
ENDBRANCH  12  14
ENDBRANCH  11  12
ENDBRANCH   1  11
TORSDOF 6
