REMARK  3 active torsions:
REMARK  status: ('A' for Active; 'I' for Inactive)
REMARK    1  A    between atoms: C1_1  and  C2_2 
REMARK    2  A    between atoms: C4_5  and  C5_7 
REMARK    3  A    between atoms: C5_7  and  C6_8 
REMARK       I    between atoms: C6_8  and  N1_10 
ROOT
ATOM      1  C2  <0> d           0.002  -0.004   0.002  0.00  0.00    -0.053 A 
ATOM      2  H1  <0> d          -0.882  -0.484  -0.417  0.00  0.00     0.040 H 
ATOM      3  C3  <0> d           1.351  -0.691  -0.221  0.00  0.00    -0.058 A 
ATOM      4  C4  <0> d           0.703  -0.708   1.166  0.00  0.00    -0.043 A 
ATOM      5  H2  <0> d           0.280  -1.650   1.512  0.00  0.00     0.041 H 
ATOM      6  H6  <0> d           1.354  -1.623  -0.786  0.00  0.00     0.034 H 
ATOM      7  H7  <0> d           2.223  -0.053  -0.362  0.00  0.00     0.034 H 
ENDROOT
BRANCH   4   8
ATOM      8  C5  <0> d           1.330   0.173   2.249  0.00  0.00     0.013 C 
ATOM      9  H8  <0> d           2.148   0.750   1.819  0.00  0.00     0.047 H 
ATOM     10  H9  <0> d           0.576   0.852   2.647  0.00  0.00     0.047 H 
BRANCH   8  11
ATOM     11  C6  <0> d           1.858  -0.698   3.360  0.00  0.00     0.215 C 
ATOM     12  O1  <0> d           1.745  -1.903   3.292  0.00  0.00    -0.274 OA
ATOM     13  N1  <0> d           2.457  -0.136   4.429  0.00  0.00    -0.370 N 
ATOM     14  H10 <0> d           2.548   0.828   4.484  0.00  0.00     0.159 HD
ATOM     15  H11 <0> d           2.797  -0.696   5.144  0.00  0.00     0.159 HD
ENDBRANCH   8  11
ENDBRANCH   4   8
BRANCH   1  16
ATOM     16  C1  <0> d          -0.019   1.526   0.010  0.00  0.00    -0.072 C 
ATOM     17  H3  <0> d           1.004   1.903   0.003  0.00  0.00     0.028 H 
ATOM     18  H4  <0> d          -0.546   1.887  -0.873  0.00  0.00     0.028 H 
ATOM     19  H5  <0> d          -0.529   1.877   0.907  0.00  0.00     0.028 H 
ENDBRANCH   1  16
TORSDOF 3
