REMARK  4 active torsions:
REMARK  status: ('A' for Active; 'I' for Inactive)
REMARK    1  A    between atoms: C1_1  and  C2_2 
REMARK    2  A    between atoms: C2_2  and  C3_4 
REMARK    3  A    between atoms: C2_2  and  N1_6 
REMARK    4  A    between atoms: C5_8  and  N3_11 
ROOT
ATOM      1  N1  <0> d           0.002  -0.004   0.002  0.00  0.00    -0.264 N 
ATOM      2  C4  <0> d          -0.016   1.355   0.009  0.00  0.00     0.026 A 
ATOM      3  C5  <0> d           1.272   1.782  -0.001  0.00  0.00     0.062 A 
ATOM      4  C6  <0> d           2.100   0.651  -0.015  0.00  0.00     0.048 A 
ATOM      5  N2  <0> d           1.341  -0.415  -0.013  0.00  0.00    -0.182 NA
ATOM      6  H5  <0> d          -0.896   1.982   0.017  0.00  0.00     0.117 H 
ATOM      7  H6  <0> d           3.180   0.658  -0.024  0.00  0.00     0.121 H 
ENDROOT
BRANCH   1   8
ATOM      8  C2  <0> d          -1.170  -0.883   0.008  0.00  0.00     0.114 C 
ATOM      9  H1  <0> d          -0.898  -1.848   0.435  0.00  0.00     0.092 H 
BRANCH   8  10
ATOM     10  C1  <0> d          -1.667  -1.080  -1.425  0.00  0.00    -0.046 C 
ATOM     11  H2  <0> d          -0.877  -1.533  -2.025  0.00  0.00     0.031 H 
ATOM     12  H3  <0> d          -2.539  -1.734  -1.421  0.00  0.00     0.031 H 
ATOM     13  H4  <0> d          -1.939  -0.115  -1.852  0.00  0.00     0.031 H 
ENDBRANCH   8  10
BRANCH   8  14
ATOM     14  C3  <0> d          -2.263  -0.257   0.836  0.00  0.00     0.198 C 
ATOM     15  O1  <0> d          -2.081   0.813   1.367  0.00  0.00    -0.646 OA
ATOM     16  O2  <0> d          -3.438  -0.888   0.985  0.00  0.00    -0.646 OA
ENDBRANCH   8  14
ENDBRANCH   1   8
BRANCH   3  17
ATOM     17  N3  <0> d           1.701   3.123   0.002  0.00  0.00    -0.397 N 
ATOM     18  H7  <0> d           1.048   3.841   0.012  0.00  0.00     0.156 HD
ATOM     19  H8  <0> d           2.649   3.329  -0.006  0.00  0.00     0.156 HD
ENDBRANCH   3  17
TORSDOF 4
