REMARK  1 active torsions:
REMARK  status: ('A' for Active; 'I' for Inactive)
REMARK    1  A    between atoms: C3_3  and  C5_6 
REMARK       I    between atoms: C5_6  and  N1_8 
ROOT
ATOM      1  C1  <0> d          -0.016   1.352   0.009  0.00  0.00    -0.075 A 
ATOM      2  C2  <0> d           1.175   2.036   0.002  0.00  0.00    -0.060 A 
ATOM      3  C3  <0> d           2.320   1.253  -0.013  0.00  0.00     0.072 A 
ATOM      4  S1  <0> d           1.636  -0.394  -0.016  0.00  0.00    -0.097 SA
ATOM      5  C4  <0> d           0.002  -0.004   0.002  0.00  0.00    -0.044 A 
ATOM      6  H1  <0> d          -0.955   1.886   0.026  0.00  0.00     0.084 H 
ATOM      7  H2  <0> d           1.218   3.115   0.007  0.00  0.00     0.085 H 
ATOM      8  H3  <0> d          -0.841  -0.679   0.007  0.00  0.00     0.095 H 
ENDROOT
BRANCH   3   9
ATOM      9  C5  <0> d           3.725   1.670  -0.025  0.00  0.00     0.256 C 
ATOM     10  O1  <0> d           4.008   2.853  -0.021  0.00  0.00    -0.267 OA
ATOM     11  N1  <0> d           4.703   0.743  -0.039  0.00  0.00    -0.366 N 
ATOM     12  H4  <0> d           4.477  -0.201  -0.042  0.00  0.00     0.159 HD
ATOM     13  H5  <0> d           5.633   1.019  -0.046  0.00  0.00     0.159 HD
ENDBRANCH   3   9
TORSDOF 1
