REMARK  0 active torsions:
REMARK  status: ('A' for Active; 'I' for Inactive)
ROOT
ATOM      1  C1  <0> d          -0.017   1.392   0.010  0.00  0.00    -0.043 A 
ATOM      2  C2  <0> d           1.184   2.076   0.002  0.00  0.00    -0.053 A 
ATOM      3  C3  <0> d           2.369   1.341  -0.012  0.00  0.00     0.053 A 
ATOM      4  C4  <0> d           2.317  -0.049  -0.016  0.00  0.00     0.062 A 
ATOM      5  N1  <0> d           1.151  -0.668  -0.011  0.00  0.00    -0.240 NA
ATOM      6  C5  <0> d           0.002  -0.004   0.002  0.00  0.00     0.137 A 
ATOM      7  C6  <0> d          -1.233  -0.728   0.008  0.00  0.00     0.119 C 
ATOM      8  N2  <0> d          -2.213  -1.303   0.013  0.00  0.00    -0.190 NA
ATOM      9  C7  <0> d           3.576  -0.878  -0.020  0.00  0.00    -0.021 C 
ATOM     10  C8  <0> d           4.757  -0.052  -0.527  0.00  0.00    -0.045 C 
ATOM     11  C9  <0> d           4.819   1.263   0.260  0.00  0.00    -0.007 C 
ATOM     12  N3  <0> d           3.589   2.015  -0.025  0.00  0.00    -0.388 N 
ATOM     13  H1  <0> d          -0.954   1.928   0.026  0.00  0.00     0.088 H 
ATOM     14  H2  <0> d           1.204   3.156   0.006  0.00  0.00     0.087 H 
ATOM     15  H3  <0> d           3.784  -1.221   0.994  0.00  0.00     0.042 H 
ATOM     16  H4  <0> d           3.436  -1.743  -0.668  0.00  0.00     0.042 H 
ATOM     17  H5  <0> d           5.682  -0.610  -0.380  0.00  0.00     0.035 H 
ATOM     18  H6  <0> d           4.624   0.163  -1.587  0.00  0.00     0.035 H 
ATOM     19  H7  <0> d           4.884   1.052   1.327  0.00  0.00     0.064 H 
ATOM     20  H8  <0> d           5.687   1.842  -0.056  0.00  0.00     0.064 H 
ATOM     21  H9  <0> d           3.625   2.964  -0.218  0.00  0.00     0.159 HD
ENDROOT
TORSDOF 0
