REMARK  0 active torsions:
REMARK  status: ('A' for Active; 'I' for Inactive)
ROOT
ATOM      1  C1  <0> d          -0.016   1.360   0.009  0.00  0.00    -0.013 A 
ATOM      2  C2  <0> d           1.164   1.986   0.002  0.00  0.00    -0.025 A 
ATOM      3  S1  <0> d           2.305   0.616  -0.017  0.00  0.00    -0.040 SA
ATOM      4  C3  <0> d           1.190  -0.643  -0.013  0.00  0.00     0.287 A 
ATOM      5  O1  <0> d           1.404  -1.842  -0.021  0.00  0.00    -0.260 OA
ATOM      6  N1  <0> d           0.002  -0.004   0.002  0.00  0.00    -0.327 N 
ATOM      7  H1  <0> d          -0.827  -0.507   0.008  0.00  0.00     0.169 HD
ATOM      8  H2  <0> d          -0.946   1.910   0.026  0.00  0.00     0.112 H 
ATOM      9  H3  <0> d           1.372   3.046   0.005  0.00  0.00     0.097 H 
ENDROOT
TORSDOF 0
