REMARK  5 active torsions:
REMARK  status: ('A' for Active; 'I' for Inactive)
REMARK    1  A    between atoms: C1_1  and  C2_2 
REMARK    2  A    between atoms: C2_2  and  O1_3 
REMARK    3  A    between atoms: O1_3  and  C3_4 
REMARK    4  A    between atoms: C3_4  and  C4_6 
REMARK    5  A    between atoms: C6_9  and  C7_11 
ROOT
ATOM      1  C4  <0> d           0.106  -0.034  -0.011  0.00  0.00     0.044 A 
ATOM      2  H1  <0> d          -0.165  -0.564   0.903  0.00  0.00     0.057 H 
ATOM      3  C5  <0> d          -0.022   1.491  -0.007  0.00  0.00    -0.039 A 
ATOM      4  C6  <0> d           1.361   0.840   0.025  0.00  0.00     0.043 A 
ATOM      5  H2  <0> d           1.917   0.884   0.961  0.00  0.00     0.058 H 
ATOM      6  H8  <0> d          -0.331   1.972  -0.935  0.00  0.00     0.035 H 
ATOM      7  H9  <0> d          -0.377   1.964   0.909  0.00  0.00     0.035 H 
ENDROOT
BRANCH   1   8
ATOM      8  C3  <0> d          -0.205  -0.755  -1.297  0.00  0.00     0.263 C 
ATOM      9  O2  <0> d           0.484  -0.574  -2.272  0.00  0.00    -0.265 OA
BRANCH   8  10
ATOM     10  O1  <0> d          -1.248  -1.598  -1.359  0.00  0.00    -0.322 OA
BRANCH  10  11
ATOM     11  C2  <0> d          -1.488  -2.258  -2.630  0.00  0.00     0.025 C 
ATOM     12  H6  <0> d          -1.671  -1.508  -3.399  0.00  0.00     0.074 H 
ATOM     13  H7  <0> d          -0.615  -2.851  -2.901  0.00  0.00     0.074 H 
BRANCH  11  14
ATOM     14  C1  <0> d          -2.708  -3.172  -2.507  0.00  0.00    -0.056 C 
ATOM     15  H3  <0> d          -2.525  -3.922  -1.737  0.00  0.00     0.030 H 
ATOM     16  H4  <0> d          -3.581  -2.579  -2.235  0.00  0.00     0.030 H 
ATOM     17  H5  <0> d          -2.888  -3.668  -3.461  0.00  0.00     0.030 H 
ENDBRANCH  11  14
ENDBRANCH  10  11
ENDBRANCH   8  10
ENDBRANCH   1   8
BRANCH   4  18
ATOM     18  C7  <0> d           2.194   0.913  -1.230  0.00  0.00     0.177 C 
ATOM     19  O3  <0> d           1.825   1.589  -2.161  0.00  0.00    -0.648 OA
ATOM     20  O4  <0> d           3.344   0.226  -1.313  0.00  0.00    -0.648 OA
ENDBRANCH   4  18
TORSDOF 5
