REMARK  9 active torsions:
REMARK  status: ('A' for Active; 'I' for Inactive)
REMARK    1  A    between atoms: C1_1  and  C2_2 
REMARK    2  A    between atoms: C2_2  and  C3_3 
REMARK    3  A    between atoms: C3_3  and  C4_4 
REMARK    4  A    between atoms: C3_3  and  C6_6 
REMARK    5  A    between atoms: C4_4  and  C5_5 
REMARK    6  A    between atoms: C6_6  and  O1_7 
REMARK    7  A    between atoms: O1_7  and  C7_8 
REMARK    8  A    between atoms: C7_8  and  C8_9 
REMARK    9  A    between atoms: C8_9  and  O2_10 
ROOT
ATOM      1  C3  <0> d          -0.319   5.247   3.028  0.00  0.00    -0.034 C 
ATOM      2  H6  <0> d           0.009   4.800   3.967  0.00  0.00     0.043 H 
ENDROOT
BRANCH   1   3
ATOM      3  C2  <0> d          -0.324   6.771   3.163  0.00  0.00    -0.063 C 
ATOM      4  H4  <0> d           0.696   7.126   3.311  0.00  0.00     0.033 H 
ATOM      5  H5  <0> d          -0.735   7.215   2.256  0.00  0.00     0.033 H 
BRANCH   3   6
ATOM      6  C1  <0> d          -1.183   7.174   4.363  0.00  0.00    -0.076 C 
ATOM      7  H1  <0> d          -1.187   8.260   4.459  0.00  0.00     0.027 H 
ATOM      8  H2  <0> d          -2.203   6.819   4.215  0.00  0.00     0.027 H 
ATOM      9  H3  <0> d          -0.772   6.730   5.270  0.00  0.00     0.027 H 
ENDBRANCH   3   6
ENDBRANCH   1   3
BRANCH   1  10
ATOM     10  C4  <0> d          -1.731   4.760   2.696  0.00  0.00    -0.063 C 
ATOM     11  H7  <0> d          -2.432   5.148   3.435  0.00  0.00     0.033 H 
ATOM     12  H8  <0> d          -2.014   5.114   1.705  0.00  0.00     0.033 H 
BRANCH  10  13
ATOM     13  C5  <0> d          -1.761   3.230   2.719  0.00  0.00    -0.076 C 
ATOM     14  H9  <0> d          -1.175   2.843   1.885  0.00  0.00     0.027 H 
ATOM     15  H10 <0> d          -1.338   2.873   3.658  0.00  0.00     0.027 H 
ATOM     16  H11 <0> d          -2.791   2.886   2.630  0.00  0.00     0.027 H 
ENDBRANCH  10  13
ENDBRANCH   1  10
BRANCH   1  17
ATOM     17  C6  <0> d           0.639   4.838   1.907  0.00  0.00     0.023 C 
ATOM     18  H12 <0> d           1.618   5.281   2.086  0.00  0.00     0.074 H 
ATOM     19  H13 <0> d           0.250   5.188   0.951  0.00  0.00     0.074 H 
BRANCH  17  20
ATOM     20  O1  <0> d           0.759   3.414   1.879  0.00  0.00    -0.389 OA
BRANCH  20  21
ATOM     21  C7  <0> d           1.635   2.924   0.863  0.00  0.00     0.039 C 
ATOM     22  H14 <0> d           2.635   3.328   1.019  0.00  0.00     0.077 H 
ATOM     23  H15 <0> d           1.267   3.235  -0.115  0.00  0.00     0.077 H 
BRANCH  21  24
ATOM     24  C8  <0> d           1.687   1.396   0.926  0.00  0.00     0.036 C 
ATOM     25  H16 <0> d           1.969   1.084   1.931  0.00  0.00     0.077 H 
ATOM     26  H17 <0> d           2.421   1.027   0.211  0.00  0.00     0.077 H 
BRANCH  24  27
ATOM     27  O2  <0> d           0.400   0.863   0.606  0.00  0.00    -0.399 OA
ATOM     28  H18 <0> d           0.359  -0.103   0.627  0.00  0.00     0.209 HD
ENDBRANCH  24  27
ENDBRANCH  21  24
ENDBRANCH  20  21
ENDBRANCH  17  20
ENDBRANCH   1  17
TORSDOF 9
