REMARK  1 active torsions:
REMARK  status: ('A' for Active; 'I' for Inactive)
REMARK    1  A    between atoms: C1_1  and  C2_2 
ROOT
ATOM      1  C2  <0> d           0.002  -0.004   0.002  0.00  0.00     0.048 A 
ATOM      2  H1  <0> d          -1.014  -0.399   0.022  0.00  0.00     0.061 H 
ATOM      3  C3  <0> d           0.746  -0.517  -1.210  0.00  0.00    -0.019 A 
ATOM      4  C4  <0> d           0.532  -0.387  -2.564  0.00  0.00    -0.074 A 
ATOM      5  C5  <0> d           1.403  -0.982  -3.460  0.00  0.00    -0.082 A 
ATOM      6  C6  <0> d           2.485  -1.705  -2.991  0.00  0.00    -0.081 A 
ATOM      7  C7  <0> d           2.701  -1.837  -1.635  0.00  0.00    -0.057 A 
ATOM      8  C8  <0> d           1.829  -1.240  -0.726  0.00  0.00     0.042 A 
ATOM      9  N1  <0> d           1.833  -1.229   0.669  0.00  0.00    -0.326 N 
ATOM     10  C9  <0> d           0.799  -0.530   1.177  0.00  0.00     0.230 A 
ATOM     11  O1  <0> d           0.553  -0.354   2.351  0.00  0.00    -0.272 OA
ATOM     12  H5  <0> d          -0.314   0.178  -2.926  0.00  0.00     0.084 H 
ATOM     13  H6  <0> d           1.238  -0.883  -4.522  0.00  0.00     0.083 H 
ATOM     14  H7  <0> d           3.164  -2.170  -3.691  0.00  0.00     0.083 H 
ATOM     15  H8  <0> d           3.548  -2.403  -1.277  0.00  0.00     0.086 H 
ATOM     16  H9  <0> d           2.502  -1.674   1.211  0.00  0.00     0.169 HD
ENDROOT
BRANCH   1  17
ATOM     17  C1  <0> d          -0.019   1.526   0.010  0.00  0.00    -0.061 C 
ATOM     18  H2  <0> d           1.004   1.903   0.003  0.00  0.00     0.029 H 
ATOM     19  H3  <0> d          -0.546   1.887  -0.873  0.00  0.00     0.029 H 
ATOM     20  H4  <0> d          -0.529   1.877   0.907  0.00  0.00     0.029 H 
ENDBRANCH   1  17
TORSDOF 1
