REMARK  1 active torsions:
REMARK  status: ('A' for Active; 'I' for Inactive)
REMARK    1  A    between atoms: C1_1  and  C2_2 
ROOT
ATOM      1  C2  <0> d           0.002  -0.004   0.002  0.00  0.00     0.162 A 
ATOM      2  N1  <0> d           0.008  -0.769  -1.091  0.00  0.00    -0.044 NA
ATOM      3  C3  <0> d           0.027  -2.043  -0.745  0.00  0.00     0.757 A 
ATOM      4  N2  <0> d           0.034  -2.091   0.616  0.00  0.00    -0.015 N 
ATOM      5  N3  <0> d           0.022  -0.764   1.063  0.00  0.00    -0.134 NA
ATOM      6  C4  <0> d           0.053  -3.385   0.991  0.00  0.00     0.340 A 
ATOM      7  O1  <0> d           0.064  -3.818   2.123  0.00  0.00    -0.261 OA
ATOM      8  C5  <0> d           0.059  -4.174  -0.275  0.00  0.00     0.288 A 
ATOM      9  O2  <0> d           0.077  -5.521  -0.388  0.00  0.00    -0.163 OA
ATOM     10  N4  <0> d           0.043  -3.309  -1.253  0.00  0.00    -0.027 NA
ENDROOT
BRANCH   1  11
ATOM     11  C1  <0> d          -0.018   1.503   0.010  0.00  0.00    -0.017 C 
ATOM     12  H1  <0> d           1.004   1.880   0.003  0.00  0.00     0.038 H 
ATOM     13  H2  <0> d          -0.545   1.864  -0.873  0.00  0.00     0.038 H 
ATOM     14  H3  <0> d          -0.529   1.854   0.907  0.00  0.00     0.038 H 
ENDBRANCH   1  11
TORSDOF 1
