REMARK  3 active torsions:
REMARK  status: ('A' for Active; 'I' for Inactive)
REMARK    1  A    between atoms: C4_6  and  C5_8 
REMARK    2  A    between atoms: C5_8  and  C6_9 
REMARK    3  A    between atoms: C6_9  and  C7_10 
ROOT
ATOM      1  C1  <0> d          -0.020   1.145  -2.516  0.00  0.00    -0.033 C 
ATOM      2  C2  <0> d          -1.184   0.627  -3.391  0.00  0.00     0.030 C 
ATOM      3  O1  <0> d          -2.199   0.204  -2.433  0.00  0.00    -0.321 OA
ATOM      4  C3  <0> d          -2.122   0.955  -1.325  0.00  0.00     0.263 C 
ATOM      5  O2  <0> d          -3.012   1.101  -0.521  0.00  0.00    -0.265 OA
ATOM      6  C4  <0> d          -0.753   1.593  -1.232  0.00  0.00     0.033 C 
ATOM      7  H1  <0> d          -0.841   2.679  -1.202  0.00  0.00     0.055 H 
ATOM      8  H2  <0> d           0.479   1.989  -2.993  0.00  0.00     0.037 H 
ATOM      9  H3  <0> d           0.689   0.345  -2.300  0.00  0.00     0.037 H 
ATOM     10  H4  <0> d          -0.858  -0.218  -3.997  0.00  0.00     0.075 H 
ATOM     11  H5  <0> d          -1.569   1.426  -4.025  0.00  0.00     0.075 H 
ENDROOT
BRANCH   6  12
ATOM     12  C5  <0> d          -0.013   1.086   0.008  0.00  0.00    -0.044 C 
ATOM     13  H6  <0> d           0.002  -0.004   0.002  0.00  0.00     0.035 H 
ATOM     14  H7  <0> d           1.010   1.463   0.000  0.00  0.00     0.035 H 
BRANCH  12  15
ATOM     15  C6  <0> d          -0.729   1.579   1.267  0.00  0.00     0.017 C 
ATOM     16  H8  <0> d          -0.744   2.669   1.273  0.00  0.00     0.049 H 
ATOM     17  H9  <0> d          -1.751   1.202   1.275  0.00  0.00     0.049 H 
BRANCH  15  18
ATOM     18  C7  <0> d           0.000   1.080   2.488  0.00  0.00     0.172 C 
ATOM     19  O3  <0> d           0.991   0.399   2.364  0.00  0.00    -0.648 OA
ATOM     20  O4  <0> d          -0.451   1.391   3.713  0.00  0.00    -0.648 OA
ENDBRANCH  15  18
ENDBRANCH  12  15
ENDBRANCH   6  12
TORSDOF 3
