REMARK  3 active torsions:
REMARK  status: ('A' for Active; 'I' for Inactive)
REMARK    1  A    between atoms: C1_1  and  C2_2 
REMARK    2  A    between atoms: C5_5  and  C8_9 
REMARK    3  A    between atoms: C8_9  and  O1_10 
ROOT
ATOM      1  C2  <0> d           1.034  -0.714  -0.327  0.00  0.00    -0.087 C 
ATOM      2  C3  <0> d           0.002  -0.004   0.002  0.00  0.00    -0.101 C 
ATOM      3  C4  <0> d          -0.018   1.496   0.010  0.00  0.00    -0.044 C 
ATOM      4  C5  <0> d           1.411   2.043  -0.000  0.00  0.00    -0.030 C 
ATOM      5  H1  <0> d           1.886   1.845   0.960  0.00  0.00     0.043 H 
ATOM      6  C6  <0> d           2.192   1.338  -1.117  0.00  0.00    -0.056 C 
ATOM      7  C7  <0> d           2.356  -0.135  -0.737  0.00  0.00    -0.045 C 
ATOM      8  H5  <0> d          -0.900  -0.524   0.289  0.00  0.00     0.077 H 
ATOM      9  H6  <0> d          -0.549   1.855  -0.872  0.00  0.00     0.039 H 
ATOM     10  H7  <0> d          -0.532   1.846   0.906  0.00  0.00     0.039 H 
ATOM     11  H8  <0> d           3.173   1.800  -1.226  0.00  0.00     0.034 H 
ATOM     12  H9  <0> d           1.644   1.415  -2.057  0.00  0.00     0.034 H 
ATOM     13  H10 <0> d           3.059  -0.218   0.092  0.00  0.00     0.039 H 
ATOM     14  H11 <0> d           2.743  -0.688  -1.593  0.00  0.00     0.039 H 
ENDROOT
BRANCH   4  15
ATOM     15  C8  <0> d           1.383   3.550  -0.264  0.00  0.00     0.020 C 
ATOM     16  H12 <0> d           2.404   3.921  -0.359  0.00  0.00     0.074 H 
ATOM     17  H13 <0> d           0.837   3.747  -1.187  0.00  0.00     0.074 H 
BRANCH  15  18
ATOM     18  O1  <0> d           0.736   4.212   0.824  0.00  0.00    -0.400 OA
ATOM     19  H14 <0> d           0.682   5.172   0.724  0.00  0.00     0.209 HD
ENDBRANCH  15  18
ENDBRANCH   4  15
BRANCH   1  20
ATOM     20  C1  <0> d           0.898  -2.214  -0.296  0.00  0.00    -0.055 C 
ATOM     21  H2  <0> d          -0.111  -2.481   0.018  0.00  0.00     0.033 H 
ATOM     22  H3  <0> d           1.087  -2.617  -1.291  0.00  0.00     0.033 H 
ATOM     23  H4  <0> d           1.620  -2.630   0.407  0.00  0.00     0.033 H 
ENDBRANCH   1  20
TORSDOF 3
