REMARK  3 active torsions:
REMARK  status: ('A' for Active; 'I' for Inactive)
REMARK    1  A    between atoms: C1_1  and  C2_2 
REMARK    2  A    between atoms: C6_7  and  O2_10 
REMARK    3  A    between atoms: O2_10  and  C7_11 
ROOT
ATOM      1  C2  <0> d           0.785  -0.489  -1.221  0.00  0.00     0.038 C 
ATOM      2  H1  <0> d           0.281  -0.161  -2.129  0.00  0.00     0.082 H 
ATOM      3  C3  <0> d           0.002  -0.004   0.002  0.00  0.00    -0.041 C 
ATOM      4  C4  <0> d          -0.019   1.528   0.010  0.00  0.00    -0.059 C 
ATOM      5  C5  <0> d           1.422   2.047  -0.001  0.00  0.00    -0.019 C 
ATOM      6  C6  <0> d           2.151   1.482  -1.223  0.00  0.00     0.131 C 
ATOM      7  H2  <0> d           3.189   1.814  -1.213  0.00  0.00     0.129 H 
ATOM      8  O1  <0> d           2.106   0.054  -1.185  0.00  0.00    -0.356 OA
ATOM      9  H6  <0> d           0.483  -0.367   0.910  0.00  0.00     0.036 H 
ATOM     10  H7  <0> d          -1.019  -0.382  -0.046  0.00  0.00     0.036 H 
ATOM     11  H8  <0> d          -0.544   1.890  -0.873  0.00  0.00     0.033 H 
ATOM     12  H9  <0> d          -0.527   1.880   0.908  0.00  0.00     0.033 H 
ATOM     13  H10 <0> d           1.417   3.136  -0.050  0.00  0.00     0.040 H 
ATOM     14  H11 <0> d           1.932   1.726   0.908  0.00  0.00     0.040 H 
ENDROOT
BRANCH   6  15
ATOM     15  O2  <0> d           1.513   1.947  -2.414  0.00  0.00    -0.366 OA
BRANCH  15  16
ATOM     16  C7  <0> d           2.183   1.568  -3.618  0.00  0.00     0.007 C 
ATOM     17  H12 <0> d           1.637   1.959  -4.477  0.00  0.00     0.066 H 
ATOM     18  H13 <0> d           3.194   1.975  -3.615  0.00  0.00     0.066 H 
ATOM     19  H14 <0> d           2.229   0.481  -3.681  0.00  0.00     0.066 H 
ENDBRANCH  15  16
ENDBRANCH   6  15
BRANCH   1  20
ATOM     20  C1  <0> d           0.862  -2.017  -1.204  0.00  0.00    -0.052 C 
ATOM     21  H3  <0> d          -0.146  -2.432  -1.230  0.00  0.00     0.030 H 
ATOM     22  H4  <0> d           1.419  -2.363  -2.075  0.00  0.00     0.030 H 
ATOM     23  H5  <0> d           1.367  -2.346  -0.295  0.00  0.00     0.030 H 
ENDBRANCH   1  20
TORSDOF 3
