REMARK  3 active torsions:
REMARK  status: ('A' for Active; 'I' for Inactive)
REMARK    1  A    between atoms: C1_1  and  C2_2 
REMARK    2  A    between atoms: C7_7  and  C8_8 
REMARK    3  A    between atoms: C8_8  and  O1_9 
ROOT
ATOM      1  C2  <0> d           1.175   1.783   0.000  0.00  0.00    -0.053 A 
ATOM      2  C3  <0> d          -0.013   1.076   0.008  0.00  0.00    -0.074 A 
ATOM      3  C4  <0> d          -1.219   1.750   0.017  0.00  0.00    -0.045 A 
ATOM      4  C5  <0> d          -1.237   3.135   0.031  0.00  0.00     0.117 A 
ATOM      5  C6  <0> d          -0.047   3.842   0.023  0.00  0.00    -0.037 A 
ATOM      6  C7  <0> d           1.158   3.165   0.008  0.00  0.00    -0.026 A 
ATOM      7  F1  <0> d          -2.416   3.795   0.045  0.00  0.00    -0.206 F 
ATOM      8  H4  <0> d           0.002  -0.004   0.002  0.00  0.00     0.084 H 
ATOM      9  H5  <0> d          -2.147   1.197   0.019  0.00  0.00     0.088 H 
ATOM     10  H6  <0> d          -0.060   4.922   0.029  0.00  0.00     0.089 H 
ENDROOT
BRANCH   6  11
ATOM     11  C8  <0> d           2.454   3.935   0.000  0.00  0.00     0.041 C 
ATOM     12  H7  <0> d           3.037   3.674   0.883  0.00  0.00     0.081 H 
ATOM     13  H8  <0> d           3.021   3.683  -0.896  0.00  0.00     0.081 H 
BRANCH  11  14
ATOM     14  O1  <0> d           2.176   5.336   0.010  0.00  0.00    -0.396 OA
ATOM     15  H9  <0> d           2.966   5.894   0.006  0.00  0.00     0.209 HD
ENDBRANCH  11  14
ENDBRANCH   6  11
BRANCH   1  16
ATOM     16  C1  <0> d           2.490   1.047  -0.017  0.00  0.00    -0.051 C 
ATOM     17  H1  <0> d           2.797   0.875  -1.048  0.00  0.00     0.033 H 
ATOM     18  H2  <0> d           3.247   1.643   0.493  0.00  0.00     0.033 H 
ATOM     19  H3  <0> d           2.377   0.090   0.493  0.00  0.00     0.033 H 
ENDBRANCH   1  16
TORSDOF 3
