REMARK  3 active torsions:
REMARK  status: ('A' for Active; 'I' for Inactive)
REMARK    1  A    between atoms: C1_1  and  C2_2 
REMARK    2  A    between atoms: C6_7  and  O1_12 
REMARK    3  A    between atoms: C7_9  and  C8_11 
ROOT
ATOM      1  C2  <0> d          -0.750   3.109   1.275  0.00  0.00    -0.052 C 
ATOM      2  H1  <0> d          -1.260   3.461   2.172  0.00  0.00     0.040 H 
ATOM      3  C3  <0> d          -0.729   1.579   1.267  0.00  0.00    -0.061 C 
ATOM      4  C4  <0> d          -0.013   1.086   0.008  0.00  0.00    -0.062 C 
ATOM      5  C5  <0> d          -0.753   1.593  -1.232  0.00  0.00    -0.041 C 
ATOM      6  C6  <0> d          -0.773   3.123  -1.223  0.00  0.00     0.039 C 
ATOM      7  H2  <0> d           0.249   3.500  -1.231  0.00  0.00     0.083 H 
ATOM      8  C7  <0> d          -1.490   3.616   0.036  0.00  0.00    -0.030 C 
ATOM      9  H3  <0> d          -2.512   3.239   0.043  0.00  0.00     0.043 H 
ATOM     10  H7  <0> d          -1.751   1.202   1.275  0.00  0.00     0.033 H 
ATOM     11  H8  <0> d          -0.202   1.218   2.150  0.00  0.00     0.033 H 
ATOM     12  H9  <0> d           0.002  -0.004   0.002  0.00  0.00     0.033 H 
ATOM     13  H10 <0> d           1.010   1.463   0.000  0.00  0.00     0.033 H 
ATOM     14  H11 <0> d          -0.242   1.241  -2.128  0.00  0.00     0.036 H 
ATOM     15  H12 <0> d          -1.775   1.215  -1.224  0.00  0.00     0.036 H 
ENDROOT
BRANCH   1  16
ATOM     16  C1  <0> d           0.686   3.639   1.264  0.00  0.00    -0.072 C 
ATOM     17  H4  <0> d           0.671   4.729   1.270  0.00  0.00     0.028 H 
ATOM     18  H5  <0> d           1.213   3.278   2.147  0.00  0.00     0.028 H 
ATOM     19  H6  <0> d           1.196   3.287   0.368  0.00  0.00     0.028 H 
ENDBRANCH   1  16
BRANCH   8  20
ATOM     20  C8  <0> d          -1.510   5.146   0.044  0.00  0.00    -0.070 C 
ATOM     21  H13 <0> d          -2.038   5.507  -0.839  0.00  0.00     0.028 H 
ATOM     22  H14 <0> d          -2.021   5.497   0.941  0.00  0.00     0.028 H 
ATOM     23  H15 <0> d          -0.488   5.523   0.036  0.00  0.00     0.028 H 
ENDBRANCH   8  20
BRANCH   6  24
ATOM     24  O1  <0> d          -1.465   3.596  -2.381  0.00  0.00    -0.395 OA
ATOM     25  H16 <0> d          -1.065   3.321  -3.217  0.00  0.00     0.210 HD
ENDBRANCH   6  24
TORSDOF 3
