REMARK  1 active torsions:
REMARK  status: ('A' for Active; 'I' for Inactive)
REMARK    1  A    between atoms: C2_2  and  C4_7 
ROOT
ATOM      1  C1  <0> d          -0.017   1.403   0.010  0.00  0.00    -0.000 A 
ATOM      2  C2  <0> d           1.273   1.839  -0.000  0.00  0.00     0.180 A 
ATOM      3  O1  <0> d           2.072   0.753  -0.014  0.00  0.00    -0.205 OA
ATOM      4  N1  <0> d           1.245  -0.396  -0.012  0.00  0.00    -0.115 NA
ATOM      5  C3  <0> d           0.002  -0.004   0.002  0.00  0.00     0.156 A 
ATOM      6 Cl1  <0> d          -1.391  -1.040   0.010  0.00  0.00    -0.060 Cl
ATOM      7  H1  <0> d          -0.899   2.026   0.025  0.00  0.00     0.093 H 
ENDROOT
BRANCH   2   8
ATOM      8  C4  <0> d           1.715   3.243   0.003  0.00  0.00     0.236 C 
ATOM      9  O2  <0> d           0.888   4.144   0.015  0.00  0.00    -0.642 OA
ATOM     10  O3  <0> d           2.909   3.508  -0.007  0.00  0.00    -0.642 OA
ENDBRANCH   2   8
TORSDOF 1
