REMARK  4 active torsions:
REMARK  status: ('A' for Active; 'I' for Inactive)
REMARK    1  A    between atoms: C1_1  and  C2_2 
REMARK    2  A    between atoms: C2_2  and  C3_4 
REMARK    3  A    between atoms: C5_6  and  O2_10 
REMARK    4  A    between atoms: O2_10  and  C8_11 
ROOT
ATOM      1  C3  <0> d          -1.266  -0.759   0.010  0.00  0.00     0.104 A 
ATOM      2  C4  <0> d          -1.240  -2.152   0.008  0.00  0.00    -0.019 A 
ATOM      3  C5  <0> d          -2.445  -2.849   0.016  0.00  0.00     0.071 A 
ATOM      4  C6  <0> d          -3.631  -2.120   0.025  0.00  0.00    -0.034 A 
ATOM      5  C7  <0> d          -3.576  -0.737   0.027  0.00  0.00     0.006 A 
ATOM      6  N1  <0> d          -2.423  -0.104   0.025  0.00  0.00    -0.257 NA
ATOM      7  H4  <0> d          -0.300  -2.684   0.000  0.00  0.00     0.091 H 
ATOM      8  H5  <0> d          -4.584  -2.628   0.031  0.00  0.00     0.089 H 
ATOM      9  H6  <0> d          -4.495  -0.168   0.034  0.00  0.00     0.114 H 
ENDROOT
BRANCH   1  10
ATOM     10  C2  <0> d           0.002  -0.004   0.002  0.00  0.00     0.174 C 
ATOM     11  O1  <0> d           1.060  -0.596  -0.011  0.00  0.00    -0.291 OA
BRANCH  10  12
ATOM     12  C1  <0> d          -0.018   1.503   0.010  0.00  0.00    -0.015 C 
ATOM     13  H1  <0> d           1.004   1.880   0.003  0.00  0.00     0.038 H 
ATOM     14  H2  <0> d          -0.545   1.864  -0.873  0.00  0.00     0.038 H 
ATOM     15  H3  <0> d          -0.529   1.854   0.907  0.00  0.00     0.038 H 
ENDBRANCH  10  12
ENDBRANCH   1  10
BRANCH   3  16
ATOM     16  O2  <0> d          -2.464  -4.206   0.014  0.00  0.00    -0.356 OA
BRANCH  16  17
ATOM     17  C8  <0> d          -3.746  -4.838   0.022  0.00  0.00     0.010 C 
ATOM     18  H7  <0> d          -3.618  -5.920   0.019  0.00  0.00     0.066 H 
ATOM     19  H8  <0> d          -4.292  -4.539   0.916  0.00  0.00     0.066 H 
ATOM     20  H9  <0> d          -4.305  -4.536  -0.863  0.00  0.00     0.066 H 
ENDBRANCH  16  17
ENDBRANCH   3  16
TORSDOF 4
