REMARK  5 active torsions:
REMARK  status: ('A' for Active; 'I' for Inactive)
REMARK    1  A    between atoms: C1_1  and  C2_2 
REMARK    2  A    between atoms: C2_2  and  C3_4 
REMARK    3  A    between atoms: C2_2  and  O1_13 
REMARK    4  A    between atoms: C3_4  and  C4_5 
REMARK    5  A    between atoms: C4_5  and  C5_6 
ROOT
ATOM      1  C5  <0> d          -0.747   1.590  -1.236  0.00  0.00    -0.051 C 
ATOM      2  H2  <0> d          -1.702   1.073  -1.333  0.00  0.00     0.040 H 
ATOM      3  C6  <0> d          -0.985   3.097  -1.081  0.00  0.00    -0.059 C 
ATOM      4  C7  <0> d          -1.983   3.316   0.058  0.00  0.00    -0.050 C 
ATOM      5  C8  <0> d          -1.560   2.540   1.271  0.00  0.00    -0.106 C 
ATOM      6  C9  <0> d          -0.710   1.567   1.247  0.00  0.00    -0.106 C 
ATOM      7  C10 <0> d          -0.013   1.086   0.008  0.00  0.00    -0.047 C 
ATOM      8  H10 <0> d          -0.044   3.595  -0.845  0.00  0.00     0.034 H 
ATOM      9  H11 <0> d          -1.393   3.501  -2.008  0.00  0.00     0.034 H 
ATOM     10  H12 <0> d          -2.025   4.377   0.304  0.00  0.00     0.038 H 
ATOM     11  H13 <0> d          -2.971   2.981  -0.259  0.00  0.00     0.038 H 
ATOM     12  H14 <0> d          -1.996   2.809   2.222  0.00  0.00     0.076 H 
ATOM     13  H15 <0> d          -0.485   1.071   2.179  0.00  0.00     0.076 H 
ATOM     14  H16 <0> d           0.002  -0.004   0.002  0.00  0.00     0.039 H 
ATOM     15  H17 <0> d           1.011   1.461   0.000  0.00  0.00     0.039 H 
ENDROOT
BRANCH   1  16
ATOM     16  C4  <0> d           0.106   1.329  -2.479  0.00  0.00    -0.059 C 
ATOM     17  H8  <0> d          -0.378   1.768  -3.351  0.00  0.00     0.033 H 
ATOM     18  H9  <0> d           1.090   1.779  -2.345  0.00  0.00     0.033 H 
BRANCH  16  19
ATOM     19  C3  <0> d           0.259  -0.179  -2.685  0.00  0.00    -0.041 C 
ATOM     20  H6  <0> d           0.744  -0.618  -1.812  0.00  0.00     0.036 H 
ATOM     21  H7  <0> d          -0.725  -0.629  -2.819  0.00  0.00     0.036 H 
BRANCH  19  22
ATOM     22  C2  <0> d           1.113  -0.441  -3.927  0.00  0.00     0.032 C 
ATOM     23  H1  <0> d           2.064   0.084  -3.831  0.00  0.00     0.082 H 
BRANCH  22  24
ATOM     24  C1  <0> d           1.370  -1.943  -4.063  0.00  0.00    -0.052 C 
ATOM     25  H3  <0> d           0.419  -2.467  -4.159  0.00  0.00     0.030 H 
ATOM     26  H4  <0> d           1.978  -2.129  -4.948  0.00  0.00     0.030 H 
ATOM     27  H5  <0> d           1.896  -2.303  -3.179  0.00  0.00     0.030 H 
ENDBRANCH  22  24
BRANCH  22  28
ATOM     28  O1  <0> d           0.424   0.032  -5.087  0.00  0.00    -0.396 OA
ATOM     29  H18 <0> d          -0.433  -0.392  -5.235  0.00  0.00     0.210 HD
ENDBRANCH  22  28
ENDBRANCH  19  22
ENDBRANCH  16  19
ENDBRANCH   1  16
TORSDOF 5
