REMARK  0 active torsions:
REMARK  status: ('A' for Active; 'I' for Inactive)
ROOT
ATOM      1  C1  <0> d          -0.017   1.409   0.010  0.00  0.00    -0.043 A 
ATOM      2  C2  <0> d           1.265   1.838  -0.000  0.00  0.00     0.006 A 
ATOM      3  N1  <0> d           2.101   0.771  -0.014  0.00  0.00    -0.238 N 
ATOM      4  C3  <0> d           1.351  -0.381  -0.013  0.00  0.00     0.134 A 
ATOM      5  C4  <0> d           0.002  -0.004   0.002  0.00  0.00     0.079 A 
ATOM      6  C5  <0> d          -1.133  -0.878   0.009  0.00  0.00     0.102 C 
ATOM      7  N2  <0> d          -2.033  -1.571   0.014  0.00  0.00    -0.191 NA
ATOM      8  C6  <0> d           2.015  -1.622  -0.026  0.00  0.00     0.232 A 
ATOM      9  N3  <0> d           3.336  -1.649  -0.039  0.00  0.00    -0.212 NA
ATOM     10  C7  <0> d           4.054  -0.529  -0.040  0.00  0.00     0.109 A 
ATOM     11  N4  <0> d           3.499   0.653  -0.028  0.00  0.00    -0.161 NA
ATOM     12  O1  <0> d           1.308  -2.777  -0.025  0.00  0.00    -0.168 OA
ATOM     13  H1  <0> d          -0.898   2.033   0.025  0.00  0.00     0.088 H 
ATOM     14  H2  <0> d           1.575   2.873   0.002  0.00  0.00     0.114 H 
ATOM     15  H3  <0> d           5.132  -0.600  -0.051  0.00  0.00     0.149 H 
ENDROOT
TORSDOF 0
