REMARK  5 active torsions:
REMARK  status: ('A' for Active; 'I' for Inactive)
REMARK    1  A    between atoms: C1_1  and  C2_2 
REMARK    2  A    between atoms: C2_2  and  O1_3 
REMARK    3  A    between atoms: O1_3  and  C3_4 
REMARK    4  A    between atoms: C4_6  and  C7_12 
REMARK    5  A    between atoms: C5_8  and  C6_11 
ROOT
ATOM      1  C3  <0> d           0.002  -0.004   0.002  0.00  0.00     0.234 C 
ATOM      2  O2  <0> d          -0.017   1.434   0.010  0.00  0.00    -0.331 OA
ATOM      3  C4  <0> d           1.352   1.875  -0.001  0.00  0.00     0.065 C 
ATOM      4  H1  <0> d           1.561   2.482   0.880  0.00  0.00     0.086 H 
ATOM      5  C5  <0> d           2.192   0.580   0.029  0.00  0.00     0.065 C 
ATOM      6  H2  <0> d           2.500   0.296  -0.978  0.00  0.00     0.086 H 
ATOM      7  O3  <0> d           1.269  -0.392   0.576  0.00  0.00    -0.331 OA
ATOM      8  H8  <0> d          -0.076  -0.374  -1.020  0.00  0.00     0.179 H 
ENDROOT
BRANCH   1   9
ATOM      9  O1  <0> d          -1.073  -0.514   0.793  0.00  0.00    -0.339 OA
BRANCH   9  10
ATOM     10  C2  <0> d          -1.030  -0.108   2.163  0.00  0.00     0.021 C 
ATOM     11  H6  <0> d          -0.103  -0.458   2.617  0.00  0.00     0.074 H 
ATOM     12  H7  <0> d          -1.076   0.979   2.221  0.00  0.00     0.074 H 
BRANCH  10  13
ATOM     13  C1  <0> d          -2.222  -0.710   2.910  0.00  0.00    -0.056 C 
ATOM     14  H3  <0> d          -3.149  -0.361   2.457  0.00  0.00     0.030 H 
ATOM     15  H4  <0> d          -2.176  -1.797   2.852  0.00  0.00     0.030 H 
ATOM     16  H5  <0> d          -2.189  -0.400   3.955  0.00  0.00     0.030 H 
ENDBRANCH  10  13
ENDBRANCH   9  10
ENDBRANCH   1   9
BRANCH   5  17
ATOM     17  C6  <0> d           3.411   0.742   0.939  0.00  0.00    -0.050 C 
ATOM     18  H9  <0> d           3.938  -0.210   1.013  0.00  0.00     0.031 H 
ATOM     19  H10 <0> d           4.079   1.495   0.522  0.00  0.00     0.031 H 
ATOM     20  H11 <0> d           3.085   1.054   1.931  0.00  0.00     0.031 H 
ENDBRANCH   5  17
BRANCH   3  21
ATOM     21  C7  <0> d           1.644   2.670  -1.276  0.00  0.00    -0.050 C 
ATOM     22  H12 <0> d           1.007   3.554  -1.307  0.00  0.00     0.031 H 
ATOM     23  H13 <0> d           2.690   2.975  -1.282  0.00  0.00     0.031 H 
ATOM     24  H14 <0> d           1.443   2.046  -2.146  0.00  0.00     0.031 H 
ENDBRANCH   3  21
TORSDOF 5
