REMARK  3 active torsions:
REMARK  status: ('A' for Active; 'I' for Inactive)
REMARK    1  A    between atoms: C1_1  and  O1_2 
REMARK    2  A    between atoms: O1_2  and  C2_3 
REMARK    3  A    between atoms: C3_4  and  O2_9 
ROOT
ATOM      1  C2  <0> d           1.193   2.076   0.002  0.00  0.00     0.197 A 
ATOM      2  C3  <0> d          -0.017   1.383   0.010  0.00  0.00     0.118 A 
ATOM      3  C4  <0> d           0.002  -0.004   0.002  0.00  0.00    -0.045 A 
ATOM      4  C5  <0> d           1.232  -0.648  -0.013  0.00  0.00    -0.063 A 
ATOM      5  C6  <0> d           2.389   0.103  -0.020  0.00  0.00     0.005 A 
ATOM      6  N1  <0> d           2.341   1.423  -0.013  0.00  0.00    -0.235 NA
ATOM      7  H4  <0> d          -0.918  -0.569   0.007  0.00  0.00     0.088 H 
ATOM      8  H5  <0> d           1.282  -1.727  -0.020  0.00  0.00     0.085 H 
ATOM      9  H6  <0> d           3.347  -0.395  -0.032  0.00  0.00     0.114 H 
ENDROOT
BRANCH   1  10
ATOM     10  O1  <0> d           1.191   3.434   0.009  0.00  0.00    -0.337 OA
BRANCH  10  11
ATOM     11  C1  <0> d           2.463   4.084   0.000  0.00  0.00     0.012 C 
ATOM     12  H1  <0> d           3.029   3.788   0.883  0.00  0.00     0.067 H 
ATOM     13  H2  <0> d           3.012   3.797  -0.897  0.00  0.00     0.067 H 
ATOM     14  H3  <0> d           2.319   5.165   0.007  0.00  0.00     0.067 H 
ENDBRANCH  10  11
ENDBRANCH   1  10
BRANCH   2  15
ATOM     15  O2  <0> d          -1.198   2.057   0.019  0.00  0.00    -0.357 OA
ATOM     16  H7  <0> d          -1.535   2.248   0.905  0.00  0.00     0.218 HD
ENDBRANCH   2  15
TORSDOF 3
