REMARK  3 active torsions:
REMARK  status: ('A' for Active; 'I' for Inactive)
REMARK    1  A    between atoms: C1_1  and  C2_2 
REMARK    2  A    between atoms: C2_2  and  C3_4 
REMARK    3  A    between atoms: C2_2  and  N2_7 
REMARK       I    between atoms: C3_4  and  N1_6 
ROOT
ATOM      1  C2  <0> d          -1.208   3.131   0.025  0.00  0.00     0.107 C 
ATOM      2  H1  <0> d          -0.695   3.496   0.914  0.00  0.00     0.090 H 
ENDROOT
BRANCH   1   3
ATOM      3  C1  <0> d          -0.499   3.657  -1.225  0.00  0.00    -0.047 C 
ATOM      4  H2  <0> d          -1.012   3.292  -2.115  0.00  0.00     0.030 H 
ATOM      5  H3  <0> d          -0.514   4.747  -1.219  0.00  0.00     0.030 H 
ATOM      6  H4  <0> d           0.533   3.308  -1.232  0.00  0.00     0.030 H 
ENDBRANCH   1   3
BRANCH   1   7
ATOM      7  C3  <0> d          -1.187   1.624   0.017  0.00  0.00     0.239 C 
ATOM      8  O1  <0> d          -2.229   1.003   0.018  0.00  0.00    -0.271 OA
ATOM      9  N1  <0> d          -0.011   0.966   0.007  0.00  0.00    -0.368 N 
ATOM     10  H5  <0> d           0.002  -0.004   0.002  0.00  0.00     0.159 HD
ATOM     11  H6  <0> d           0.822   1.462   0.002  0.00  0.00     0.159 HD
ENDBRANCH   1   7
BRANCH   1  12
ATOM     12  N2  <0> d          -2.595   3.600   0.034  0.00  0.00    -0.268 N 
ATOM     13  N3  <0> d          -3.075   4.740   0.692  0.00  0.00    -0.184 NA
ATOM     14  C6  <0> d          -4.362   4.829   0.469  0.00  0.00     0.023 A 
ATOM     15  C5  <0> d          -4.741   3.751  -0.337  0.00  0.00    -0.048 A 
ATOM     16  H9  <0> d          -5.017   5.603   0.842  0.00  0.00     0.117 H 
ATOM     17  C4  <0> d          -3.636   3.014  -0.595  0.00  0.00     0.001 A 
ATOM     18  H8  <0> d          -5.739   3.545  -0.695  0.00  0.00     0.087 H 
ATOM     19  H7  <0> d          -3.594   2.116  -1.194  0.00  0.00     0.114 H 
ENDBRANCH   1  12
TORSDOF 3
