REMARK  2 active torsions:
REMARK  status: ('A' for Active; 'I' for Inactive)
REMARK    1  A    between atoms: C1_1  and  C2_2 
REMARK    2  A    between atoms: C2_2  and  C5_7 
ROOT
ATOM      1  C2  <0> d           0.002  -0.004   0.002  0.00  0.00     0.156 C 
ATOM      2  O1  <0> d           0.664  -0.470  -1.181  0.00  0.00    -0.354 OA
ATOM      3  C3  <0> d          -0.284  -1.256  -1.925  0.00  0.00     0.043 C 
ATOM      4  C4  <0> d          -1.649  -0.754  -1.391  0.00  0.00     0.043 C 
ATOM      5  O2  <0> d          -1.345  -0.505   0.003  0.00  0.00    -0.354 OA
ATOM      6  H4  <0> d          -0.155  -2.318  -1.716  0.00  0.00     0.077 H 
ATOM      7  H5  <0> d          -0.194  -1.062  -2.994  0.00  0.00     0.077 H 
ATOM      8  H6  <0> d          -2.414  -1.523  -1.492  0.00  0.00     0.077 H 
ATOM      9  H7  <0> d          -1.952   0.164  -1.894  0.00  0.00     0.077 H 
ENDROOT
BRANCH   1  10
ATOM     10  C1  <0> d          -0.019   1.526   0.010  0.00  0.00    -0.026 C 
ATOM     11  H1  <0> d           1.004   1.903   0.003  0.00  0.00     0.035 H 
ATOM     12  H2  <0> d          -0.546   1.887  -0.873  0.00  0.00     0.035 H 
ATOM     13  H3  <0> d          -0.529   1.877   0.907  0.00  0.00     0.035 H 
ENDBRANCH   1  10
BRANCH   1  14
ATOM     14  C5  <0> d           0.741  -0.515   1.240  0.00  0.00    -0.026 C 
ATOM     15  H8  <0> d           0.232  -0.165   2.138  0.00  0.00     0.035 H 
ATOM     16  H9  <0> d           0.755  -1.605   1.232  0.00  0.00     0.035 H 
ATOM     17  H10 <0> d           1.764  -0.139   1.233  0.00  0.00     0.035 H 
ENDBRANCH   1  14
TORSDOF 2
