REMARK  5 active torsions:
REMARK  status: ('A' for Active; 'I' for Inactive)
REMARK    1  A    between atoms: C1_1  and  C2_2 
REMARK    2  A    between atoms: N2_6  and  C5_7 
REMARK    3  A    between atoms: C5_7  and  C6_9 
REMARK    4  A    between atoms: C5_7  and  C7_10 
REMARK    5  A    between atoms: C7_10  and  O1_11 
ROOT
ATOM      1  C2  <0> d          -0.718   1.572   1.248  0.00  0.00     0.102 A 
ATOM      2  N1  <0> d          -0.151   1.827   2.395  0.00  0.00    -0.246 NA
ATOM      3  C3  <0> d          -1.083   2.239   3.268  0.00  0.00     0.019 A 
ATOM      4  C4  <0> d          -2.273   2.238   2.637  0.00  0.00    -0.002 A 
ATOM      5  N2  <0> d          -2.041   1.821   1.354  0.00  0.00    -0.338 N 
ATOM      6  H5  <0> d          -0.909   2.521   4.295  0.00  0.00     0.117 H 
ATOM      7  H6  <0> d          -3.226   2.518   3.061  0.00  0.00     0.113 H 
ENDROOT
BRANCH   5   8
ATOM      8  C5  <0> d          -3.042   1.669   0.295  0.00  0.00     0.034 C 
ATOM      9  H1  <0> d          -2.557   1.317  -0.615  0.00  0.00     0.076 H 
BRANCH   8  10
ATOM     10  C6  <0> d          -3.711   3.019   0.029  0.00  0.00    -0.055 C 
ATOM     11  H7  <0> d          -4.456   2.906  -0.759  0.00  0.00     0.030 H 
ATOM     12  H8  <0> d          -4.196   3.370   0.939  0.00  0.00     0.030 H 
ATOM     13  H9  <0> d          -2.958   3.742  -0.284  0.00  0.00     0.030 H 
ENDBRANCH   8  10
BRANCH   8  14
ATOM     14  C7  <0> d          -4.099   0.654   0.735  0.00  0.00     0.036 C 
ATOM     15  H10 <0> d          -3.612  -0.282   1.010  0.00  0.00     0.077 H 
ATOM     16  H11 <0> d          -4.645   1.046   1.593  0.00  0.00     0.077 H 
BRANCH  14  17
ATOM     17  O1  <0> d          -5.010   0.418  -0.341  0.00  0.00    -0.399 OA
ATOM     18  H12 <0> d          -5.709  -0.216  -0.133  0.00  0.00     0.209 HD
ENDBRANCH  14  17
ENDBRANCH   8  14
ENDBRANCH   5   8
BRANCH   1  19
ATOM     19  C1  <0> d          -0.013   1.086   0.008  0.00  0.00    -0.021 C 
ATOM     20  H2  <0> d           0.002  -0.004   0.002  0.00  0.00     0.037 H 
ATOM     21  H3  <0> d           1.010   1.463   0.000  0.00  0.00     0.037 H 
ATOM     22  H4  <0> d          -0.540   1.447  -0.875  0.00  0.00     0.037 H 
ENDBRANCH   1  19
TORSDOF 5
