REMARK  3 active torsions:
REMARK  status: ('A' for Active; 'I' for Inactive)
REMARK    1  A    between atoms: C1_1  and  N1_2 
REMARK       I    between atoms: N1_2  and  C2_3 
REMARK    2  A    between atoms: C2_3  and  C3_5 
REMARK    3  A    between atoms: C5_10  and  N4_11 
ROOT
ATOM      1  C3  <0> d          -1.135  -2.201   0.001  0.00  0.00     0.113 A 
ATOM      2  H1  <0> d          -0.618  -2.572  -0.883  0.00  0.00     0.075 H 
ATOM      3  C4  <0> d          -0.486  -2.733   1.263  0.00  0.00     0.021 A 
ATOM      4  N2  <0> d          -1.392  -3.429   1.866  0.00  0.00    -0.189 NA
ATOM      5  N3  <0> d          -2.599  -3.446   1.175  0.00  0.00    -0.266 N 
ATOM      6  C5  <0> d          -2.545  -2.755   0.067  0.00  0.00     0.109 A 
ATOM      7  H6  <0> d           0.529  -2.565   1.591  0.00  0.00     0.112 H 
ATOM      8  H9  <0> d          -3.389  -3.919   1.480  0.00  0.00     0.190 HD
ENDROOT
BRANCH   1   9
ATOM      9  C2  <0> d          -1.156  -0.694   0.009  0.00  0.00     0.233 C 
ATOM     10  N1  <0> d           0.002  -0.004   0.002  0.00  0.00    -0.364 N 
ATOM     11  H5  <0> d           0.849  -0.478  -0.009  0.00  0.00     0.161 HD
ATOM     12  O1  <0> d          -2.214  -0.102   0.023  0.00  0.00    -0.272 OA
BRANCH  10  13
ATOM     13  C1  <0> d          -0.018   1.461   0.010  0.00  0.00    -0.018 C 
ATOM     14  H2  <0> d           1.005   1.838   0.002  0.00  0.00     0.056 H 
ATOM     15  H3  <0> d          -0.545   1.822  -0.873  0.00  0.00     0.056 H 
ATOM     16  H4  <0> d          -0.528   1.812   0.907  0.00  0.00     0.056 H 
ENDBRANCH  10  13
ENDBRANCH   1   9
BRANCH   6  17
ATOM     17  N4  <0> d          -3.549  -2.567  -0.843  0.00  0.00    -0.387 N 
ATOM     18  H7  <0> d          -3.393  -2.028  -1.635  0.00  0.00     0.157 HD
ATOM     19  H8  <0> d          -4.418  -2.973  -0.697  0.00  0.00     0.157 HD
ENDBRANCH   6  17
TORSDOF 3
