REMARK  1 active torsions:
REMARK  status: ('A' for Active; 'I' for Inactive)
REMARK    1  A    between atoms: C6_8  and  O2_11 
ROOT
ATOM      1  C1  <0> d          -0.017   1.375   0.010  0.00  0.00    -0.082 A 
ATOM      2  C2  <0> d           1.161   2.105   0.002  0.00  0.00    -0.081 A 
ATOM      3  C3  <0> d           2.400   1.483  -0.013  0.00  0.00    -0.056 A 
ATOM      4  C4  <0> d           2.480   0.095  -0.021  0.00  0.00     0.048 A 
ATOM      5  N1  <0> d           3.529  -0.771  -0.036  0.00  0.00    -0.320 N 
ATOM      6  C5  <0> d           3.115  -2.026  -0.039  0.00  0.00     0.280 A 
ATOM      7  O1  <0> d           3.830  -3.011  -0.051  0.00  0.00    -0.265 OA
ATOM      8  C6  <0> d           1.611  -2.032  -0.024  0.00  0.00     0.146 A 
ATOM      9  C7  <0> d           1.233  -0.678  -0.013  0.00  0.00     0.029 A 
ATOM     10  C8  <0> d           0.002  -0.004   0.002  0.00  0.00    -0.068 A 
ATOM     11  H1  <0> d          -0.964   1.894   0.026  0.00  0.00     0.083 H 
ATOM     12  H2  <0> d           1.113   3.184   0.009  0.00  0.00     0.083 H 
ATOM     13  H3  <0> d           3.302   2.076  -0.019  0.00  0.00     0.086 H 
ATOM     14  H4  <0> d          -0.923  -0.561   0.008  0.00  0.00     0.085 H 
ATOM     15  H6  <0> d           4.461  -0.502  -0.045  0.00  0.00     0.169 HD
ENDROOT
BRANCH   8  16
ATOM     16  O2  <0> d           0.805  -3.097  -0.023  0.00  0.00    -0.355 OA
ATOM     17  H5  <0> d           1.272  -3.944  -0.032  0.00  0.00     0.218 HD
ENDBRANCH   8  16
TORSDOF 1
