REMARK  5 active torsions:
REMARK  status: ('A' for Active; 'I' for Inactive)
REMARK    1  A    between atoms: C1_1  and  C2_2 
REMARK    2  A    between atoms: C2_2  and  C3_3 
REMARK    3  A    between atoms: C2_2  and  C4_4 
REMARK    4  A    between atoms: C4_4  and  C5_5 
REMARK    5  A    between atoms: C5_5  and  C6_7 
ROOT
ATOM      1  C6  <0> d          -0.018   1.468   0.010  0.00  0.00     0.069 C 
ATOM      2  C7  <0> d           0.002  -0.004   0.002  0.00  0.00     0.066 C 
ATOM      3  N1  <0> d           0.018  -1.140  -0.004  0.00  0.00    -0.197 NA
ATOM      4  H10 <0> d          -0.550   1.832  -0.881  0.00  0.00     0.066 H 
ATOM      5  H11 <0> d           1.014   1.849   0.002  0.00  0.00     0.066 H 
ENDROOT
BRANCH   1   6
ATOM      6  C5  <0> d          -0.723   1.954   1.250  0.00  0.00     0.140 C 
ATOM      7  O1  <0> d          -1.164   1.159   2.045  0.00  0.00    -0.297 OA
BRANCH   6   8
ATOM      8  C4  <0> d          -0.879   3.432   1.498  0.00  0.00    -0.006 C 
ATOM      9  H8  <0> d          -1.449   3.884   0.673  0.00  0.00     0.044 H 
ATOM     10  H9  <0> d           0.115   3.901   1.556  0.00  0.00     0.044 H 
BRANCH   8  11
ATOM     11  C2  <0> d          -1.625   3.653   2.815  0.00  0.00    -0.055 C 
ATOM     12  H4  <0> d          -2.581   3.109   2.790  0.00  0.00     0.039 H 
BRANCH  11  13
ATOM     13  C1  <0> d          -0.774   3.135   3.976  0.00  0.00    -0.073 C 
ATOM     14  H1  <0> d          -0.582   2.060   3.839  0.00  0.00     0.028 H 
ATOM     15  H2  <0> d          -1.311   3.293   4.923  0.00  0.00     0.028 H 
ATOM     16  H3  <0> d           0.182   3.678   4.001  0.00  0.00     0.028 H 
ENDBRANCH  11  13
BRANCH  11  17
ATOM     17  C3  <0> d          -1.893   5.147   3.006  0.00  0.00    -0.073 C 
ATOM     18  H5  <0> d          -2.505   5.519   2.171  0.00  0.00     0.028 H 
ATOM     19  H6  <0> d          -0.937   5.690   3.031  0.00  0.00     0.028 H 
ATOM     20  H7  <0> d          -2.429   5.305   3.953  0.00  0.00     0.028 H 
ENDBRANCH  11  17
ENDBRANCH   8  11
ENDBRANCH   6   8
ENDBRANCH   1   6
TORSDOF 5
