REMARK  5 active torsions:
REMARK  status: ('A' for Active; 'I' for Inactive)
REMARK    1  A    between atoms: C1_1  and  C2_2 
REMARK    2  A    between atoms: C2_2  and  C3_3 
REMARK    3  A    between atoms: C3_3  and  C4_4 
REMARK    4  A    between atoms: C3_3  and  C5_5 
REMARK    5  A    between atoms: C3_3  and  O1_8 
ROOT
ATOM      1  C3  <0> d          -2.164   1.050   1.278  0.00  0.00     0.057 C 
ENDROOT
BRANCH   1   2
ATOM      2  C2  <0> d          -0.729   1.579   1.267  0.00  0.00    -0.040 C 
ATOM      3  H4  <0> d          -0.202   1.218   2.150  0.00  0.00     0.036 H 
ATOM      4  H5  <0> d          -0.744   2.669   1.273  0.00  0.00     0.036 H 
BRANCH   2   5
ATOM      5  C1  <0> d          -0.013   1.086   0.008  0.00  0.00    -0.074 C 
ATOM      6  H1  <0> d           0.002  -0.004   0.002  0.00  0.00     0.027 H 
ATOM      7  H2  <0> d           1.010   1.463   0.000  0.00  0.00     0.027 H 
ATOM      8  H3  <0> d          -0.540   1.447  -0.875  0.00  0.00     0.027 H 
ENDBRANCH   2   5
ENDBRANCH   1   2
BRANCH   1   9
ATOM      9  C4  <0> d          -2.143  -0.480   1.269  0.00  0.00    -0.048 C 
ATOM     10  H6  <0> d          -1.616  -0.841   2.152  0.00  0.00     0.031 H 
ATOM     11  H7  <0> d          -3.166  -0.858   1.277  0.00  0.00     0.031 H 
ATOM     12  H8  <0> d          -1.633  -0.832   0.372  0.00  0.00     0.031 H 
ENDBRANCH   1   9
BRANCH   1  13
ATOM     13  C5  <0> d          -2.880   1.543   2.537  0.00  0.00    -0.025 A 
ATOM     14  C7  <0> d          -4.297   1.024   2.793  0.00  0.00    -0.059 A 
ATOM     15  C6  <0> d          -3.132   0.525   3.651  0.00  0.00    -0.059 A 
ATOM     16  H12 <0> d          -5.007   1.708   3.257  0.00  0.00     0.033 H 
ATOM     17  H13 <0> d          -4.718   0.331   2.065  0.00  0.00     0.033 H 
ATOM     18  H10 <0> d          -2.787  -0.496   3.487  0.00  0.00     0.033 H 
ATOM     19  H11 <0> d          -3.076   0.881   4.680  0.00  0.00     0.033 H 
ATOM     20  H9  <0> d          -2.659   2.569   2.832  0.00  0.00     0.044 H 
ENDBRANCH   1  13
BRANCH   1  21
ATOM     21  O1  <0> d          -2.855   1.523   0.120  0.00  0.00    -0.390 OA
ATOM     22  H14 <0> d          -2.907   2.487   0.059  0.00  0.00     0.210 HD
ENDBRANCH   1  21
TORSDOF 5
