REMARK  3 active torsions:
REMARK  status: ('A' for Active; 'I' for Inactive)
REMARK    1  A    between atoms: C1_1  and  C2_2 
REMARK    2  A    between atoms: C2_2  and  C3_4 
REMARK    3  A    between atoms: C6_7  and  N1_10 
ROOT
ATOM      1  C3  <0> d           1.226  -0.686  -0.013  0.00  0.00     0.009 A 
ATOM      2  C4  <0> d           0.002  -0.004   0.002  0.00  0.00    -0.067 A 
ATOM      3  C5  <0> d          -0.016   1.361   0.009  0.00  0.00    -0.057 A 
ATOM      4  C6  <0> d           1.179   2.076   0.002  0.00  0.00     0.025 A 
ATOM      5  C7  <0> d           2.398   1.402  -0.013  0.00  0.00    -0.057 A 
ATOM      6  C8  <0> d           2.426   0.037  -0.021  0.00  0.00    -0.067 A 
ATOM      7  H4  <0> d          -0.925  -0.557   0.008  0.00  0.00     0.085 H 
ATOM      8  H5  <0> d          -0.959   1.888   0.017  0.00  0.00     0.086 H 
ATOM      9  H6  <0> d           3.323   1.960  -0.020  0.00  0.00     0.086 H 
ATOM     10  H7  <0> d           3.372  -0.485  -0.033  0.00  0.00     0.085 H 
ENDROOT
BRANCH   1  11
ATOM     11  C2  <0> d           1.251  -2.153  -0.021  0.00  0.00     0.155 C 
ATOM     12  O1  <0> d           0.211  -2.777  -0.014  0.00  0.00    -0.293 OA
BRANCH  11  13
ATOM     13  C1  <0> d           2.568  -2.885  -0.038  0.00  0.00    -0.017 C 
ATOM     14  H1  <0> d           2.869  -3.051   0.901  0.00  0.00     0.038 H 
ATOM     15  H2  <0> d           2.449  -3.836  -0.555  0.00  0.00     0.038 H 
ATOM     16  H3  <0> d           3.313  -2.280  -0.556  0.00  0.00     0.038 H 
ENDBRANCH  11  13
ENDBRANCH   1  11
BRANCH   4  17
ATOM     17  N1  <0> d           1.156   3.465   0.010  0.00  0.00    -0.399 N 
ATOM     18  H8  <0> d           0.308   3.936   0.020  0.00  0.00     0.156 HD
ATOM     19  H9  <0> d           1.987   3.964   0.004  0.00  0.00     0.156 HD
ENDBRANCH   4  17
TORSDOF 3
