REMARK  4 active torsions:
REMARK  status: ('A' for Active; 'I' for Inactive)
REMARK    1  A    between atoms: C1_1  and  C2_2 
REMARK    2  A    between atoms: C2_2  and  O1_3 
REMARK    3  A    between atoms: O1_3  and  C3_4 
REMARK    4  A    between atoms: C3_4  and  C4_5 
ROOT
ATOM      1  C4  <0> d          -2.883  -2.333   0.017  0.00  0.00    -0.034 A 
ATOM      2  C5  <0> d          -3.538  -2.521   1.220  0.00  0.00    -0.072 A 
ATOM      3  C6  <0> d          -4.868  -2.895   1.232  0.00  0.00    -0.045 A 
ATOM      4  C7  <0> d          -5.545  -3.082   0.038  0.00  0.00     0.116 A 
ATOM      5  C8  <0> d          -4.888  -2.893  -1.166  0.00  0.00    -0.045 A 
ATOM      6  C9  <0> d          -3.559  -2.514  -1.175  0.00  0.00    -0.072 A 
ATOM      7  F1  <0> d          -6.845  -3.447   0.049  0.00  0.00    -0.206 F 
ATOM      8  H8  <0> d          -3.009  -2.376   2.151  0.00  0.00     0.084 H 
ATOM      9  H9  <0> d          -5.379  -3.042   2.172  0.00  0.00     0.088 H 
ATOM     10  H10 <0> d          -5.415  -3.038  -2.097  0.00  0.00     0.088 H 
ATOM     11  H11 <0> d          -3.047  -2.362  -2.114  0.00  0.00     0.084 H 
ENDROOT
BRANCH   1  12
ATOM     12  C3  <0> d          -1.432  -1.925   0.005  0.00  0.00     0.043 C 
ATOM     13  H6  <0> d          -0.952  -2.316  -0.891  0.00  0.00     0.081 H 
ATOM     14  H7  <0> d          -0.935  -2.325   0.888  0.00  0.00     0.081 H 
BRANCH  12  15
ATOM     15  O1  <0> d          -1.339  -0.499   0.012  0.00  0.00    -0.387 OA
BRANCH  15  16
ATOM     16  C2  <0> d           0.002  -0.004   0.002  0.00  0.00     0.017 C 
ATOM     17  H4  <0> d           0.512  -0.356  -0.895  0.00  0.00     0.073 H 
ATOM     18  H5  <0> d           0.529  -0.365   0.885  0.00  0.00     0.073 H 
BRANCH  16  19
ATOM     19  C1  <0> d          -0.019   1.526   0.010  0.00  0.00    -0.056 C 
ATOM     20  H1  <0> d           1.004   1.903   0.003  0.00  0.00     0.030 H 
ATOM     21  H2  <0> d          -0.546   1.887  -0.873  0.00  0.00     0.030 H 
ATOM     22  H3  <0> d          -0.529   1.877   0.907  0.00  0.00     0.030 H 
ENDBRANCH  16  19
ENDBRANCH  15  16
ENDBRANCH  12  15
ENDBRANCH   1  12
TORSDOF 4
