REMARK  4 active torsions:
REMARK  status: ('A' for Active; 'I' for Inactive)
REMARK    1  A    between atoms: C1_1  and  C2_2 
REMARK    2  A    between atoms: C3_3  and  N4_9 
REMARK    3  A    between atoms: C4_4  and  N3_8 
REMARK    4  A    between atoms: N2_6  and  C5_7 
ROOT
ATOM      1  C2  <0> d          -0.016   1.357   0.009  0.00  0.00     0.056 A 
ATOM      2  C3  <0> d           1.270   1.785  -0.001  0.00  0.00     0.097 A 
ATOM      3  C4  <0> d           2.102   0.650  -0.015  0.00  0.00     0.170 A 
ATOM      4  N1  <0> d           1.340  -0.418  -0.013  0.00  0.00    -0.153 NA
ATOM      5  N2  <0> d           0.002  -0.004   0.002  0.00  0.00    -0.274 N 
ENDROOT
BRANCH   1   6
ATOM      6  C1  <0> d          -1.245   2.229   0.020  0.00  0.00    -0.034 C 
ATOM      7  H1  <0> d          -0.943   3.287   0.025  0.00  0.00     0.035 H 
ATOM      8  H2  <0> d          -1.840   2.014   0.920  0.00  0.00     0.035 H 
ATOM      9  H3  <0> d          -1.849   2.024  -0.876  0.00  0.00     0.035 H 
ENDBRANCH   1   6
BRANCH   5  10
ATOM     10  C5  <0> d          -1.171  -0.882   0.008  0.00  0.00     0.003 C 
ATOM     11  H4  <0> d          -0.844  -1.932  -0.001  0.00  0.00     0.059 H 
ATOM     12  H5  <0> d          -1.784  -0.681  -0.883  0.00  0.00     0.059 H 
ATOM     13  H6  <0> d          -1.767  -0.691   0.913  0.00  0.00     0.059 H 
ENDBRANCH   5  10
BRANCH   2  14
ATOM     14  N4  <0> d           1.697   3.128   0.002  0.00  0.00    -0.394 N 
ATOM     15  H9  <0> d           2.772   3.364  -0.007  0.00  0.00     0.156 HD
ATOM     16  H10 <0> d           0.956   3.941   0.013  0.00  0.00     0.156 HD
ENDBRANCH   2  14
BRANCH   3  17
ATOM     17  N3  <0> d           3.503   0.659  -0.029  0.00  0.00    -0.381 N 
ATOM     18  H7  <0> d           4.060  -0.290  -0.039  0.00  0.00     0.157 HD
ATOM     19  H8  <0> d           4.047   1.615  -0.029  0.00  0.00     0.157 HD
ENDBRANCH   3  17
TORSDOF 4
