REMARK  4 active torsions:
REMARK  status: ('A' for Active; 'I' for Inactive)
REMARK    1  A    between atoms: C1_1  and  C2_2 
REMARK    2  A    between atoms: C2_2  and  C3_3 
REMARK    3  A    between atoms: C2_2  and  N1_4 
REMARK    4  A    between atoms: C7_8  and  C8_9 
ROOT
ATOM      1  N1  <0> d          -1.372  -0.511   0.012  0.00  0.00    -0.347 N 
ATOM      2  C4  <0> d          -2.292  -0.269   0.969  0.00  0.00    -0.019 A 
ATOM      3  C5  <0> d          -3.446  -0.900   0.641  0.00  0.00    -0.066 A 
ATOM      4  C6  <0> d          -3.243  -1.565  -0.570  0.00  0.00    -0.049 A 
ATOM      5  C7  <0> d          -1.941  -1.309  -0.956  0.00  0.00     0.112 A 
ATOM      6  H8  <0> d          -2.134   0.330   1.853  0.00  0.00     0.111 H 
ATOM      7  H9  <0> d          -4.361  -0.890   1.216  0.00  0.00     0.085 H 
ATOM      8  H10 <0> d          -3.967  -2.162  -1.105  0.00  0.00     0.087 H 
ENDROOT
BRANCH   1   9
ATOM      9  C2  <0> d           0.002  -0.004   0.002  0.00  0.00     0.010 C 
ATOM     10  H4  <0> d           0.512  -0.356  -0.895  0.00  0.00     0.072 H 
BRANCH   9  11
ATOM     11  C1  <0> d          -0.019   1.526   0.010  0.00  0.00    -0.057 C 
ATOM     12  H1  <0> d           1.004   1.903   0.003  0.00  0.00     0.030 H 
ATOM     13  H2  <0> d          -0.546   1.887  -0.873  0.00  0.00     0.030 H 
ATOM     14  H3  <0> d          -0.529   1.877   0.907  0.00  0.00     0.030 H 
ENDBRANCH   9  11
BRANCH   9  15
ATOM     15  C3  <0> d           0.742  -0.511   1.242  0.00  0.00    -0.057 C 
ATOM     16  H5  <0> d           0.757  -1.601   1.236  0.00  0.00     0.030 H 
ATOM     17  H6  <0> d           1.765  -0.134   1.234  0.00  0.00     0.030 H 
ATOM     18  H7  <0> d           0.232  -0.159   2.138  0.00  0.00     0.030 H 
ENDBRANCH   9  15
ENDBRANCH   1   9
BRANCH   5  19
ATOM     19  C8  <0> d          -1.287  -1.798  -2.168  0.00  0.00     0.227 C 
ATOM     20  O1  <0> d          -0.120  -1.502  -2.397  0.00  0.00    -0.643 OA
ATOM     21  O2  <0> d          -1.904  -2.505  -2.955  0.00  0.00    -0.643 OA
ENDBRANCH   5  19
TORSDOF 4
