REMARK  0 active torsions:
REMARK  status: ('A' for Active; 'I' for Inactive)
ROOT
ATOM      1  C1  <0> d          -0.017   1.365   0.009  0.00  0.00    -0.082 A 
ATOM      2  C2  <0> d           1.161   2.099   0.002  0.00  0.00    -0.082 A 
ATOM      3  C3  <0> d           2.372   1.438  -0.013  0.00  0.00    -0.066 A 
ATOM      4  C4  <0> d           2.405   0.055  -0.021  0.00  0.00     0.014 A 
ATOM      5  C5  <0> d           1.229  -0.717  -0.014  0.00  0.00     0.027 A 
ATOM      6  C6  <0> d           0.002  -0.004   0.002  0.00  0.00    -0.068 A 
ATOM      7  C7  <0> d           1.385  -2.169  -0.023  0.00  0.00     0.170 A 
ATOM      8  O1  <0> d           0.434  -2.923  -0.019  0.00  0.00    -0.291 OA
ATOM      9  C8  <0> d           2.810  -2.669  -0.040  0.00  0.00     0.041 A 
ATOM     10  S1  <0> d           3.757  -1.097  -0.040  0.00  0.00    -0.121 SA
ATOM     11  H1  <0> d          -0.964   1.882   0.026  0.00  0.00     0.083 H 
ATOM     12  H2  <0> d           1.130   3.179   0.008  0.00  0.00     0.083 H 
ATOM     13  H3  <0> d           3.294   2.000  -0.019  0.00  0.00     0.085 H 
ATOM     14  H4  <0> d          -0.930  -0.549   0.008  0.00  0.00     0.085 H 
ATOM     15  H5  <0> d           3.029  -3.255   0.852  0.00  0.00     0.061 H 
ATOM     16  H6  <0> d           3.011  -3.245  -0.943  0.00  0.00     0.061 H 
ENDROOT
TORSDOF 0
