REMARK  2 active torsions:
REMARK  status: ('A' for Active; 'I' for Inactive)
REMARK    1  A    between atoms: C1_1  and  C2_2 
REMARK    2  A    between atoms: C2_2  and  C3_4 
ROOT
ATOM      1  C3  <0> d           2.110   0.820  -0.917  0.00  0.00     0.061 C 
ATOM      2  H1  <0> d           2.264   1.187  -1.943  0.00  0.00     0.063 H 
ATOM      3  C4  <0> d           1.490   1.896  -0.002  0.00  0.00    -0.049 C 
ATOM      4  C5  <0> d          -0.019   1.545   0.011  0.00  0.00    -0.058 C 
ATOM      5  C6  <0> d           0.002  -0.004   0.002  0.00  0.00    -0.009 C 
ATOM      6  C7  <0> d           1.163  -0.362  -0.909  0.00  0.00     0.138 C 
ATOM      7  O2  <0> d           1.305  -1.397  -1.514  0.00  0.00    -0.297 OA
ATOM      8  H5  <0> d           1.942   1.830   0.999  0.00  0.00     0.034 H 
ATOM      9  H6  <0> d           1.682   2.893  -0.426  0.00  0.00     0.034 H 
ATOM     10  H7  <0> d          -0.485   1.962   0.915  0.00  0.00     0.033 H 
ATOM     11  H8  <0> d          -0.502   1.971  -0.881  0.00  0.00     0.033 H 
ATOM     12  H9  <0> d           0.154  -0.374   1.027  0.00  0.00     0.044 H 
ATOM     13  H10 <0> d          -0.956  -0.382  -0.386  0.00  0.00     0.044 H 
ENDROOT
BRANCH   1  14
ATOM     14  C2  <0> d           3.458   0.404  -0.386  0.00  0.00     0.134 C 
ATOM     15  O1  <0> d           3.684   0.464   0.799  0.00  0.00    -0.298 OA
BRANCH  14  16
ATOM     16  C1  <0> d           4.522  -0.086  -1.333  0.00  0.00    -0.020 C 
ATOM     17  H2  <0> d           4.134  -0.070  -2.362  0.00  0.00     0.037 H 
ATOM     18  H3  <0> d           4.807  -1.114  -1.064  0.00  0.00     0.037 H 
ATOM     19  H4  <0> d           5.404   0.568  -1.263  0.00  0.00     0.037 H 
ENDBRANCH  14  16
ENDBRANCH   1  14
TORSDOF 2
