REMARK  6 active torsions:
REMARK  status: ('A' for Active; 'I' for Inactive)
REMARK    1  A    between atoms: C1_1  and  C2_2 
REMARK    2  A    between atoms: C2_2  and  C3_3 
REMARK    3  A    between atoms: C2_2  and  C4_5 
REMARK    4  A    between atoms: C2_2  and  C5_7 
REMARK    5  A    between atoms: C3_3  and  O1_4 
REMARK    6  A    between atoms: C4_5  and  O2_6 
ROOT
ATOM      1  C2  <0> d          -0.018   1.503   0.010  0.00  0.00     0.087 C 
ENDROOT
BRANCH   1   2
ATOM      2  C1  <0> d          -0.735   1.996   1.269  0.00  0.00    -0.056 C 
ATOM      3  H1  <0> d          -0.207   1.635   2.152  0.00  0.00     0.029 H 
ATOM      4  H2  <0> d          -0.749   3.086   1.275  0.00  0.00     0.029 H 
ATOM      5  H3  <0> d          -1.757   1.619   1.277  0.00  0.00     0.029 H 
ENDBRANCH   1   2
BRANCH   1   6
ATOM      6  C3  <0> d           1.417   2.032  -0.001  0.00  0.00     0.035 C 
ATOM      7  H4  <0> d           1.402   3.122   0.005  0.00  0.00     0.076 H 
ATOM      8  H5  <0> d           1.944   1.671   0.882  0.00  0.00     0.076 H 
BRANCH   6   9
ATOM      9  O1  <0> d           2.086   1.571  -1.176  0.00  0.00    -0.399 OA
ATOM     10  H6  <0> d           3.003   1.870  -1.250  0.00  0.00     0.209 HD
ENDBRANCH   6   9
ENDBRANCH   1   6
BRANCH   1  11
ATOM     11  C4  <0> d          -0.758   2.010  -1.229  0.00  0.00     0.035 C 
ATOM     12  H7  <0> d          -0.248   1.658  -2.126  0.00  0.00     0.076 H 
ATOM     13  H8  <0> d          -1.781   1.632  -1.222  0.00  0.00     0.076 H 
BRANCH  11  14
ATOM     14  O2  <0> d          -0.778   3.438  -1.221  0.00  0.00    -0.399 OA
ATOM     15  H9  <0> d          -1.232   3.830  -1.980  0.00  0.00     0.209 HD
ENDBRANCH  11  14
ENDBRANCH   1  11
BRANCH   1  16
ATOM     16  C5  <0> d           0.002  -0.004   0.002  0.00  0.00     0.185 C 
ATOM     17  O3  <0> d          -0.521  -0.610  -0.902  0.00  0.00    -0.647 OA
ATOM     18  O4  <0> d           0.602  -0.673   1.000  0.00  0.00    -0.647 OA
ENDBRANCH   1  16
TORSDOF 6
