REMARK  4 active torsions:
REMARK  status: ('A' for Active; 'I' for Inactive)
REMARK    1  A    between atoms: C1_1  and  C2_2 
REMARK    2  A    between atoms: C2_2  and  C3_4 
REMARK    3  A    between atoms: C2_2  and  C5_9 
REMARK    4  A    between atoms: C3_4  and  C4_5 
ROOT
ATOM      1  C2  <0> d          -0.651   1.553   1.335  0.00  0.00     0.035 C 
ATOM      2  H1  <0> d          -0.849   2.591   1.067  0.00  0.00     0.056 H 
ENDROOT
BRANCH   1   3
ATOM      3  C1  <0> d          -1.976   0.824   1.566  0.00  0.00    -0.063 C 
ATOM      4  H2  <0> d          -2.627   0.970   0.703  0.00  0.00     0.028 H 
ATOM      5  H3  <0> d          -1.786  -0.240   1.701  0.00  0.00     0.028 H 
ATOM      6  H4  <0> d          -2.460   1.224   2.457  0.00  0.00     0.028 H 
ENDBRANCH   1   3
BRANCH   1   7
ATOM      7  C3  <0> d           0.115   0.871   0.199  0.00  0.00     0.038 C 
ATOM      8  H5  <0> d           0.216  -0.192   0.416  0.00  0.00     0.047 H 
ATOM      9  H6  <0> d           1.104   1.319   0.108  0.00  0.00     0.047 H 
BRANCH   7  10
ATOM     10  C4  <0> d          -0.650   1.053  -1.113  0.00  0.00     0.388 C 
ATOM     11  F1  <0> d          -0.896   2.414  -1.325  0.00  0.00    -0.171 F 
ATOM     12  F2  <0> d           0.113   0.548  -2.171  0.00  0.00    -0.171 F 
ATOM     13  F3  <0> d          -1.866   0.364  -1.044  0.00  0.00    -0.171 F 
ENDBRANCH   7  10
ENDBRANCH   1   7
BRANCH   1  14
ATOM     14  C5  <0> d           0.173   1.508   2.595  0.00  0.00     0.176 C 
ATOM     15  O1  <0> d           1.262   0.984   2.586  0.00  0.00    -0.648 OA
ATOM     16  O2  <0> d          -0.301   2.050   3.728  0.00  0.00    -0.648 OA
ENDBRANCH   1  14
TORSDOF 4
