REMARK  5 active torsions:
REMARK  status: ('A' for Active; 'I' for Inactive)
REMARK    1  A    between atoms: C1_1  and  C2_2 
REMARK    2  A    between atoms: C2_2  and  O1_3 
REMARK    3  A    between atoms: O1_3  and  C3_4 
REMARK    4  A    between atoms: C3_4  and  C4_5 
REMARK    5  A    between atoms: C8_9  and  N1_11 
ROOT
ATOM      1  C4  <0> d          -0.049   3.845   0.021  0.00  0.00    -0.032 A 
ATOM      2  C5  <0> d           1.156   3.166   0.007  0.00  0.00    -0.075 A 
ATOM      3  C6  <0> d           1.174   1.783   0.000  0.00  0.00    -0.080 A 
ATOM      4  C7  <0> d          -0.013   1.076   0.008  0.00  0.00    -0.058 A 
ATOM      5  C8  <0> d          -1.224   1.755   0.017  0.00  0.00     0.026 A 
ATOM      6  C9  <0> d          -1.238   3.144   0.029  0.00  0.00    -0.050 A 
ATOM      7  H8  <0> d           2.085   3.717   0.001  0.00  0.00     0.084 H 
ATOM      8  H9  <0> d           2.116   1.256  -0.011  0.00  0.00     0.083 H 
ATOM      9  H10 <0> d           0.002  -0.004   0.002  0.00  0.00     0.086 H 
ATOM     10  H11 <0> d          -2.179   3.675   0.040  0.00  0.00     0.087 H 
ENDROOT
BRANCH   1  11
ATOM     11  C3  <0> d          -0.064   5.352   0.029  0.00  0.00     0.043 C 
ATOM     12  H6  <0> d           0.836   5.725   0.541  0.00  0.00     0.081 H 
ATOM     13  H7  <0> d          -0.961   5.707   0.557  0.00  0.00     0.081 H 
BRANCH  11  14
ATOM     14  O1  <0> d          -0.081   5.835  -1.316  0.00  0.00    -0.387 OA
BRANCH  14  15
ATOM     15  C2  <0> d          -0.095   7.260  -1.422  0.00  0.00     0.017 C 
ATOM     16  H4  <0> d           0.803   7.673  -0.941  0.00  0.00     0.073 H 
ATOM     17  H5  <0> d          -0.993   7.655  -0.924  0.00  0.00     0.073 H 
BRANCH  15  18
ATOM     18  C1  <0> d          -0.113   7.661  -2.899  0.00  0.00    -0.056 C 
ATOM     19  H1  <0> d          -0.124   8.758  -2.980  0.00  0.00     0.030 H 
ATOM     20  H2  <0> d          -1.011   7.248  -3.380  0.00  0.00     0.030 H 
ATOM     21  H3  <0> d           0.785   7.266  -3.397  0.00  0.00     0.030 H 
ENDBRANCH  15  18
ENDBRANCH  14  15
ENDBRANCH  11  14
ENDBRANCH   1  11
BRANCH   5  22
ATOM     22  N1  <0> d          -2.426   1.042   0.020  0.00  0.00    -0.399 N 
ATOM     23  H12 <0> d          -3.385   1.581   0.027  0.00  0.00     0.156 HD
ATOM     24  H13 <0> d          -2.413  -0.058   0.014  0.00  0.00     0.156 HD
ENDBRANCH   5  22
TORSDOF 5
