REMARK  1 active torsions:
REMARK  status: ('A' for Active; 'I' for Inactive)
REMARK    1  A    between atoms: C1_1  and  N1_2 
ROOT
ATOM      1  N1  <0> d           0.574   3.172   0.013  0.00  0.00    -0.284 N 
ATOM      2  C2  <0> d           1.054   1.910   0.002  0.00  0.00     0.001 A 
ATOM      3  C3  <0> d          -0.013   1.076   0.008  0.00  0.00    -0.027 A 
ATOM      4  C4  <0> d          -1.151   1.917   0.017  0.00  0.00     0.158 A 
ATOM      5  N2  <0> d          -0.710   3.160   0.025  0.00  0.00    -0.162 NA
ATOM      6  C5  <0> d          -2.520   1.498   0.020  0.00  0.00     0.121 C 
ATOM      7  N3  <0> d          -3.606   1.166   0.023  0.00  0.00    -0.190 NA
ATOM      8  H4  <0> d           2.094   1.620  -0.008  0.00  0.00     0.114 H 
ATOM      9  H5  <0> d           0.002  -0.004   0.002  0.00  0.00     0.090 H 
ENDROOT
BRANCH   1  10
ATOM     10  C1  <0> d           1.400   4.382   0.012  0.00  0.00     0.002 C 
ATOM     11  H1  <0> d           1.596   4.687  -1.016  0.00  0.00     0.059 H 
ATOM     12  H2  <0> d           0.875   5.181   0.534  0.00  0.00     0.059 H 
ATOM     13  H3  <0> d           2.345   4.178   0.516  0.00  0.00     0.059 H 
ENDBRANCH   1  10
TORSDOF 1
