REMARK  0 active torsions:
REMARK  status: ('A' for Active; 'I' for Inactive)
ROOT
ATOM      1  C1  <0> d           0.002  -0.004   0.002  0.00  0.00    -0.045 A 
ATOM      2  C2  <0> d          -0.017   1.374   0.010  0.00  0.00    -0.064 A 
ATOM      3  C3  <0> d           1.185   2.086   0.002  0.00  0.00     0.048 A 
ATOM      4  C4  <0> d           2.397   1.387  -0.013  0.00  0.00    -0.015 A 
ATOM      5  C5  <0> d           2.407   0.014  -0.021  0.00  0.00    -0.036 A 
ATOM      6  C6  <0> d           1.208  -0.687  -0.013  0.00  0.00     0.117 A 
ATOM      7  F1  <0> d           1.218  -2.038  -0.020  0.00  0.00    -0.206 F 
ATOM      8  C7  <0> d           3.487   2.430  -0.018  0.00  0.00     0.054 A 
ATOM      9  O1  <0> d           2.819   3.722  -0.005  0.00  0.00    -0.313 OA
ATOM     10  C8  <0> d           1.489   3.527   0.007  0.00  0.00     0.294 A 
ATOM     11  O2  <0> d           0.657   4.412   0.019  0.00  0.00    -0.259 OA
ATOM     12  H1  <0> d          -0.927  -0.554   0.008  0.00  0.00     0.088 H 
ATOM     13  H2  <0> d          -0.958   1.903   0.017  0.00  0.00     0.085 H 
ATOM     14  H3  <0> d           3.345  -0.520  -0.033  0.00  0.00     0.089 H 
ATOM     15  H4  <0> d           4.119   2.305   0.873  0.00  0.00     0.082 H 
ATOM     16  H5  <0> d           4.102   2.314  -0.923  0.00  0.00     0.082 H 
ENDROOT
TORSDOF 0
