REMARK  0 active torsions:
REMARK  status: ('A' for Active; 'I' for Inactive)
ROOT
ATOM      1  C1  <0> d           1.484   1.918  -0.002  0.00  0.00    -0.057 C 
ATOM      2  C2  <0> d           2.099   0.829  -0.916  0.00  0.00    -0.008 C 
ATOM      3  C3  <0> d           1.330  -0.435  -0.570  0.00  0.00     0.142 C 
ATOM      4  O1  <0> d           1.710  -1.571  -0.724  0.00  0.00    -0.297 OA
ATOM      5  C4  <0> d           0.002  -0.004   0.002  0.00  0.00     0.081 C 
ATOM      6  C5  <0> d          -0.019   1.533   0.011  0.00  0.00    -0.044 C 
ATOM      7  C6  <0> d          -0.169  -0.544   1.431  0.00  0.00    -0.044 C 
ATOM      8  C7  <0> d          -1.681  -0.878   1.517  0.00  0.00    -0.057 C 
ATOM      9  C8  <0> d          -1.985  -1.411   0.094  0.00  0.00    -0.008 C 
ATOM     10  C9  <0> d          -1.139  -0.543  -0.824  0.00  0.00     0.142 C 
ATOM     11  O2  <0> d          -1.343  -0.326  -1.995  0.00  0.00    -0.297 OA
ATOM     12  H1  <0> d           1.626   2.910  -0.431  0.00  0.00     0.033 H 
ATOM     13  H2  <0> d           1.905   1.865   1.002  0.00  0.00     0.033 H 
ATOM     14  H3  <0> d           3.077   0.746  -0.723  0.00  0.00     0.044 H 
ATOM     15  H4  <0> d           1.957   1.086  -1.966  0.00  0.00     0.044 H 
ATOM     16  H5  <0> d          -0.520   1.915  -0.879  0.00  0.00     0.035 H 
ATOM     17  H6  <0> d          -0.503   1.905   0.914  0.00  0.00     0.035 H 
ATOM     18  H7  <0> d           0.432  -1.442   1.576  0.00  0.00     0.035 H 
ATOM     19  H8  <0> d           0.100   0.218   2.163  0.00  0.00     0.035 H 
ATOM     20  H9  <0> d          -1.865  -1.648   2.266  0.00  0.00     0.033 H 
ATOM     21  H10 <0> d          -2.264   0.017   1.732  0.00  0.00     0.033 H 
ATOM     22  H11 <0> d          -1.736  -2.378   0.040  0.00  0.00     0.044 H 
ATOM     23  H12 <0> d          -3.043  -1.295  -0.138  0.00  0.00     0.044 H 
ENDROOT
TORSDOF 0
