REMARK  4 active torsions:
REMARK  status: ('A' for Active; 'I' for Inactive)
REMARK    1  A    between atoms: C1_1  and  C2_2 
REMARK    2  A    between atoms: C2_2  and  C3_3 
REMARK    3  A    between atoms: C3_3  and  C4_4 
REMARK    4  A    between atoms: C7_9  and  C8_12 
ROOT
ATOM      1  C4  <0> d          -0.017   1.425   0.010  0.00  0.00     0.131 C 
ATOM      2  H1  <0> d          -0.527   1.777   0.907  0.00  0.00     0.129 H 
ATOM      3  O1  <0> d           1.324   1.920  -0.000  0.00  0.00    -0.361 OA
ATOM      4  C5  <0> d           2.111   1.477   1.110  0.00  0.00     0.025 C 
ATOM      5  C6  <0> d           2.140  -0.055   1.119  0.00  0.00    -0.021 C 
ATOM      6  C7  <0> d           0.699  -0.578   1.112  0.00  0.00     0.040 C 
ATOM      7  H2  <0> d           0.705  -1.663   1.018  0.00  0.00     0.083 H 
ATOM      8  O2  <0> d           0.002  -0.004   0.002  0.00  0.00    -0.356 OA
ATOM      9  H10 <0> d           1.668   1.839   2.038  0.00  0.00     0.074 H 
ATOM     10  H11 <0> d           3.126   1.861   1.016  0.00  0.00     0.074 H 
ATOM     11  H12 <0> d           2.651  -0.405   2.016  0.00  0.00     0.040 H 
ATOM     12  H13 <0> d           2.664  -0.417   0.235  0.00  0.00     0.040 H 
ENDROOT
BRANCH   1  13
ATOM     13  C3  <0> d          -0.757   1.932  -1.230  0.00  0.00    -0.019 C 
ATOM     14  H8  <0> d          -0.199   1.656  -2.124  0.00  0.00     0.040 H 
ATOM     15  H9  <0> d          -1.750   1.484  -1.268  0.00  0.00     0.040 H 
BRANCH  13  16
ATOM     16  C2  <0> d          -0.887   3.455  -1.159  0.00  0.00    -0.064 C 
ATOM     17  H6  <0> d          -1.446   3.731  -0.264  0.00  0.00     0.032 H 
ATOM     18  H7  <0> d           0.106   3.903  -1.120  0.00  0.00     0.032 H 
BRANCH  16  19
ATOM     19  C1  <0> d          -1.627   3.962  -2.398  0.00  0.00    -0.076 C 
ATOM     20  H3  <0> d          -1.720   5.047  -2.348  0.00  0.00     0.027 H 
ATOM     21  H4  <0> d          -1.069   3.686  -3.293  0.00  0.00     0.027 H 
ATOM     22  H5  <0> d          -2.620   3.514  -2.437  0.00  0.00     0.027 H 
ENDBRANCH  16  19
ENDBRANCH  13  16
ENDBRANCH   1  13
BRANCH   6  23
ATOM     23  C8  <0> d           0.002  -0.181   2.415  0.00  0.00    -0.052 C 
ATOM     24  H14 <0> d          -1.025  -0.546   2.404  0.00  0.00     0.030 H 
ATOM     25  H15 <0> d           0.534  -0.618   3.260  0.00  0.00     0.030 H 
ATOM     26  H16 <0> d          -0.000   0.905   2.510  0.00  0.00     0.030 H 
ENDBRANCH   6  23
TORSDOF 4
