REMARK  1 active torsions:
REMARK  status: ('A' for Active; 'I' for Inactive)
REMARK       I    between atoms: N1_5  and  C7_10 
REMARK    1  A    between atoms: C7_10  and  O2_12 
ROOT
ATOM      1  C1  <0> d           2.054   0.731  -0.918  0.00  0.00    -0.035 C 
ATOM      2  C2  <0> d           1.492   1.881  -0.002  0.00  0.00    -0.020 C 
ATOM      3  H1  <0> d           1.723   2.910  -0.276  0.00  0.00     0.048 H 
ATOM      4  C3  <0> d          -0.018   1.476   0.010  0.00  0.00     0.007 C 
ATOM      5  N1  <0> d           0.002  -0.004   0.002  0.00  0.00    -0.320 N 
ATOM      6  C4  <0> d           1.445  -0.389   0.002  0.00  0.00     0.034 C 
ATOM      7  H2  <0> d           1.664  -1.423  -0.265  0.00  0.00     0.079 H 
ATOM      8  C5  <0> d           1.966   0.080   1.366  0.00  0.00    -0.084 C 
ATOM      9  C6  <0> d           2.000   1.399   1.364  0.00  0.00    -0.099 C 
ATOM     10  C7  <0> d          -1.061  -0.832  -0.005  0.00  0.00     0.252 C 
ATOM     11  O1  <0> d          -0.894  -2.036  -0.012  0.00  0.00    -0.632 OA
ATOM     12  H3  <0> d           3.143   0.708  -0.944  0.00  0.00     0.037 H 
ATOM     13  H4  <0> d           1.617   0.737  -1.917  0.00  0.00     0.037 H 
ATOM     14  H5  <0> d          -0.522   1.856  -0.879  0.00  0.00     0.065 H 
ATOM     15  H6  <0> d          -0.505   1.846   0.913  0.00  0.00     0.065 H 
ATOM     16  H7  <0> d           2.255  -0.559   2.187  0.00  0.00     0.079 H 
ATOM     17  H8  <0> d           2.326   2.027   2.179  0.00  0.00     0.077 H 
ENDROOT
BRANCH  10  18
ATOM     18  O2  <0> d          -2.309  -0.326  -0.004  0.00  0.00    -0.760 OA
ATOM     19  H9  <0> d          -3.039  -0.960  -0.009  0.00  0.00     0.169 HD
ENDBRANCH  10  18
TORSDOF 1
