REMARK  8 active torsions:
REMARK  status: ('A' for Active; 'I' for Inactive)
REMARK    1  A    between atoms: C1_1  and  C2_2 
REMARK    2  A    between atoms: C2_2  and  C3_3 
REMARK    3  A    between atoms: C3_3  and  C4_5 
REMARK    4  A    between atoms: C3_3  and  C5_6 
REMARK    5  A    between atoms: C5_6  and  C6_8 
REMARK    6  A    between atoms: C5_6  and  O1_11 
REMARK    7  A    between atoms: C6_8  and  C7_9 
REMARK    8  A    between atoms: C6_8  and  C8_10 
ROOT
ATOM      1  C5  <0> d          -0.753   1.377   3.873  0.00  0.00     0.041 C 
ATOM      2  H2  <0> d          -1.732   0.949   3.657  0.00  0.00     0.084 H 
ENDROOT
BRANCH   1   3
ATOM      3  C3  <0> d           0.133   1.278   2.630  0.00  0.00    -0.033 C 
ATOM      4  H1  <0> d           0.293   0.229   2.380  0.00  0.00     0.043 H 
BRANCH   3   5
ATOM      5  C2  <0> d          -0.553   1.983   1.457  0.00  0.00    -0.063 C 
ATOM      6  H6  <0> d          -0.632   3.049   1.671  0.00  0.00     0.033 H 
ATOM      7  H7  <0> d          -1.549   1.565   1.315  0.00  0.00     0.033 H 
BRANCH   5   8
ATOM      8  C1  <0> d           0.273   1.777   0.186  0.00  0.00    -0.076 C 
ATOM      9  H3  <0> d           0.352   0.711  -0.027  0.00  0.00     0.027 H 
ATOM     10  H4  <0> d           1.269   2.195   0.328  0.00  0.00     0.027 H 
ATOM     11  H5  <0> d          -0.216   2.279  -0.650  0.00  0.00     0.027 H 
ENDBRANCH   5   8
ENDBRANCH   3   5
BRANCH   3  12
ATOM     12  C4  <0> d           1.480   1.947   2.909  0.00  0.00    -0.071 C 
ATOM     13  H8  <0> d           2.108   1.885   2.020  0.00  0.00     0.028 H 
ATOM     14  H9  <0> d           1.320   2.993   3.169  0.00  0.00     0.028 H 
ATOM     15  H10 <0> d           1.974   1.438   3.737  0.00  0.00     0.028 H 
ENDBRANCH   3  12
ENDBRANCH   1   3
BRANCH   1  16
ATOM     16  C6  <0> d          -0.103   0.608   5.025  0.00  0.00    -0.036 C 
ATOM     17  H11 <0> d           0.914   0.971   5.176  0.00  0.00     0.042 H 
BRANCH  16  18
ATOM     18  C7  <0> d          -0.915   0.823   6.304  0.00  0.00    -0.071 C 
ATOM     19  H12 <0> d          -1.954   0.544   6.126  0.00  0.00     0.028 H 
ATOM     20  H13 <0> d          -0.505   0.205   7.103  0.00  0.00     0.028 H 
ATOM     21  H14 <0> d          -0.865   1.872   6.594  0.00  0.00     0.028 H 
ENDBRANCH  16  18
BRANCH  16  22
ATOM     22  C8  <0> d          -0.069  -0.883   4.687  0.00  0.00    -0.071 C 
ATOM     23  H15 <0> d           0.510  -1.036   3.776  0.00  0.00     0.028 H 
ATOM     24  H16 <0> d           0.395  -1.431   5.508  0.00  0.00     0.028 H 
ATOM     25  H17 <0> d          -1.085  -1.246   4.537  0.00  0.00     0.028 H 
ENDBRANCH  16  22
ENDBRANCH   1  16
BRANCH   1  26
ATOM     26  O1  <0> d          -0.905   2.749   4.242  0.00  0.00    -0.395 OA
ATOM     27  H18 <0> d          -0.072   3.196   4.449  0.00  0.00     0.210 HD
ENDBRANCH   1  26
TORSDOF 8
