REMARK  1 active torsions:
REMARK  status: ('A' for Active; 'I' for Inactive)
REMARK    1  A    between atoms: C1_1  and  C2_2 
ROOT
ATOM      1  C2  <0> d           1.208   1.753  -0.000  0.00  0.00     0.130 A 
ATOM      2  N1  <0> d          -0.015   1.284   0.009  0.00  0.00    -0.135 NA
ATOM      3  N2  <0> d           0.002  -0.004   0.002  0.00  0.00    -0.128 NA
ATOM      4  C3  <0> d           1.254  -0.424  -0.012  0.00  0.00     0.175 A 
ATOM      5  N3  <0> d           2.049   0.700  -0.014  0.00  0.00    -0.289 N 
ATOM      6  C4  <0> d           3.408   0.553  -0.028  0.00  0.00     0.005 A 
ATOM      7  C5  <0> d           3.946  -0.684  -0.039  0.00  0.00     0.017 A 
ATOM      8  N4  <0> d           3.177  -1.776  -0.038  0.00  0.00    -0.268 NA
ATOM      9  C6  <0> d           1.868  -1.691  -0.025  0.00  0.00     0.048 A 
ATOM     10  H4  <0> d           4.047   1.424  -0.029  0.00  0.00     0.114 H 
ATOM     11  H5  <0> d           5.020  -0.794  -0.050  0.00  0.00     0.116 H 
ATOM     12  H6  <0> d           1.265  -2.587  -0.024  0.00  0.00     0.120 H 
ENDROOT
BRANCH   1  13
ATOM     13  C1  <0> d           1.603   3.207   0.004  0.00  0.00    -0.019 C 
ATOM     14  H1  <0> d           0.698   3.833   0.016  0.00  0.00     0.037 H 
ATOM     15  H2  <0> d           2.191   3.430  -0.899  0.00  0.00     0.037 H 
ATOM     16  H3  <0> d           2.208   3.421   0.898  0.00  0.00     0.037 H 
ENDBRANCH   1  13
TORSDOF 1
