REMARK  1 active torsions:
REMARK  status: ('A' for Active; 'I' for Inactive)
REMARK    1  A    between atoms: C3_4  and  N4_9 
ROOT
ATOM      1  C1  <0> d          -3.589   2.904   0.035  0.00  0.00     0.021 A 
ATOM      2  C2  <0> d          -2.396   3.610   0.033  0.00  0.00     0.021 A 
ATOM      3  N1  <0> d          -1.241   2.969   0.030  0.00  0.00    -0.239 NA
ATOM      4  C3  <0> d          -1.219   1.641   0.017  0.00  0.00     0.161 A 
ATOM      5  C4  <0> d          -2.429   0.926   0.019  0.00  0.00     0.181 A 
ATOM      6  N2  <0> d          -3.584   1.586   0.028  0.00  0.00    -0.245 NA
ATOM      7  C5  <0> d          -2.418  -0.506   0.010  0.00  0.00     0.123 C 
ATOM      8  N3  <0> d          -2.409  -1.642   0.004  0.00  0.00    -0.190 NA
ATOM      9  H1  <0> d          -4.529   3.437   0.042  0.00  0.00     0.117 H 
ATOM     10  H2  <0> d          -2.410   4.690   0.039  0.00  0.00     0.117 H 
ENDROOT
BRANCH   4  11
ATOM     11  N4  <0> d          -0.011   0.966   0.007  0.00  0.00    -0.382 N 
ATOM     12  H3  <0> d           0.002  -0.004   0.002  0.00  0.00     0.157 HD
ATOM     13  H4  <0> d           0.822   1.462   0.002  0.00  0.00     0.157 HD
ENDBRANCH   4  11
TORSDOF 1
