REMARK  3 active torsions:
REMARK  status: ('A' for Active; 'I' for Inactive)
REMARK    1  A    between atoms: C1_1  and  C2_2 
REMARK    2  A    between atoms: C2_2  and  C3_3 
REMARK    3  A    between atoms: C5_6  and  C10_13 
ROOT
ATOM      1  C3  <0> d           0.718  -0.497  -1.257  0.00  0.00    -0.012 C 
ATOM      2  H1  <0> d           0.264  -0.064  -2.148  0.00  0.00     0.049 H 
ATOM      3  C4  <0> d           0.683  -2.040  -1.329  0.00  0.00    -0.038 C 
ATOM      4  C5  <0> d           2.016  -2.423  -0.654  0.00  0.00     0.013 C 
ATOM      5  H2  <0> d           1.862  -2.600   0.411  0.00  0.00     0.072 H 
ATOM      6  N1  <0> d           2.909  -1.269  -0.854  0.00  0.00    -0.355 N 
ATOM      7  C6  <0> d           2.193  -0.158  -1.195  0.00  0.00     0.016 A 
ATOM      8  C7  <0> d           3.052   0.871  -1.361  0.00  0.00    -0.059 A 
ATOM      9  C8  <0> d           4.350   0.381  -1.120  0.00  0.00    -0.066 A 
ATOM     10  C9  <0> d           4.235  -0.934  -0.811  0.00  0.00    -0.020 A 
ATOM     11  H8  <0> d          -0.165  -2.437  -0.770  0.00  0.00     0.037 H 
ATOM     12  H9  <0> d           0.658  -2.381  -2.364  0.00  0.00     0.037 H 
ATOM     13  H10 <0> d           2.792   1.884  -1.630  0.00  0.00     0.086 H 
ATOM     14  H11 <0> d           5.267   0.948  -1.171  0.00  0.00     0.085 H 
ATOM     15  H12 <0> d           5.049  -1.602  -0.574  0.00  0.00     0.111 H 
ENDROOT
BRANCH   1  16
ATOM     16  C2  <0> d           0.002  -0.004   0.002  0.00  0.00    -0.060 C 
ATOM     17  H6  <0> d           0.529  -0.365   0.885  0.00  0.00     0.033 H 
ATOM     18  H7  <0> d          -1.020  -0.381   0.010  0.00  0.00     0.033 H 
BRANCH  16  19
ATOM     19  C1  <0> d          -0.019   1.526   0.010  0.00  0.00    -0.076 C 
ATOM     20  H3  <0> d           1.004   1.903   0.003  0.00  0.00     0.027 H 
ATOM     21  H4  <0> d          -0.546   1.887  -0.873  0.00  0.00     0.027 H 
ATOM     22  H5  <0> d          -0.529   1.877   0.907  0.00  0.00     0.027 H 
ENDBRANCH  16  19
ENDBRANCH   1  16
BRANCH   4  23
ATOM     23  C10 <0> d           2.605  -3.670  -1.316  0.00  0.00    -0.057 C 
ATOM     24  H13 <0> d           2.785  -3.470  -2.372  0.00  0.00     0.030 H 
ATOM     25  H14 <0> d           3.546  -3.930  -0.830  0.00  0.00     0.030 H 
ATOM     26  H15 <0> d           1.905  -4.500  -1.217  0.00  0.00     0.030 H 
ENDBRANCH   4  23
TORSDOF 3
