REMARK  3 active torsions:
REMARK  status: ('A' for Active; 'I' for Inactive)
REMARK    1  A    between atoms: C1_1  and  C2_2 
REMARK    2  A    between atoms: C4_5  and  C7_11 
REMARK    3  A    between atoms: C5_7  and  O1_10 
ROOT
ATOM      1  C2  <0> d           0.399   2.438   2.034  0.00  0.00    -0.055 C 
ATOM      2  H1  <0> d           0.286   3.495   1.794  0.00  0.00     0.039 H 
ATOM      3  C3  <0> d           1.746   1.900   1.490  0.00  0.00    -0.057 C 
ATOM      4  C4  <0> d           1.429   1.634  -0.003  0.00  0.00    -0.032 C 
ATOM      5  H2  <0> d           1.481   2.561  -0.575  0.00  0.00     0.043 H 
ATOM      6  C5  <0> d          -0.013   1.086   0.008  0.00  0.00     0.039 C 
ATOM      7  H3  <0> d           0.002  -0.004   0.002  0.00  0.00     0.083 H 
ATOM      8  C6  <0> d          -0.667   1.597   1.303  0.00  0.00    -0.038 C 
ATOM      9  H7  <0> d           2.025   0.976   1.996  0.00  0.00     0.034 H 
ATOM     10  H8  <0> d           2.533   2.647   1.591  0.00  0.00     0.034 H 
ATOM     11  H9  <0> d          -1.532   2.216   1.065  0.00  0.00     0.037 H 
ATOM     12  H10 <0> d          -0.971   0.755   1.926  0.00  0.00     0.037 H 
ENDROOT
BRANCH   1  13
ATOM     13  C1  <0> d           0.308   2.221   3.546  0.00  0.00    -0.073 C 
ATOM     14  H4  <0> d           1.125   2.749   4.039  0.00  0.00     0.028 H 
ATOM     15  H5  <0> d          -0.644   2.606   3.911  0.00  0.00     0.028 H 
ATOM     16  H6  <0> d           0.379   1.156   3.766  0.00  0.00     0.028 H 
ENDBRANCH   1  13
BRANCH   6  17
ATOM     17  O1  <0> d          -0.730   1.571  -1.129  0.00  0.00    -0.395 OA
ATOM     18  H11 <0> d          -1.647   1.270  -1.173  0.00  0.00     0.210 HD
ENDBRANCH   6  17
BRANCH   4  19
ATOM     19  C7  <0> d           2.393   0.595  -0.581  0.00  0.00    -0.071 C 
ATOM     20  H12 <0> d           2.113   0.374  -1.611  0.00  0.00     0.028 H 
ATOM     21  H13 <0> d           3.409   0.989  -0.557  0.00  0.00     0.028 H 
ATOM     22  H14 <0> d           2.342  -0.317   0.013  0.00  0.00     0.028 H 
ENDBRANCH   4  19
TORSDOF 3
