REMARK  1 active torsions:
REMARK  status: ('A' for Active; 'I' for Inactive)
REMARK    1  A    between atoms: C5_7  and  N5_11 
ROOT
ATOM      1  C1  <0> d          -0.016   1.311   0.009  0.00  0.00     0.020 A 
ATOM      2  C2  <0> d           1.175   2.039   0.002  0.00  0.00     0.021 A 
ATOM      3  N1  <0> d           2.338   1.425  -0.013  0.00  0.00    -0.238 NA
ATOM      4  C3  <0> d           2.379   0.090  -0.020  0.00  0.00     0.183 A 
ATOM      5  C4  <0> d           1.169  -0.645  -0.013  0.00  0.00     0.149 A 
ATOM      6  N2  <0> d           0.002  -0.004   0.002  0.00  0.00    -0.252 NA
ATOM      7  C5  <0> d           1.247  -2.062  -0.021  0.00  0.00     0.155 A 
ATOM      8  N3  <0> d           2.448  -2.624  -0.037  0.00  0.00    -0.222 NA
ATOM      9  C6  <0> d           3.551  -1.893  -0.043  0.00  0.00     0.091 A 
ATOM     10  N4  <0> d           3.539  -0.581  -0.035  0.00  0.00    -0.220 NA
ATOM     11  H1  <0> d          -0.961   1.833   0.017  0.00  0.00     0.117 H 
ATOM     12  H2  <0> d           1.141   3.118   0.008  0.00  0.00     0.117 H 
ATOM     13  H3  <0> d           4.505  -2.400  -0.055  0.00  0.00     0.146 H 
ENDROOT
BRANCH   7  14
ATOM     14  N5  <0> d           0.105  -2.834  -0.014  0.00  0.00    -0.382 N 
ATOM     15  H4  <0> d          -0.767  -2.409  -0.003  0.00  0.00     0.157 HD
ATOM     16  H5  <0> d           0.174  -3.801  -0.021  0.00  0.00     0.157 HD
ENDBRANCH   7  14
TORSDOF 1
