REMARK  2 active torsions:
REMARK  status: ('A' for Active; 'I' for Inactive)
REMARK    1  A    between atoms: C1_1  and  O1_2 
REMARK    2  A    between atoms: O1_2  and  C2_3 
ROOT
ATOM      1  C2  <0> d          -1.344   3.157   0.021  0.00  0.00     0.054 C 
ATOM      2  H1  <0> d          -1.632   3.486  -0.978  0.00  0.00     0.089 H 
ATOM      3  C3  <0> d          -0.039   3.846   0.425  0.00  0.00    -0.037 C 
ATOM      4  C4  <0> d           1.101   3.257  -0.415  0.00  0.00    -0.060 C 
ATOM      5  C5  <0> d           1.303   1.797  -0.001  0.00  0.00    -0.050 C 
ATOM      6  C6  <0> d          -0.013   1.076   0.008  0.00  0.00    -0.104 C 
ATOM      7  C7  <0> d          -1.164   1.667   0.017  0.00  0.00    -0.079 C 
ATOM      8  H5  <0> d           0.156   3.669   1.483  0.00  0.00     0.037 H 
ATOM      9  H6  <0> d          -0.117   4.917   0.238  0.00  0.00     0.037 H 
ATOM     10  H7  <0> d           2.018   3.819  -0.234  0.00  0.00     0.033 H 
ATOM     11  H8  <0> d           0.840   3.305  -1.472  0.00  0.00     0.033 H 
ATOM     12  H9  <0> d           1.741   1.762   0.997  0.00  0.00     0.038 H 
ATOM     13  H10 <0> d           1.977   1.312  -0.706  0.00  0.00     0.038 H 
ATOM     14  H11 <0> d           0.002  -0.004   0.002  0.00  0.00     0.076 H 
ATOM     15  H12 <0> d          -2.050   1.050   0.026  0.00  0.00     0.080 H 
ENDROOT
BRANCH   1  16
ATOM     16  O1  <0> d          -2.373   3.510   0.947  0.00  0.00    -0.387 OA
BRANCH  16  17
ATOM     17  C1  <0> d          -3.684   3.530   0.379  0.00  0.00     0.005 C 
ATOM     18  H2  <0> d          -3.927   2.542  -0.009  0.00  0.00     0.066 H 
ATOM     19  H3  <0> d          -4.408   3.807   1.146  0.00  0.00     0.066 H 
ATOM     20  H4  <0> d          -3.718   4.258  -0.432  0.00  0.00     0.066 H 
ENDBRANCH  16  17
ENDBRANCH   1  16
TORSDOF 2
