REMARK  3 active torsions:
REMARK  status: ('A' for Active; 'I' for Inactive)
REMARK    1  A    between atoms: C1_1  and  C2_2 
REMARK    2  A    between atoms: C2_2  and  N1_3 
REMARK    3  A    between atoms: C4_5  and  C7_10 
REMARK       I    between atoms: C7_10  and  N2_12 
ROOT
ATOM      1  N1  <0> d          -4.687   1.123  -0.885  0.00  0.00    -0.352 N 
ATOM      2  C3  <0> d          -3.694   1.808  -0.048  0.00  0.00     0.009 C 
ATOM      3  C4  <0> d          -2.482   0.853   0.018  0.00  0.00     0.047 C 
ATOM      4  H1  <0> d          -2.545   0.203   0.891  0.00  0.00     0.057 H 
ATOM      5  C5  <0> d          -2.646   0.042  -1.288  0.00  0.00     0.022 C 
ATOM      6  C6  <0> d          -4.125   0.131  -1.596  0.00  0.00     0.220 C 
ATOM      7  O1  <0> d          -4.716  -0.590  -2.372  0.00  0.00    -0.273 OA
ATOM      8  H7  <0> d          -4.096   1.978   0.951  0.00  0.00     0.065 H 
ATOM      9  H8  <0> d          -3.404   2.754  -0.504  0.00  0.00     0.065 H 
ATOM     10  H9  <0> d          -2.061   0.492  -2.091  0.00  0.00     0.048 H 
ATOM     11  H10 <0> d          -2.349  -0.995  -1.134  0.00  0.00     0.048 H 
ENDROOT
BRANCH   1  12
ATOM     12  C2  <0> d          -6.108   1.475  -0.937  0.00  0.00    -0.006 C 
ATOM     13  H5  <0> d          -6.695   0.584  -1.160  0.00  0.00     0.063 H 
ATOM     14  H6  <0> d          -6.417   1.883   0.025  0.00  0.00     0.063 H 
BRANCH  12  15
ATOM     15  C1  <0> d          -6.334   2.521  -2.031  0.00  0.00    -0.061 C 
ATOM     16  H2  <0> d          -7.391   2.783  -2.070  0.00  0.00     0.029 H 
ATOM     17  H3  <0> d          -5.747   3.412  -1.809  0.00  0.00     0.029 H 
ATOM     18  H4  <0> d          -6.025   2.112  -2.993  0.00  0.00     0.029 H 
ENDBRANCH  12  15
ENDBRANCH   1  12
BRANCH   3  19
ATOM     19  C7  <0> d          -1.187   1.624   0.017  0.00  0.00     0.221 C 
ATOM     20  O2  <0> d          -1.204   2.837   0.023  0.00  0.00    -0.273 OA
ATOM     21  N2  <0> d          -0.011   0.966   0.007  0.00  0.00    -0.370 N 
ATOM     22  H11 <0> d           0.002  -0.004   0.002  0.00  0.00     0.159 HD
ATOM     23  H12 <0> d           0.822   1.462   0.002  0.00  0.00     0.159 HD
ENDBRANCH   3  19
TORSDOF 3
