REMARK  1 active torsions:
REMARK  status: ('A' for Active; 'I' for Inactive)
REMARK    1  A    between atoms: C1_1  and  C2_2 
ROOT
ATOM      1  C2  <0> d          -0.718   1.572   1.248  0.00  0.00    -0.058 A 
ATOM      2  C3  <0> d          -2.092   1.760   1.124  0.00  0.00    -0.077 A 
ATOM      3  C4  <0> d          -2.999   2.186   2.072  0.00  0.00    -0.080 A 
ATOM      4  C5  <0> d          -2.774   2.549   3.397  0.00  0.00    -0.044 A 
ATOM      5  C6  <0> d          -1.581   2.568   4.094  0.00  0.00     0.157 A 
ATOM      6  C7  <0> d          -0.287   2.221   3.629  0.00  0.00     0.208 A 
ATOM      7  O1  <0> d           0.619   2.321   4.445  0.00  0.00    -0.285 OA
ATOM      8  C8  <0> d           0.084   1.775   2.348  0.00  0.00    -0.026 A 
ATOM      9  O2  <0> d          -1.657   2.971   5.386  0.00  0.00    -0.188 OA
ATOM     10  H4  <0> d          -2.507   1.537   0.152  0.00  0.00     0.084 H 
ATOM     11  H5  <0> d          -4.025   2.250   1.740  0.00  0.00     0.083 H 
ATOM     12  H6  <0> d          -3.647   2.857   3.953  0.00  0.00     0.088 H 
ATOM     13  H7  <0> d           1.135   1.566   2.210  0.00  0.00     0.090 H 
ENDROOT
BRANCH   1  14
ATOM     14  C1  <0> d          -0.013   1.086   0.008  0.00  0.00    -0.051 C 
ATOM     15  H1  <0> d          -0.744   0.958  -0.804  0.00  0.00     0.033 H 
ATOM     16  H2  <0> d           0.475   0.122   0.217  0.00  0.00     0.033 H 
ATOM     17  H3  <0> d           0.746   1.822  -0.295  0.00  0.00     0.033 H 
ENDBRANCH   1  14
TORSDOF 1
