REMARK  1 active torsions:
REMARK  status: ('A' for Active; 'I' for Inactive)
REMARK    1  A    between atoms: C8_8  and  C9_11 
ROOT
ATOM      1  C1  <0> d          -0.017   1.362   0.009  0.00  0.00    -0.082 A 
ATOM      2  C2  <0> d           1.170   2.083   0.002  0.00  0.00    -0.081 A 
ATOM      3  C3  <0> d           2.386   1.436  -0.013  0.00  0.00    -0.056 A 
ATOM      4  C4  <0> d           2.428   0.046  -0.021  0.00  0.00     0.042 A 
ATOM      5  C5  <0> d           1.223  -0.681  -0.013  0.00  0.00    -0.008 A 
ATOM      6  C6  <0> d           0.002  -0.004   0.002  0.00  0.00    -0.071 A 
ATOM      7  C7  <0> d           1.604  -2.095  -0.025  0.00  0.00    -0.049 A 
ATOM      8  C8  <0> d           2.945  -2.141  -0.038  0.00  0.00     0.014 A 
ATOM      9  N1  <0> d           3.455  -0.871  -0.036  0.00  0.00    -0.359 N 
ATOM     10  H1  <0> d           4.399  -0.650  -0.044  0.00  0.00     0.166 HD
ATOM     11  H2  <0> d          -0.961   1.885   0.026  0.00  0.00     0.083 H 
ATOM     12  H3  <0> d           1.139   3.163   0.008  0.00  0.00     0.083 H 
ATOM     13  H4  <0> d           3.303   2.006  -0.020  0.00  0.00     0.086 H 
ATOM     14  H5  <0> d          -0.925  -0.559   0.008  0.00  0.00     0.084 H 
ATOM     15  H6  <0> d           0.932  -2.941  -0.022  0.00  0.00     0.087 H 
ENDROOT
BRANCH   8  16
ATOM     16  C9  <0> d           3.768  -3.404  -0.053  0.00  0.00    -0.014 A 
ATOM     17  C11 <0> d           5.077  -3.384  -0.845  0.00  0.00    -0.056 A 
ATOM     18  C10 <0> d           5.107  -3.383   0.685  0.00  0.00    -0.056 A 
ATOM     19  H10 <0> d           5.371  -4.302  -1.353  0.00  0.00     0.034 H 
ATOM     20  H11 <0> d           5.343  -2.458  -1.354  0.00  0.00     0.034 H 
ATOM     21  H8  <0> d           5.394  -2.456   1.182  0.00  0.00     0.034 H 
ATOM     22  H9  <0> d           5.422  -4.300   1.183  0.00  0.00     0.034 H 
ATOM     23  H7  <0> d           3.200  -4.334  -0.042  0.00  0.00     0.049 H 
ENDBRANCH   8  16
TORSDOF 1
