REMARK  5 active torsions:
REMARK  status: ('A' for Active; 'I' for Inactive)
REMARK    1  A    between atoms: C1_1  and  C2_2 
REMARK    2  A    between atoms: C3_3  and  C6_8 
REMARK    3  A    between atoms: C4_5  and  C5_7 
REMARK    4  A    between atoms: C6_8  and  C7_10 
REMARK    5  A    between atoms: C6_8  and  O1_11 
ROOT
ATOM      1  C2  <0> d           0.002  -0.004   0.002  0.00  0.00     0.047 A 
ATOM      2  C3  <0> d           0.006  -0.708  -1.159  0.00  0.00     0.037 A 
ATOM      3  S1  <0> d           0.032  -2.379  -0.531  0.00  0.00    -0.075 SA
ATOM      4  C4  <0> d           0.036  -2.009   1.111  0.00  0.00     0.072 A 
ATOM      5  N1  <0> d           0.023  -0.699   1.122  0.00  0.00    -0.250 NA
ENDROOT
BRANCH   2   6
ATOM      6  C6  <0> d          -0.008  -0.215  -2.583  0.00  0.00     0.065 C 
ATOM      7  H1  <0> d           0.243   0.846  -2.603  0.00  0.00     0.090 H 
BRANCH   6   8
ATOM      8  C7  <0> d          -1.402  -0.420  -3.180  0.00  0.00    -0.048 C 
ATOM      9  H8  <0> d          -2.134   0.138  -2.595  0.00  0.00     0.031 H 
ATOM     10  H9  <0> d          -1.412  -0.063  -4.210  0.00  0.00     0.031 H 
ATOM     11  H10 <0> d          -1.653  -1.480  -3.160  0.00  0.00     0.031 H 
ENDBRANCH   6   8
BRANCH   6  12
ATOM     12  O1  <0> d           0.951  -0.946  -3.350  0.00  0.00    -0.391 OA
ATOM     13  H11 <0> d           0.996  -0.681  -4.279  0.00  0.00     0.210 HD
ENDBRANCH   6  12
ENDBRANCH   2   6
BRANCH   1  14
ATOM     14  C1  <0> d          -0.018   1.503   0.010  0.00  0.00    -0.034 C 
ATOM     15  H2  <0> d           1.004   1.880   0.003  0.00  0.00     0.035 H 
ATOM     16  H3  <0> d          -0.545   1.864  -0.873  0.00  0.00     0.035 H 
ATOM     17  H4  <0> d          -0.529   1.854   0.907  0.00  0.00     0.035 H 
ENDBRANCH   1  14
BRANCH   4  18
ATOM     18  C5  <0> d           0.055  -2.955   2.284  0.00  0.00    -0.029 C 
ATOM     19  H5  <0> d           1.087  -3.168   2.561  0.00  0.00     0.036 H 
ATOM     20  H6  <0> d          -0.461  -2.497   3.128  0.00  0.00     0.036 H 
ATOM     21  H7  <0> d          -0.448  -3.883   2.010  0.00  0.00     0.036 H 
ENDBRANCH   4  18
TORSDOF 5
