REMARK  5 active torsions:
REMARK  status: ('A' for Active; 'I' for Inactive)
REMARK    1  A    between atoms: C1_1  and  C2_2 
REMARK    2  A    between atoms: C2_2  and  C3_3 
REMARK    3  A    between atoms: C3_3  and  C4_4 
REMARK    4  A    between atoms: C4_4  and  C5_5 
REMARK    5  A    between atoms: C8_8  and  O1_11 
ROOT
ATOM      1  C4  <0> d           1.226  -2.187  -0.021  0.00  0.00    -0.041 C 
ATOM      2  H8  <0> d           2.125  -2.543   0.482  0.00  0.00     0.040 H 
ATOM      3  H9  <0> d           0.345  -2.563   0.500  0.00  0.00     0.040 H 
ENDROOT
BRANCH   1   4
ATOM      4  C3  <0> d           1.217  -2.690  -1.466  0.00  0.00    -0.062 C 
ATOM      5  H6  <0> d           0.318  -2.334  -1.969  0.00  0.00     0.033 H 
ATOM      6  H7  <0> d           2.098  -2.313  -1.986  0.00  0.00     0.033 H 
BRANCH   4   7
ATOM      7  C2  <0> d           1.235  -4.220  -1.474  0.00  0.00    -0.068 C 
ATOM      8  H4  <0> d           2.134  -4.575  -0.971  0.00  0.00     0.032 H 
ATOM      9  H5  <0> d           0.355  -4.596  -0.953  0.00  0.00     0.032 H 
BRANCH   7  10
ATOM     10  C1  <0> d           1.227  -4.722  -2.919  0.00  0.00    -0.077 C 
ATOM     11  H1  <0> d           0.328  -4.367  -3.422  0.00  0.00     0.027 H 
ATOM     12  H2  <0> d           2.108  -4.346  -3.439  0.00  0.00     0.027 H 
ATOM     13  H3  <0> d           1.240  -5.812  -2.925  0.00  0.00     0.027 H 
ENDBRANCH   7  10
ENDBRANCH   4   7
ENDBRANCH   1   4
BRANCH   1  14
ATOM     14  C5  <0> d           1.208  -0.680  -0.013  0.00  0.00    -0.058 A 
ATOM     15  C10 <0> d           2.398   0.024  -0.021  0.00  0.00    -0.074 A 
ATOM     16  C9  <0> d           2.385   1.405  -0.013  0.00  0.00    -0.051 A 
ATOM     17  H13 <0> d           3.339  -0.506  -0.033  0.00  0.00     0.084 H 
ATOM     18  C8  <0> d           1.176   2.086   0.002  0.00  0.00     0.065 A 
ATOM     19  H12 <0> d           3.314   1.955  -0.019  0.00  0.00     0.087 H 
ATOM     20  C7  <0> d          -0.017   1.377   0.010  0.00  0.00    -0.051 A 
ATOM     21  C6  <0> d           0.002  -0.004   0.002  0.00  0.00    -0.074 A 
ATOM     22  H11 <0> d          -0.959   1.905   0.017  0.00  0.00     0.087 H 
ATOM     23  H10 <0> d          -0.926  -0.556   0.008  0.00  0.00     0.084 H 
BRANCH  18  24
ATOM     24  O1  <0> d           1.160   3.445   0.009  0.00  0.00    -0.361 OA
ATOM     25  H14 <0> d           1.164   3.834   0.894  0.00  0.00     0.217 HD
ENDBRANCH  18  24
ENDBRANCH   1  14
TORSDOF 5
