REMARK  0 active torsions:
REMARK  status: ('A' for Active; 'I' for Inactive)
ROOT
ATOM      1  C1  <0> d          -0.947   3.829   0.079  0.00  0.00    -0.056 C 
ATOM      2  C2  <0> d          -1.833   2.693  -0.517  0.00  0.00    -0.051 C 
ATOM      3  H1  <0> d          -2.679   3.015  -1.124  0.00  0.00     0.040 H 
ATOM      4  C3  <0> d          -2.176   1.882   0.780  0.00  0.00    -0.056 C 
ATOM      5  C4  <0> d          -0.696   1.678   1.285  0.00  0.00    -0.023 C 
ATOM      6  H2  <0> d          -0.530   1.146   2.222  0.00  0.00     0.044 H 
ATOM      7  C5  <0> d          -0.142   3.142   1.211  0.00  0.00    -0.027 C 
ATOM      8  H3  <0> d          -0.181   3.676   2.160  0.00  0.00     0.043 H 
ATOM      9  C6  <0> d           1.292   2.915   0.684  0.00  0.00     0.024 C 
ATOM     10  O1  <0> d           1.304   1.659  -0.002  0.00  0.00    -0.385 OA
ATOM     11  C7  <0> d          -0.013   1.086   0.008  0.00  0.00     0.043 C 
ATOM     12  H4  <0> d           0.002  -0.004   0.002  0.00  0.00     0.083 H 
ATOM     13  C8  <0> d          -0.801   1.681  -1.185  0.00  0.00    -0.037 C 
ATOM     14  H5  <0> d          -1.571   4.625   0.486  0.00  0.00     0.034 H 
ATOM     15  H6  <0> d          -0.273   4.226  -0.680  0.00  0.00     0.034 H 
ATOM     16  H7  <0> d          -2.758   2.473   1.487  0.00  0.00     0.034 H 
ATOM     17  H8  <0> d          -2.665   0.935   0.550  0.00  0.00     0.034 H 
ATOM     18  H9  <0> d           1.992   2.888   1.519  0.00  0.00     0.074 H 
ATOM     19  H10 <0> d           1.565   3.715  -0.004  0.00  0.00     0.074 H 
ATOM     20  H11 <0> d          -0.133   2.238  -1.841  0.00  0.00     0.037 H 
ATOM     21  H12 <0> d          -1.306   0.889  -1.739  0.00  0.00     0.037 H 
ENDROOT
TORSDOF 0
