REMARK  1 active torsions:
REMARK  status: ('A' for Active; 'I' for Inactive)
REMARK    1  A    between atoms: C3_3  and  C7_9 
ROOT
ATOM      1  C1  <0> d          -0.019   1.528   0.010  0.00  0.00    -0.059 C 
ATOM      2  C2  <0> d           1.417   2.056  -0.000  0.00  0.00    -0.061 C 
ATOM      3  C3  <0> d           2.112   1.641  -1.298  0.00  0.00    -0.044 C 
ATOM      4  H1  <0> d           1.535   2.000  -2.151  0.00  0.00     0.041 H 
ATOM      5  C4  <0> d           2.213   0.113  -1.356  0.00  0.00    -0.006 C 
ATOM      6  C5  <0> d           0.828  -0.467  -1.178  0.00  0.00     0.127 C 
ATOM      7  O1  <0> d           0.392  -1.280  -1.958  0.00  0.00    -0.298 OA
ATOM      8  C6  <0> d           0.002  -0.004   0.002  0.00  0.00    -0.010 C 
ATOM      9  H2  <0> d          -0.528   1.880   0.907  0.00  0.00     0.033 H 
ATOM     10  H3  <0> d          -0.545   1.889  -0.873  0.00  0.00     0.033 H 
ATOM     11  H4  <0> d           1.404   3.143   0.072  0.00  0.00     0.033 H 
ATOM     12  H5  <0> d           1.961   1.644   0.850  0.00  0.00     0.033 H 
ATOM     13  H6  <0> d           2.616  -0.191  -2.322  0.00  0.00     0.044 H 
ATOM     14  H7  <0> d           2.864  -0.241  -0.557  0.00  0.00     0.044 H 
ATOM     15  H8  <0> d           0.448  -0.369   0.927  0.00  0.00     0.044 H 
ATOM     16  H9  <0> d          -1.016  -0.384  -0.091  0.00  0.00     0.044 H 
ENDROOT
BRANCH   3  17
ATOM     17  C7  <0> d           3.516   2.248  -1.341  0.00  0.00    -0.050 A 
ATOM     18  C9  <0> d           3.629   3.773  -1.292  0.00  0.00    -0.061 A 
ATOM     19  C8  <0> d           3.911   3.026  -2.598  0.00  0.00    -0.061 A 
ATOM     20  H13 <0> d           2.703   4.344  -1.229  0.00  0.00     0.033 H 
ATOM     21  H14 <0> d           4.481   4.197  -0.761  0.00  0.00     0.033 H 
ATOM     22  H11 <0> d           4.948   2.960  -2.926  0.00  0.00     0.033 H 
ATOM     23  H12 <0> d           3.170   3.107  -3.394  0.00  0.00     0.033 H 
ATOM     24  H10 <0> d           4.294   1.669  -0.843  0.00  0.00     0.040 H 
ENDBRANCH   3  17
TORSDOF 1
