REMARK  2 active torsions:
REMARK  status: ('A' for Active; 'I' for Inactive)
REMARK    1  A    between atoms: C1_1  and  C2_2 
REMARK    2  A    between atoms: C3_3  and  C8_10 
ROOT
ATOM      1  C2  <0> d           0.002  -0.004   0.002  0.00  0.00    -0.015 A 
ATOM      2  C3  <0> d           0.006  -0.689  -1.199  0.00  0.00    -0.015 A 
ATOM      3  C4  <0> d           0.025  -2.073  -1.206  0.00  0.00     0.123 A 
ATOM      4  C5  <0> d           0.041  -2.771  -0.011  0.00  0.00    -0.042 A 
ATOM      5  C6  <0> d           0.037  -2.087   1.189  0.00  0.00    -0.042 A 
ATOM      6  C7  <0> d           0.023  -0.703   1.197  0.00  0.00     0.123 A 
ATOM      7  F1  <0> d           0.025  -0.033   2.371  0.00  0.00    -0.206 F 
ATOM      8  F2  <0> d           0.028  -2.742  -2.380  0.00  0.00    -0.206 F 
ATOM      9  H4  <0> d           0.055  -3.851  -0.017  0.00  0.00     0.088 H 
ATOM     10  H5  <0> d           0.049  -2.632   2.122  0.00  0.00     0.088 H 
ENDROOT
BRANCH   1  11
ATOM     11  C1  <0> d          -0.018   1.503   0.010  0.00  0.00    -0.048 C 
ATOM     12  H1  <0> d           1.004   1.880   0.003  0.00  0.00     0.033 H 
ATOM     13  H2  <0> d          -0.545   1.864  -0.873  0.00  0.00     0.033 H 
ATOM     14  H3  <0> d          -0.529   1.854   0.907  0.00  0.00     0.033 H 
ENDBRANCH   1  11
BRANCH   2  15
ATOM     15  C8  <0> d          -0.012   0.072  -2.500  0.00  0.00    -0.048 C 
ATOM     16  H6  <0> d           1.012   0.270  -2.818  0.00  0.00     0.033 H 
ATOM     17  H7  <0> d          -0.521  -0.520  -3.260  0.00  0.00     0.033 H 
ATOM     18  H8  <0> d          -0.538   1.016  -2.361  0.00  0.00     0.033 H 
ENDBRANCH   2  15
TORSDOF 2
