REMARK  2 active torsions:
REMARK  status: ('A' for Active; 'I' for Inactive)
REMARK    1  A    between atoms: C1_1  and  C2_2 
REMARK    2  A    between atoms: C4_4  and  C7_8 
ROOT
ATOM      1  C2  <0> d           1.128  -0.688  -0.012  0.00  0.00     0.031 A 
ATOM      2  C3  <0> d           2.350  -0.044  -0.021  0.00  0.00    -0.043 A 
ATOM      3  C4  <0> d           2.379   1.355  -0.014  0.00  0.00     0.044 A 
ATOM      4  C5  <0> d           1.160   2.039   0.002  0.00  0.00    -0.050 A 
ATOM      5  C6  <0> d          -0.016   1.314   0.009  0.00  0.00     0.003 A 
ATOM      6  N1  <0> d           0.002  -0.004   0.002  0.00  0.00    -0.266 NA
ATOM      7  H4  <0> d           3.269  -0.611  -0.033  0.00  0.00     0.088 H 
ATOM      8  H5  <0> d           1.137   3.119   0.008  0.00  0.00     0.087 H 
ATOM      9  H6  <0> d          -0.963   1.834   0.017  0.00  0.00     0.114 H 
ENDROOT
BRANCH   1  10
ATOM     10  C1  <0> d           1.083  -2.195  -0.020  0.00  0.00    -0.035 C 
ATOM     11  H1  <0> d           1.062  -2.552  -1.050  0.00  0.00     0.035 H 
ATOM     12  H2  <0> d           1.966  -2.587   0.483  0.00  0.00     0.035 H 
ATOM     13  H3  <0> d           0.187  -2.534   0.500  0.00  0.00     0.035 H 
ENDBRANCH   1  10
BRANCH   3  14
ATOM     14  C7  <0> d           3.664   2.089  -0.022  0.00  0.00     0.209 C 
ATOM     15  O1  <0> d           4.713   1.478  -0.035  0.00  0.00    -0.644 OA
ATOM     16  O2  <0> d           3.670   3.436  -0.015  0.00  0.00    -0.644 OA
ENDBRANCH   3  14
TORSDOF 2
