REMARK  3 active torsions:
REMARK  status: ('A' for Active; 'I' for Inactive)
REMARK    1  A    between atoms: C1_1  and  C2_2 
REMARK    2  A    between atoms: C2_2  and  C3_3 
REMARK    3  A    between atoms: C3_3  and  C8_8 
ROOT
ATOM      1  C3  <0> d           0.718  -0.497  -1.257  0.00  0.00     0.054 C 
ATOM      2  C4  <0> d          -0.105  -0.176  -2.526  0.00  0.00    -0.033 C 
ATOM      3  C5  <0> d           0.098  -1.372  -3.428  0.00  0.00    -0.105 C 
ATOM      4  C6  <0> d           0.569  -2.389  -2.760  0.00  0.00    -0.105 C 
ATOM      5  C7  <0> d           0.760  -2.043  -1.302  0.00  0.00    -0.033 C 
ATOM      6  H6  <0> d          -1.160  -0.064  -2.276  0.00  0.00     0.040 H 
ATOM      7  H7  <0> d           0.271   0.728  -3.004  0.00  0.00     0.040 H 
ATOM      8  H8  <0> d          -0.120  -1.383  -4.486  0.00  0.00     0.076 H 
ATOM      9  H9  <0> d           0.794  -3.353  -3.193  0.00  0.00     0.076 H 
ATOM     10  H10 <0> d           1.724  -2.407  -0.948  0.00  0.00     0.040 H 
ATOM     11  H11 <0> d          -0.049  -2.462  -0.703  0.00  0.00     0.040 H 
ENDROOT
BRANCH   1  12
ATOM     12  C2  <0> d           0.002  -0.004   0.002  0.00  0.00    -0.051 C 
ATOM     13  H4  <0> d           0.529  -0.365   0.885  0.00  0.00     0.034 H 
ATOM     14  H5  <0> d          -1.020  -0.381   0.010  0.00  0.00     0.034 H 
BRANCH  12  15
ATOM     15  C1  <0> d          -0.019   1.526   0.010  0.00  0.00    -0.075 C 
ATOM     16  H1  <0> d           1.004   1.903   0.003  0.00  0.00     0.027 H 
ATOM     17  H2  <0> d          -0.546   1.887  -0.873  0.00  0.00     0.027 H 
ATOM     18  H3  <0> d          -0.529   1.877   0.907  0.00  0.00     0.027 H 
ENDBRANCH  12  15
ENDBRANCH   1  12
BRANCH   1  19
ATOM     19  C8  <0> d           2.105   0.084  -1.349  0.00  0.00     0.182 C 
ATOM     20  O1  <0> d           2.514   0.830  -0.475  0.00  0.00    -0.647 OA
ATOM     21  O2  <0> d           2.820  -0.191  -2.299  0.00  0.00    -0.647 OA
ENDBRANCH   1  19
TORSDOF 3
