REMARK  4 active torsions:
REMARK  status: ('A' for Active; 'I' for Inactive)
REMARK    1  A    between atoms: C1_1  and  C2_2 
REMARK    2  A    between atoms: C1_1  and  O1_8 
REMARK    3  A    between atoms: C1_1  and  O2_9 
REMARK    4  A    between atoms: C2_2  and  C3_3 
ROOT
ATOM      1  C2  <0> d           1.145   3.085   0.008  0.00  0.00     0.349 C 
ATOM      2  F3  <0> d           0.434   3.495  -1.126  0.00  0.00    -0.195 F 
ATOM      3  F4  <0> d           0.456   3.482   1.159  0.00  0.00    -0.195 F 
ENDROOT
BRANCH   1   4
ATOM      4  C1  <0> d           1.286   1.562  -0.002  0.00  0.00     0.195 C 
ATOM      5  H1  <0> d           1.840   1.243   0.881  0.00  0.00     0.138 H 
BRANCH   4   6
ATOM      6  O1  <0> d          -0.011   0.963   0.007  0.00  0.00    -0.366 OA
ATOM      7  H3  <0> d           0.002  -0.004   0.002  0.00  0.00     0.212 HD
ENDBRANCH   4   6
BRANCH   4   8
ATOM      8  O2  <0> d           1.990   1.156  -1.178  0.00  0.00    -0.366 OA
ATOM      9  H4  <0> d           1.554   1.407  -2.003  0.00  0.00     0.212 HD
ENDBRANCH   4   8
ENDBRANCH   1   4
BRANCH   1  10
ATOM     10  C3  <0> d           2.534   3.726  -0.002  0.00  0.00     0.275 C 
ATOM     11  F1  <0> d           3.223   3.329  -1.153  0.00  0.00    -0.208 F 
ATOM     12  F2  <0> d           2.405   5.119   0.007  0.00  0.00    -0.208 F 
ATOM     13  H2  <0> d           3.088   3.407   0.881  0.00  0.00     0.155 H 
ENDBRANCH   1  10
TORSDOF 4
