REMARK  1 active torsions:
REMARK  status: ('A' for Active; 'I' for Inactive)
REMARK    1  A    between atoms: N1_3  and  S1_6 
ROOT
ATOM      1  C1  <0> d          -0.016   1.337   0.009  0.00  0.00     0.020 A 
ATOM      2  C2  <0> d           1.259   1.771  -0.000  0.00  0.00     0.016 A 
ATOM      3  N1  <0> d           2.056   0.658  -0.014  0.00  0.00    -0.225 N 
ATOM      4  C3  <0> d           1.240  -0.418  -0.012  0.00  0.00     0.082 A 
ATOM      5  N2  <0> d           0.002  -0.004   0.002  0.00  0.00    -0.254 NA
ATOM      6  H1  <0> d          -0.898   1.960   0.025  0.00  0.00     0.117 H 
ATOM      7  H2  <0> d           1.589   2.799   0.002  0.00  0.00     0.115 H 
ATOM      8  H3  <0> d           1.558  -1.450  -0.021  0.00  0.00     0.145 H 
ENDROOT
BRANCH   3   9
ATOM      9  S1  <0> d           3.712   0.636  -0.030  0.00  0.00     0.216 S 
ATOM     10  O1  <0> d           4.111  -0.572  -0.736  0.00  0.00    -0.577 OA
ATOM     11  O2  <0> d           4.144   1.839  -0.724  0.00  0.00    -0.577 OA
ATOM     12  O3  <0> d           4.147   0.623   1.358  0.00  0.00    -0.577 OA
ENDBRANCH   3   9
TORSDOF 1
