REMARK  4 active torsions:
REMARK  status: ('A' for Active; 'I' for Inactive)
REMARK    1  A    between atoms: C1_1  and  C2_2 
REMARK    2  A    between atoms: C2_2  and  C3_3 
REMARK    3  A    between atoms: C3_3  and  C4_5 
REMARK    4  A    between atoms: C3_3  and  C5_6 
ROOT
ATOM      1  C3  <0> d           0.011   1.072   2.506  0.00  0.00    -0.009 C 
ATOM      2  H1  <0> d           0.104  -0.013   2.456  0.00  0.00     0.050 H 
ENDROOT
BRANCH   1   3
ATOM      3  C2  <0> d          -0.729   1.579   1.267  0.00  0.00    -0.060 C 
ATOM      4  H5  <0> d          -0.744   2.669   1.273  0.00  0.00     0.033 H 
ATOM      5  H6  <0> d          -1.751   1.202   1.275  0.00  0.00     0.033 H 
BRANCH   3   6
ATOM      6  C1  <0> d          -0.013   1.086   0.008  0.00  0.00    -0.076 C 
ATOM      7  H2  <0> d           0.002  -0.004   0.002  0.00  0.00     0.027 H 
ATOM      8  H3  <0> d           1.010   1.463   0.000  0.00  0.00     0.027 H 
ATOM      9  H4  <0> d          -0.540   1.447  -0.875  0.00  0.00     0.027 H 
ENDBRANCH   3   6
ENDBRANCH   1   3
BRANCH   1  10
ATOM     10  C4  <0> d           1.405   1.701   2.561  0.00  0.00    -0.067 C 
ATOM     11  H7  <0> d           1.963   1.425   1.666  0.00  0.00     0.028 H 
ATOM     12  H8  <0> d           1.312   2.786   2.611  0.00  0.00     0.028 H 
ATOM     13  H9  <0> d           1.932   1.340   3.444  0.00  0.00     0.028 H 
ENDBRANCH   1  10
BRANCH   1  14
ATOM     14  C5  <0> d          -0.761   1.454   3.743  0.00  0.00     0.078 A 
ATOM     15  S1  <0> d          -1.190   3.036   4.317  0.00  0.00    -0.085 SA
ATOM     16  C7  <0> d          -2.062   2.519   5.788  0.00  0.00    -0.026 A 
ATOM     17  C6  <0> d          -1.929   1.171   5.697  0.00  0.00     0.009 A 
ATOM     18  H11 <0> d          -2.554   3.114   6.544  0.00  0.00     0.097 H 
ATOM     19  N1  <0> d          -1.276   0.675   4.667  0.00  0.00    -0.257 NA
ATOM     20  H10 <0> d          -2.349   0.522   6.450  0.00  0.00     0.115 H 
ENDBRANCH   1  14
TORSDOF 4
