REMARK  4 active torsions:
REMARK  status: ('A' for Active; 'I' for Inactive)
REMARK    1  A    between atoms: C1_1  and  C2_2 
REMARK    2  A    between atoms: C2_2  and  C7_8 
REMARK    3  A    between atoms: C7_8  and  O2_10 
REMARK    4  A    between atoms: O2_10  and  C8_11 
ROOT
ATOM      1  C2  <0> d           0.002  -0.004   0.002  0.00  0.00     0.240 C 
ATOM      2  C3  <0> d          -1.434  -0.534   0.011  0.00  0.00    -0.022 C 
ATOM      3  C4  <0> d          -2.141  -0.054   1.282  0.00  0.00    -0.061 C 
ATOM      4  C5  <0> d          -1.355  -0.533   2.506  0.00  0.00    -0.040 C 
ATOM      5  C6  <0> d           0.079  -0.004   2.424  0.00  0.00     0.113 C 
ATOM      6  N1  <0> d           0.712  -0.490   1.192  0.00  0.00     0.102 N 
ATOM      7  H4  <0> d          -1.965  -0.160  -0.864  0.00  0.00     0.037 H 
ATOM      8  H5  <0> d          -1.420  -1.623  -0.008  0.00  0.00     0.037 H 
ATOM      9  H6  <0> d          -2.189   1.034   1.284  0.00  0.00     0.033 H 
ATOM     10  H7  <0> d          -3.150  -0.465   1.315  0.00  0.00     0.033 H 
ATOM     11  H8  <0> d          -1.829  -0.159   3.413  0.00  0.00     0.035 H 
ATOM     12  H9  <0> d          -1.339  -1.623   2.525  0.00  0.00     0.035 H 
ATOM     13  H10 <0> d           0.064   1.086   2.419  0.00  0.00     0.079 H 
ATOM     14  H11 <0> d           0.646  -0.355   3.287  0.00  0.00     0.079 H 
ATOM     15  H12 <0> d           0.773  -1.498   1.190  0.00  0.00     0.317 HD
ENDROOT
BRANCH   1  16
ATOM     16  C1  <0> d          -0.019   1.526   0.010  0.00  0.00    -0.034 C 
ATOM     17  H1  <0> d           1.004   1.903   0.003  0.00  0.00     0.031 H 
ATOM     18  H2  <0> d          -0.546   1.887  -0.873  0.00  0.00     0.031 H 
ATOM     19  H3  <0> d          -0.529   1.877   0.907  0.00  0.00     0.031 H 
ENDBRANCH   1  16
BRANCH   1  20
ATOM     20  C7  <0> d           0.708  -0.490  -1.238  0.00  0.00     0.297 C 
ATOM     21  O1  <0> d           0.070  -0.780  -2.222  0.00  0.00    -0.262 OA
BRANCH  20  22
ATOM     22  O2  <0> d           2.046  -0.600  -1.249  0.00  0.00    -0.324 OA
BRANCH  22  23
ATOM     23  C8  <0> d           2.648  -1.067  -2.458  0.00  0.00     0.013 C 
ATOM     24  H13 <0> d           3.730  -1.109  -2.331  0.00  0.00     0.067 H 
ATOM     25  H14 <0> d           2.271  -2.062  -2.691  0.00  0.00     0.067 H 
ATOM     26  H15 <0> d           2.404  -0.385  -3.272  0.00  0.00     0.067 H 
ENDBRANCH  22  23
ENDBRANCH  20  22
ENDBRANCH   1  20
TORSDOF 4
