REMARK  1 active torsions:
REMARK  status: ('A' for Active; 'I' for Inactive)
REMARK    1  A    between atoms: C4_4  and  O2_11 
ROOT
ATOM      1  C1  <0> d           1.410   3.176   0.205  0.00  0.00    -0.062 C 
ATOM      2  C2  <0> d           1.056   3.935  -1.056  0.00  0.00    -0.060 C 
ATOM      3  C3  <0> d          -0.499   4.077  -1.177  0.00  0.00    -0.009 C 
ATOM      4  C4  <0> d          -1.190   2.902  -0.532  0.00  0.00     0.181 C 
ATOM      5  C5  <0> d          -1.277   2.751   0.928  0.00  0.00    -0.045 C 
ATOM      6  C6  <0> d          -0.661   1.653   1.269  0.00  0.00    -0.074 C 
ATOM      7  C7  <0> d          -0.013   1.086   0.008  0.00  0.00     0.059 C 
ATOM      8  H1  <0> d           0.002  -0.004   0.002  0.00  0.00     0.089 H 
ATOM      9  C8  <0> d           1.373   1.677  -0.002  0.00  0.00    -0.037 C 
ATOM     10  O1  <0> d          -0.750   1.634  -1.120  0.00  0.00    -0.343 OA
ATOM     11  H2  <0> d           0.701   3.442   0.989  0.00  0.00     0.033 H 
ATOM     12  H3  <0> d           2.411   3.465   0.523  0.00  0.00     0.033 H 
ATOM     13  H4  <0> d           1.508   4.926  -1.020  0.00  0.00     0.033 H 
ATOM     14  H5  <0> d           1.437   3.394  -1.922  0.00  0.00     0.033 H 
ATOM     15  H6  <0> d          -0.816   4.996  -0.683  0.00  0.00     0.041 H 
ATOM     16  H7  <0> d          -0.775   4.121  -2.231  0.00  0.00     0.041 H 
ATOM     17  H8  <0> d          -1.766   3.432   1.609  0.00  0.00     0.084 H 
ATOM     18  H9  <0> d          -0.614   1.225   2.260  0.00  0.00     0.080 H 
ATOM     19  H10 <0> d           1.958   1.204   0.787  0.00  0.00     0.037 H 
ATOM     20  H11 <0> d           1.840   1.449  -0.960  0.00  0.00     0.037 H 
ENDROOT
BRANCH   4  21
ATOM     21  O2  <0> d          -2.550   3.011  -0.957  0.00  0.00    -0.362 OA
ATOM     22  H12 <0> d          -3.126   2.312  -0.616  0.00  0.00     0.213 HD
ENDBRANCH   4  21
TORSDOF 1
