REMARK  3 active torsions:
REMARK  status: ('A' for Active; 'I' for Inactive)
REMARK    1  A    between atoms: C1_1  and  C2_2 
REMARK    2  A    between atoms: C2_2  and  O2_4 
REMARK    3  A    between atoms: O2_4  and  C3_5 
ROOT
ATOM      1  C3  <0> d           1.187   1.970   0.010  0.00  0.00     0.082 A 
ATOM      2  C4  <0> d           2.358   1.235  -0.100  0.00  0.00    -0.050 A 
ATOM      3  C5  <0> d           3.581   1.878  -0.105  0.00  0.00    -0.077 A 
ATOM      4  C6  <0> d           3.639   3.255   0.012  0.00  0.00    -0.045 A 
ATOM      5  C7  <0> d           2.473   3.992   0.128  0.00  0.00     0.119 A 
ATOM      6  C8  <0> d           1.246   3.351   0.127  0.00  0.00    -0.013 A 
ATOM      7  F1  <0> d           2.532   5.337   0.242  0.00  0.00    -0.206 F 
ATOM      8  H4  <0> d           2.314   0.159  -0.186  0.00  0.00     0.087 H 
ATOM      9  H5  <0> d           4.492   1.306  -0.195  0.00  0.00     0.083 H 
ATOM     10  H6  <0> d           4.596   3.756   0.012  0.00  0.00     0.088 H 
ATOM     11  H7  <0> d           0.336   3.925   0.217  0.00  0.00     0.092 H 
ENDROOT
BRANCH   1  12
ATOM     12  O2  <0> d          -0.016   1.338   0.009  0.00  0.00    -0.279 OA
BRANCH  12  13
ATOM     13  C2  <0> d          -0.731   1.391  -1.126  0.00  0.00     0.260 C 
ATOM     14  O1  <0> d          -0.340   2.055  -2.056  0.00  0.00    -0.265 OA
BRANCH  13  15
ATOM     15  C1  <0> d          -2.022   0.622  -1.239  0.00  0.00     0.004 C 
ATOM     16  H1  <0> d          -2.210   0.087  -0.308  0.00  0.00     0.041 H 
ATOM     17  H2  <0> d          -2.842   1.314  -1.432  0.00  0.00     0.041 H 
ATOM     18  H3  <0> d          -1.950  -0.092  -2.059  0.00  0.00     0.041 H 
ENDBRANCH  13  15
ENDBRANCH  12  13
ENDBRANCH   1  12
TORSDOF 3
