REMARK  2 active torsions:
REMARK  status: ('A' for Active; 'I' for Inactive)
REMARK    1  A    between atoms: C1_1  and  C2_2 
REMARK    2  A    between atoms: C5_6  and  C7_9 
ROOT
ATOM      1  C2  <0> d           0.002  -0.004   0.002  0.00  0.00    -0.057 C 
ATOM      2  H1  <0> d           0.498  -0.377  -0.894  0.00  0.00     0.039 H 
ATOM      3  C3  <0> d          -1.434  -0.573   0.112  0.00  0.00    -0.062 C 
ATOM      4  C4  <0> d          -1.237  -1.988   0.694  0.00  0.00    -0.062 C 
ATOM      5  C5  <0> d           0.111  -1.974   1.437  0.00  0.00    -0.057 C 
ATOM      6  H2  <0> d           0.789  -2.702   0.993  0.00  0.00     0.039 H 
ATOM      7  C6  <0> d           0.690  -0.551   1.278  0.00  0.00    -0.059 C 
ATOM      8  H6  <0> d          -2.035   0.037   0.786  0.00  0.00     0.033 H 
ATOM      9  H7  <0> d          -1.900  -0.627  -0.872  0.00  0.00     0.033 H 
ATOM     10  H8  <0> d          -2.044  -2.222   1.389  0.00  0.00     0.033 H 
ATOM     11  H9  <0> d          -1.212  -2.723  -0.110  0.00  0.00     0.033 H 
ATOM     12  H10 <0> d           1.771  -0.588   1.142  0.00  0.00     0.034 H 
ATOM     13  H11 <0> d           0.434   0.063   2.142  0.00  0.00     0.034 H 
ENDROOT
BRANCH   1  14
ATOM     14  C1  <0> d          -0.019   1.526   0.010  0.00  0.00    -0.073 C 
ATOM     15  H3  <0> d           1.004   1.903   0.003  0.00  0.00     0.028 H 
ATOM     16  H4  <0> d          -0.546   1.887  -0.873  0.00  0.00     0.028 H 
ATOM     17  H5  <0> d          -0.529   1.877   0.907  0.00  0.00     0.028 H 
ENDBRANCH   1  14
BRANCH   5  18
ATOM     18  C7  <0> d          -0.104  -2.293   2.918  0.00  0.00    -0.073 C 
ATOM     19  H12 <0> d          -0.532  -3.291   3.016  0.00  0.00     0.028 H 
ATOM     20  H13 <0> d           0.852  -2.255   3.440  0.00  0.00     0.028 H 
ATOM     21  H14 <0> d          -0.784  -1.561   3.353  0.00  0.00     0.028 H 
ENDBRANCH   5  18
TORSDOF 2
