REMARK  1 active torsions:
REMARK  status: ('A' for Active; 'I' for Inactive)
REMARK    1  A    between atoms: C6_6  and  N2_9 
ROOT
ATOM      1  C1  <0> d          -0.019   1.530   0.011  0.00  0.00    -0.061 C 
ATOM      2  C2  <0> d           1.414   2.066  -0.000  0.00  0.00    -0.060 C 
ATOM      3  C3  <0> d           2.071   1.818   1.363  0.00  0.00    -0.022 C 
ATOM      4  C4  <0> d           1.874   0.365   1.724  0.00  0.00     0.072 A 
ATOM      5  C5  <0> d           0.929  -0.469   1.098  0.00  0.00     0.022 A 
ATOM      6  C6  <0> d           1.019  -1.698   1.655  0.00  0.00     0.174 A 
ATOM      7  O1  <0> d           1.978  -1.650   2.598  0.00  0.00    -0.195 OA
ATOM      8  N1  <0> d           2.502  -0.332   2.620  0.00  0.00    -0.130 NA
ATOM      9  C7  <0> d           0.002  -0.004   0.002  0.00  0.00    -0.035 C 
ATOM     10  H1  <0> d          -0.530   1.880   0.907  0.00  0.00     0.033 H 
ATOM     11  H2  <0> d          -0.547   1.890  -0.872  0.00  0.00     0.033 H 
ATOM     12  H3  <0> d           1.986   1.556  -0.776  0.00  0.00     0.033 H 
ATOM     13  H4  <0> d           1.399   3.136  -0.206  0.00  0.00     0.033 H 
ATOM     14  H5  <0> d           3.136   2.042   1.305  0.00  0.00     0.042 H 
ATOM     15  H6  <0> d           1.603   2.451   2.117  0.00  0.00     0.042 H 
ATOM     16  H9  <0> d          -1.002  -0.387   0.183  0.00  0.00     0.040 H 
ATOM     17  H10 <0> d           0.364  -0.362  -0.962  0.00  0.00     0.040 H 
ENDROOT
BRANCH   6  18
ATOM     18  N2  <0> d           0.262  -2.804   1.316  0.00  0.00    -0.378 N 
ATOM     19  H7  <0> d          -0.409  -2.737   0.619  0.00  0.00     0.158 HD
ATOM     20  H8  <0> d           0.401  -3.646   1.776  0.00  0.00     0.158 HD
ENDBRANCH   6  18
TORSDOF 1
