REMARK  2 active torsions:
REMARK  status: ('A' for Active; 'I' for Inactive)
REMARK    1  A    between atoms: C1_1  and  N1_2 
REMARK    2  A    between atoms: C5_6  and  C6_7 
ROOT
ATOM      1  C6  <0> d          -1.665   4.360   0.042  0.00  0.00     0.053 C 
ATOM      2  C7  <0> d          -1.883   4.830  -1.336  0.00  0.00     0.065 C 
ATOM      3  N2  <0> d          -2.052   5.192  -2.399  0.00  0.00    -0.197 NA
ATOM      4  H7  <0> d          -2.620   4.075   0.484  0.00  0.00     0.064 H 
ATOM      5  H8  <0> d          -1.216   5.159   0.631  0.00  0.00     0.064 H 
ENDROOT
BRANCH   1   6
ATOM      6  C5  <0> d          -0.743   3.168   0.026  0.00  0.00     0.024 A 
ATOM      7  N1  <0> d          -1.128   1.860   0.017  0.00  0.00    -0.364 N 
ATOM      8  C2  <0> d          -0.013   1.076   0.008  0.00  0.00    -0.021 A 
ATOM      9  C3  <0> d           1.069   1.881   0.002  0.00  0.00    -0.066 A 
ATOM     10  H4  <0> d           0.002  -0.004   0.002  0.00  0.00     0.111 H 
ATOM     11  C4  <0> d           0.605   3.211   0.013  0.00  0.00    -0.059 A 
ATOM     12  H5  <0> d           2.102   1.565  -0.009  0.00  0.00     0.085 H 
ATOM     13  H6  <0> d           1.216   4.102   0.012  0.00  0.00     0.086 H 
BRANCH   7  14
ATOM     14  C1  <0> d          -2.511   1.377   0.020  0.00  0.00    -0.015 C 
ATOM     15  H1  <0> d          -2.850   1.252   1.048  0.00  0.00     0.057 H 
ATOM     16  H2  <0> d          -3.149   2.100  -0.488  0.00  0.00     0.057 H 
ATOM     17  H3  <0> d          -2.563   0.420  -0.498  0.00  0.00     0.057 H 
ENDBRANCH   7  14
ENDBRANCH   1   6
TORSDOF 2
