REMARK  2 active torsions:
REMARK  status: ('A' for Active; 'I' for Inactive)
REMARK    1  A    between atoms: C3_3  and  C8_11 
REMARK    2  A    between atoms: C8_11  and  O1_12 
ROOT
ATOM      1  C1  <0> d          -0.017   1.392   0.010  0.00  0.00    -0.067 A 
ATOM      2  C2  <0> d           1.194   2.059   0.002  0.00  0.00    -0.056 A 
ATOM      3  C3  <0> d           2.373   1.329  -0.013  0.00  0.00     0.060 A 
ATOM      4  N1  <0> d           2.368   0.013  -0.021  0.00  0.00    -0.233 NA
ATOM      5  C4  <0> d           1.238  -0.680  -0.013  0.00  0.00     0.138 A 
ATOM      6  C5  <0> d           0.002  -0.004   0.002  0.00  0.00     0.011 A 
ATOM      7  C6  <0> d          -1.031  -1.041   0.006  0.00  0.00    -0.054 A 
ATOM      8  C7  <0> d          -0.396  -2.224  -0.007  0.00  0.00    -0.020 A 
ATOM      9  N2  <0> d           0.959  -2.026  -0.018  0.00  0.00    -0.350 N 
ATOM     10  H1  <0> d           1.624  -2.732  -0.029  0.00  0.00     0.166 HD
ATOM     11  H2  <0> d          -0.950   1.936   0.026  0.00  0.00     0.085 H 
ATOM     12  H3  <0> d           1.222   3.138   0.007  0.00  0.00     0.086 H 
ATOM     13  H4  <0> d          -2.100  -0.885   0.017  0.00  0.00     0.087 H 
ATOM     14  H5  <0> d          -0.882  -3.188  -0.008  0.00  0.00     0.111 H 
ENDROOT
BRANCH   3  15
ATOM     15  C8  <0> d           3.691   2.060  -0.023  0.00  0.00     0.056 C 
ATOM     16  H6  <0> d           4.266   1.782   0.860  0.00  0.00     0.083 H 
ATOM     17  H7  <0> d           4.249   1.792  -0.919  0.00  0.00     0.083 H 
BRANCH  15  18
ATOM     18  O1  <0> d           3.453   3.469  -0.013  0.00  0.00    -0.395 OA
ATOM     19  H8  <0> d           4.259   4.004  -0.018  0.00  0.00     0.209 HD
ENDBRANCH  15  18
ENDBRANCH   3  15
TORSDOF 2
