REMARK  3 active torsions:
REMARK  status: ('A' for Active; 'I' for Inactive)
REMARK    1  A    between atoms: C1_1  and  C2_2 
REMARK    2  A    between atoms: C6_7  and  C9_13 
REMARK       I    between atoms: N1_9  and  C7_10 
REMARK    3  A    between atoms: C7_10  and  C8_12 
ROOT
ATOM      1  C2  <0> d          -2.898   1.951   0.349  0.00  0.00     0.011 C 
ATOM      2  H1  <0> d          -2.722   2.984   0.049  0.00  0.00     0.072 H 
ATOM      3  C3  <0> d          -2.299   1.003  -0.695  0.00  0.00    -0.046 C 
ATOM      4  C4  <0> d          -0.777   1.164  -0.711  0.00  0.00    -0.061 C 
ATOM      5  C5  <0> d          -0.209   0.793   0.660  0.00  0.00    -0.046 C 
ATOM      6  C6  <0> d          -0.783   1.738   1.720  0.00  0.00     0.011 C 
ATOM      7  H2  <0> d          -0.435   2.754   1.531  0.00  0.00     0.072 H 
ATOM      8  N1  <0> d          -2.250   1.698   1.644  0.00  0.00    -0.344 N 
ATOM      9  C7  <0> d          -2.988   1.434   2.740  0.00  0.00     0.216 C 
ATOM     10  O1  <0> d          -2.583   1.760   3.836  0.00  0.00    -0.274 OA
ATOM     11  H6  <0> d          -2.701   1.245  -1.679  0.00  0.00     0.035 H 
ATOM     12  H7  <0> d          -2.554  -0.026  -0.441  0.00  0.00     0.035 H 
ATOM     13  H8  <0> d          -0.524   2.199  -0.941  0.00  0.00     0.033 H 
ATOM     14  H9  <0> d          -0.351   0.508  -1.471  0.00  0.00     0.033 H 
ATOM     15  H10 <0> d          -0.483  -0.234   0.902  0.00  0.00     0.035 H 
ATOM     16  H11 <0> d           0.877   0.884   0.641  0.00  0.00     0.035 H 
ENDROOT
BRANCH   1  17
ATOM     17  C1  <0> d          -4.402   1.698   0.470  0.00  0.00    -0.057 C 
ATOM     18  H3  <0> d          -4.622   0.672   0.175  0.00  0.00     0.030 H 
ATOM     19  H4  <0> d          -4.715   1.854   1.502  0.00  0.00     0.030 H 
ATOM     20  H5  <0> d          -4.940   2.386  -0.182  0.00  0.00     0.030 H 
ENDBRANCH   1  17
BRANCH   6  21
ATOM     21  C9  <0> d          -0.328   1.287   3.110  0.00  0.00    -0.057 C 
ATOM     22  H15 <0> d           0.755   1.167   3.116  0.00  0.00     0.030 H 
ATOM     23  H16 <0> d          -0.615   2.037   3.847  0.00  0.00     0.030 H 
ATOM     24  H17 <0> d          -0.801   0.336   3.356  0.00  0.00     0.030 H 
ENDBRANCH   6  21
BRANCH   9  25
ATOM     25  C8  <0> d          -4.315   0.733   2.605  0.00  0.00    -0.003 C 
ATOM     26  H12 <0> d          -4.468   0.442   1.566  0.00  0.00     0.040 H 
ATOM     27  H13 <0> d          -4.324  -0.155   3.236  0.00  0.00     0.040 H 
ATOM     28  H14 <0> d          -5.115   1.406   2.914  0.00  0.00     0.040 H 
ENDBRANCH   9  25
TORSDOF 3
