REMARK  3 active torsions:
REMARK  status: ('A' for Active; 'I' for Inactive)
REMARK    1  A    between atoms: C1_1  and  C2_2 
REMARK    2  A    between atoms: C3_3  and  N2_10 
REMARK    3  A    between atoms: C6_6  and  N1_9 
ROOT
ATOM      1  C2  <0> d           0.002  -0.004   0.002  0.00  0.00     0.005 A 
ATOM      2  C3  <0> d           0.006  -0.692  -1.204  0.00  0.00     0.034 A 
ATOM      3  C4  <0> d           0.024  -2.080  -1.212  0.00  0.00    -0.055 A 
ATOM      4  C5  <0> d           0.039  -2.778  -0.020  0.00  0.00    -0.052 A 
ATOM      5  C6  <0> d           0.035  -2.092   1.186  0.00  0.00     0.065 A 
ATOM      6  C7  <0> d           0.023  -0.702   1.195  0.00  0.00     0.150 A 
ATOM      7  F1  <0> d           0.025  -0.033   2.369  0.00  0.00    -0.203 F 
ATOM      8  H4  <0> d           0.027  -2.615  -2.151  0.00  0.00     0.087 H 
ATOM      9  H5  <0> d           0.052  -3.858  -0.027  0.00  0.00     0.087 H 
ENDROOT
BRANCH   1  10
ATOM     10  C1  <0> d          -0.018   1.503   0.010  0.00  0.00    -0.046 C 
ATOM     11  H1  <0> d           1.004   1.880   0.003  0.00  0.00     0.033 H 
ATOM     12  H2  <0> d          -0.545   1.864  -0.873  0.00  0.00     0.033 H 
ATOM     13  H3  <0> d          -0.529   1.854   0.907  0.00  0.00     0.033 H 
ENDBRANCH   1  10
BRANCH   2  14
ATOM     14  N2  <0> d          -0.009   0.014  -2.413  0.00  0.00    -0.399 N 
ATOM     15  H8  <0> d          -0.023   0.984  -2.408  0.00  0.00     0.156 HD
ATOM     16  H9  <0> d          -0.007  -0.466  -3.256  0.00  0.00     0.156 HD
ENDBRANCH   2  14
BRANCH   5  17
ATOM     17  N1  <0> d           0.050  -2.801   2.396  0.00  0.00    -0.397 N 
ATOM     18  H6  <0> d           0.062  -3.771   2.389  0.00  0.00     0.156 HD
ATOM     19  H7  <0> d           0.048  -2.321   3.239  0.00  0.00     0.156 HD
ENDBRANCH   5  17
TORSDOF 3
