REMARK  4 active torsions:
REMARK  status: ('A' for Active; 'I' for Inactive)
REMARK    1  A    between atoms: C1_1  and  C2_2 
REMARK    2  A    between atoms: C2_2  and  N1_3 
REMARK    3  A    between atoms: C5_7  and  C6_8 
REMARK    4  A    between atoms: C6_8  and  O1_9 
ROOT
ATOM      1  N1  <0> d          -0.749   3.044   1.275  0.00  0.00    -0.342 N 
ATOM      2  C3  <0> d           0.145   3.865   1.908  0.00  0.00    -0.002 A 
ATOM      3  C4  <0> d          -0.241   5.130   1.654  0.00  0.00     0.019 A 
ATOM      4  N2  <0> d          -1.346   5.083   0.896  0.00  0.00    -0.244 NA
ATOM      5  C5  <0> d          -1.656   3.837   0.664  0.00  0.00     0.129 A 
ATOM      6  H6  <0> d           0.998   3.557   2.495  0.00  0.00     0.113 H 
ATOM      7  H7  <0> d           0.251   6.026   2.005  0.00  0.00     0.117 H 
ENDROOT
BRANCH   1   8
ATOM      8  C2  <0> d          -0.729   1.579   1.267  0.00  0.00    -0.003 C 
ATOM      9  H4  <0> d          -1.751   1.202   1.275  0.00  0.00     0.064 H 
ATOM     10  H5  <0> d          -0.202   1.218   2.150  0.00  0.00     0.064 H 
BRANCH   8  11
ATOM     11  C1  <0> d          -0.013   1.086   0.008  0.00  0.00    -0.061 C 
ATOM     12  H1  <0> d           0.002  -0.004   0.002  0.00  0.00     0.029 H 
ATOM     13  H2  <0> d           1.010   1.463   0.000  0.00  0.00     0.029 H 
ATOM     14  H3  <0> d          -0.540   1.447  -0.875  0.00  0.00     0.029 H 
ENDBRANCH   8  11
ENDBRANCH   1   8
BRANCH   5  15
ATOM     15  C6  <0> d          -2.831   3.361  -0.150  0.00  0.00     0.071 C 
ATOM     16  H8  <0> d          -3.062   4.097  -0.920  0.00  0.00     0.086 H 
ATOM     17  H9  <0> d          -2.586   2.408  -0.620  0.00  0.00     0.086 H 
BRANCH  15  18
ATOM     18  O1  <0> d          -3.965   3.193   0.703  0.00  0.00    -0.393 OA
ATOM     19  H10 <0> d          -4.760   2.888   0.245  0.00  0.00     0.209 HD
ENDBRANCH  15  18
ENDBRANCH   5  15
TORSDOF 4
