REMARK  2 active torsions:
REMARK  status: ('A' for Active; 'I' for Inactive)
REMARK    1  A    between atoms: C4_4  and  O1_8 
REMARK    2  A    between atoms: C5_5  and  N1_7 
ROOT
ATOM      1  C1  <0> d          -0.017   1.378   0.010  0.00  0.00    -0.081 A 
ATOM      2  C2  <0> d           1.169   2.089   0.002  0.00  0.00    -0.080 A 
ATOM      3  C3  <0> d           2.380   1.421  -0.013  0.00  0.00    -0.049 A 
ATOM      4  C4  <0> d           2.407   0.036  -0.021  0.00  0.00     0.091 A 
ATOM      5  C5  <0> d           1.213  -0.681  -0.013  0.00  0.00     0.059 A 
ATOM      6  C6  <0> d           0.002  -0.004   0.002  0.00  0.00    -0.055 A 
ATOM      7  H1  <0> d          -0.960   1.904   0.026  0.00  0.00     0.083 H 
ATOM      8  H2  <0> d           1.150   3.169   0.008  0.00  0.00     0.083 H 
ATOM      9  H3  <0> d           3.304   1.979  -0.019  0.00  0.00     0.087 H 
ATOM     10  H4  <0> d          -0.926  -0.557   0.008  0.00  0.00     0.087 H 
ENDROOT
BRANCH   5  11
ATOM     11  N1  <0> d           1.235  -2.080  -0.021  0.00  0.00    -0.397 N 
ATOM     12  H5  <0> d           2.082  -2.552  -0.032  0.00  0.00     0.156 HD
ATOM     13  H6  <0> d           0.402  -2.578  -0.016  0.00  0.00     0.156 HD
ENDBRANCH   5  11
BRANCH   4  14
ATOM     14  O1  <0> d           3.598  -0.622  -0.036  0.00  0.00    -0.358 OA
ATOM     15  H7  <0> d           3.950  -0.817   0.843  0.00  0.00     0.217 HD
ENDBRANCH   4  14
TORSDOF 2
