REMARK  3 active torsions:
REMARK  status: ('A' for Active; 'I' for Inactive)
REMARK    1  A    between atoms: C1_1  and  C2_2 
REMARK    2  A    between atoms: C4_5  and  C7_9 
REMARK    3  A    between atoms: C5_7  and  C6_8 
ROOT
ATOM      1  C2  <0> d           0.002  -0.004   0.002  0.00  0.00    -0.020 A 
ATOM      2  C3  <0> d           0.006  -0.707  -1.192  0.00  0.00     0.012 A 
ATOM      3  N1  <0> d           0.024  -2.030  -1.161  0.00  0.00    -0.245 NA
ATOM      4  C4  <0> d           0.038  -2.678  -0.013  0.00  0.00     0.122 A 
ATOM      5  N2  <0> d           0.035  -2.043   1.142  0.00  0.00    -0.238 NA
ATOM      6  C5  <0> d           0.023  -0.720   1.188  0.00  0.00     0.040 A 
ATOM      7  H4  <0> d          -0.006  -0.183  -2.136  0.00  0.00     0.115 H 
ENDROOT
BRANCH   1   8
ATOM      8  C1  <0> d          -0.018   1.503   0.010  0.00  0.00    -0.048 C 
ATOM      9  H1  <0> d           1.004   1.880   0.003  0.00  0.00     0.033 H 
ATOM     10  H2  <0> d          -0.545   1.864  -0.873  0.00  0.00     0.033 H 
ATOM     11  H3  <0> d          -0.529   1.854   0.907  0.00  0.00     0.033 H 
ENDBRANCH   1   8
BRANCH   6  12
ATOM     12  C6  <0> d           0.026  -0.002   2.514  0.00  0.00    -0.035 C 
ATOM     13  H5  <0> d          -1.000   0.157   2.843  0.00  0.00     0.035 H 
ATOM     14  H6  <0> d           0.555  -0.605   3.252  0.00  0.00     0.035 H 
ATOM     15  H7  <0> d           0.526   0.960   2.404  0.00  0.00     0.035 H 
ENDBRANCH   6  12
BRANCH   4  16
ATOM     16  C7  <0> d           0.058  -4.184  -0.021  0.00  0.00    -0.019 C 
ATOM     17  H8  <0> d           1.091  -4.534  -0.028  0.00  0.00     0.037 H 
ATOM     18  H9  <0> d          -0.447  -4.559   0.870  0.00  0.00     0.037 H 
ATOM     19  H10 <0> d          -0.455  -4.550  -0.910  0.00  0.00     0.037 H 
ENDBRANCH   4  16
TORSDOF 3
