REMARK  2 active torsions:
REMARK  status: ('A' for Active; 'I' for Inactive)
REMARK    1  A    between atoms: C1_1  and  C2_2 
REMARK    2  A    between atoms: C2_2  and  C3_3 
ROOT
ATOM      1  C3  <0> d           0.742  -0.511   1.242  0.00  0.00     0.010 A 
ATOM      2  H1  <0> d           0.688   0.134   2.119  0.00  0.00     0.052 H 
ATOM      3  C4  <0> d           0.777  -2.022   1.476  0.00  0.00     0.000 A 
ATOM      4  C5  <0> d           2.016  -1.287   1.024  0.00  0.00     0.132 A 
ATOM      5  O1  <0> d           3.183  -1.305   0.714  0.00  0.00    -0.298 OA
ATOM      6  H7  <0> d           0.748  -2.373   2.507  0.00  0.00     0.045 H 
ATOM      7  H8  <0> d           0.273  -2.657   0.747  0.00  0.00     0.045 H 
ENDROOT
BRANCH   1   8
ATOM      8  C2  <0> d           0.002  -0.004   0.002  0.00  0.00    -0.058 C 
ATOM      9  H5  <0> d          -1.020  -0.381   0.010  0.00  0.00     0.033 H 
ATOM     10  H6  <0> d           0.512  -0.356  -0.895  0.00  0.00     0.033 H 
BRANCH   8  11
ATOM     11  C1  <0> d          -0.019   1.526   0.010  0.00  0.00    -0.076 C 
ATOM     12  H2  <0> d           1.004   1.903   0.003  0.00  0.00     0.027 H 
ATOM     13  H3  <0> d          -0.546   1.887  -0.873  0.00  0.00     0.027 H 
ATOM     14  H4  <0> d          -0.529   1.877   0.907  0.00  0.00     0.027 H 
ENDBRANCH   8  11
ENDBRANCH   1   8
TORSDOF 2
