REMARK  0 active torsions:
REMARK  status: ('A' for Active; 'I' for Inactive)
ROOT
ATOM      1  C1  <0> d          -0.443   1.836   1.490  0.00  0.00    -0.058 C 
ATOM      2  C2  <0> d           0.271   0.716   2.284  0.00  0.00    -0.058 C 
ATOM      3  C3  <0> d           1.036  -0.087   1.184  0.00  0.00    -0.037 C 
ATOM      4  H1  <0> d           1.389  -1.082   1.455  0.00  0.00     0.045 H 
ATOM      5  C4  <0> d           0.002  -0.004   0.002  0.00  0.00    -0.052 C 
ATOM      6  C5  <0> d          -0.019   1.568   0.011  0.00  0.00    -0.037 C 
ATOM      7  H2  <0> d          -0.608   2.054  -0.768  0.00  0.00     0.045 H 
ATOM      8  C6  <0> d           1.488   1.850  -0.002  0.00  0.00    -0.102 C 
ATOM      9  C7  <0> d           2.096   0.896   0.674  0.00  0.00    -0.102 C 
ATOM     10  H3  <0> d          -0.097   2.817   1.816  0.00  0.00     0.033 H 
ATOM     11  H4  <0> d          -1.524   1.754   1.599  0.00  0.00     0.033 H 
ATOM     12  H5  <0> d          -0.457   0.079   2.787  0.00  0.00     0.033 H 
ATOM     13  H6  <0> d           0.970   1.142   3.004  0.00  0.00     0.033 H 
ATOM     14  H7  <0> d          -0.965  -0.436   0.261  0.00  0.00     0.034 H 
ATOM     15  H8  <0> d           0.398  -0.411  -0.928  0.00  0.00     0.034 H 
ATOM     16  H9  <0> d           1.970   2.688  -0.484  0.00  0.00     0.076 H 
ATOM     17  H10 <0> d           3.160   0.819   0.840  0.00  0.00     0.076 H 
ENDROOT
TORSDOF 0
