REMARK  1 active torsions:
REMARK  status: ('A' for Active; 'I' for Inactive)
REMARK    1  A    between atoms: C1_1  and  C2_2 
ROOT
ATOM      1  C2  <0> d           0.002  -0.004   0.002  0.00  0.00    -0.061 A 
ATOM      2  C3  <0> d           0.006  -0.683  -1.210  0.00  0.00    -0.076 A 
ATOM      3  C4  <0> d           0.025  -2.049  -1.249  0.00  0.00    -0.071 A 
ATOM      4  C5  <0> d           0.040  -2.771  -0.055  0.00  0.00    -0.019 A 
ATOM      5  C6  <0> d           0.061  -4.234  -0.032  0.00  0.00    -0.057 A 
ATOM      6  C7  <0> d           0.076  -4.875   1.148  0.00  0.00    -0.019 A 
ATOM      7  N1  <0> d           0.073  -4.212   2.342  0.00  0.00    -0.333 N 
ATOM      8  H1  <0> d           0.085  -4.726   3.164  0.00  0.00     0.168 HD
ATOM      9  C8  <0> d           0.055  -2.866   2.417  0.00  0.00     0.256 A 
ATOM     10  O1  <0> d           0.052  -2.310   3.500  0.00  0.00    -0.267 OA
ATOM     11  C9  <0> d           0.037  -2.080   1.179  0.00  0.00     0.043 A 
ATOM     12  C10 <0> d           0.023  -0.685   1.188  0.00  0.00    -0.061 A 
ATOM     13  H5  <0> d          -0.007  -0.123  -2.134  0.00  0.00     0.084 H 
ATOM     14  H6  <0> d           0.027  -2.566  -2.197  0.00  0.00     0.084 H 
ATOM     15  H7  <0> d           0.064  -4.793  -0.956  0.00  0.00     0.086 H 
ATOM     16  H8  <0> d           0.092  -5.955   1.153  0.00  0.00     0.111 H 
ATOM     17  H9  <0> d           0.024  -0.147   2.124  0.00  0.00     0.085 H 
ENDROOT
BRANCH   1  18
ATOM     18  C1  <0> d          -0.018   1.503   0.010  0.00  0.00    -0.051 C 
ATOM     19  H2  <0> d           1.004   1.880   0.003  0.00  0.00     0.033 H 
ATOM     20  H3  <0> d          -0.545   1.864  -0.873  0.00  0.00     0.033 H 
ATOM     21  H4  <0> d          -0.529   1.854   0.907  0.00  0.00     0.033 H 
ENDBRANCH   1  18
TORSDOF 1
