REMARK  1 active torsions:
REMARK  status: ('A' for Active; 'I' for Inactive)
REMARK    1  A    between atoms: C1_1  and  N1_2 
ROOT
ATOM      1  N1  <0> d          -0.698   1.558   1.213  0.00  0.00    -0.356 N 
ATOM      2  C2  <0> d           0.016   1.786   2.350  0.00  0.00    -0.015 A 
ATOM      3  C3  <0> d          -0.627   2.223   3.458  0.00  0.00    -0.001 A 
ATOM      4  C4  <0> d          -2.027   2.428   3.393  0.00  0.00     0.269 A 
ATOM      5  O1  <0> d          -2.639   2.821   4.373  0.00  0.00    -0.266 OA
ATOM      6  N2  <0> d          -2.675   2.184   2.240  0.00  0.00    -0.205 NA
ATOM      7  C5  <0> d          -2.027   1.768   1.185  0.00  0.00     0.069 A 
ATOM      8  H4  <0> d           1.083   1.621   2.367  0.00  0.00     0.111 H 
ATOM      9  H5  <0> d          -0.084   2.412   4.372  0.00  0.00     0.094 H 
ATOM     10  H6  <0> d          -2.571   1.584   0.270  0.00  0.00     0.143 H 
ENDROOT
BRANCH   1  11
ATOM     11  C1  <0> d          -0.013   1.086   0.008  0.00  0.00    -0.014 C 
ATOM     12  H1  <0> d           0.002  -0.004   0.002  0.00  0.00     0.057 H 
ATOM     13  H2  <0> d           1.010   1.463   0.000  0.00  0.00     0.057 H 
ATOM     14  H3  <0> d          -0.540   1.447  -0.875  0.00  0.00     0.057 H 
ENDBRANCH   1  11
TORSDOF 1
