REMARK  2 active torsions:
REMARK  status: ('A' for Active; 'I' for Inactive)
REMARK    1  A    between atoms: C1_1  and  C2_2 
REMARK    2  A    between atoms: C4_5  and  N3_9 
ROOT
ATOM      1  C2  <0> d          -0.742   1.585  -1.213  0.00  0.00     0.025 A 
ATOM      2  C3  <0> d          -1.261   0.706  -2.118  0.00  0.00     0.032 A 
ATOM      3  N1  <0> d          -1.903   1.157  -3.194  0.00  0.00    -0.077 NA
ATOM      4  C4  <0> d          -2.054   2.448  -3.412  0.00  0.00     0.700 A 
ATOM      5  N2  <0> d          -1.557   3.371  -2.544  0.00  0.00    -0.154 N 
ATOM      6  C5  <0> d          -0.903   2.964  -1.435  0.00  0.00     0.267 A 
ATOM      7  O1  <0> d          -0.456   3.778  -0.643  0.00  0.00    -0.267 OA
ATOM      8  H4  <0> d          -1.151  -0.357  -1.962  0.00  0.00     0.116 H 
ATOM      9  H5  <0> d          -1.676   4.317  -2.720  0.00  0.00     0.187 HD
ENDROOT
BRANCH   1  10
ATOM     10  C1  <0> d          -0.013   1.086   0.008  0.00  0.00    -0.045 C 
ATOM     11  H1  <0> d           0.002  -0.004   0.002  0.00  0.00     0.033 H 
ATOM     12  H2  <0> d           1.010   1.463   0.000  0.00  0.00     0.033 H 
ATOM     13  H3  <0> d          -0.523   1.437   0.905  0.00  0.00     0.033 H 
ENDBRANCH   1  10
BRANCH   4  14
ATOM     14  N3  <0> d          -2.721   2.868  -4.531  0.00  0.00    -0.233 N 
ATOM     15  H6  <0> d          -3.078   2.217  -5.155  0.00  0.00     0.174 HD
ATOM     16  H7  <0> d          -2.836   3.816  -4.699  0.00  0.00     0.174 HD
ENDBRANCH   4  14
TORSDOF 2
