REMARK  3 active torsions:
REMARK  status: ('A' for Active; 'I' for Inactive)
REMARK    1  A    between atoms: C3_3  and  O1_11 
REMARK    2  A    between atoms: C6_6  and  C7_7 
REMARK    3  A    between atoms: C7_7  and  C8_8 
ROOT
ATOM      1  C8  <0> d           1.217  -2.690  -1.466  0.00  0.00     0.018 C 
ATOM      2  C9  <0> d           1.234  -4.162  -1.474  0.00  0.00     0.059 C 
ATOM      3  N1  <0> d           1.248  -5.298  -1.479  0.00  0.00    -0.197 NA
ATOM      4  H7  <0> d           0.318  -2.334  -1.969  0.00  0.00     0.055 H 
ATOM      5  H8  <0> d           2.098  -2.313  -1.986  0.00  0.00     0.055 H 
ENDROOT
BRANCH   1   6
ATOM      6  C7  <0> d           1.226  -2.187  -0.021  0.00  0.00    -0.030 C 
ATOM      7  H5  <0> d           2.125  -2.543   0.482  0.00  0.00     0.041 H 
ATOM      8  H6  <0> d           0.345  -2.563   0.500  0.00  0.00     0.041 H 
BRANCH   6   9
ATOM      9  C6  <0> d           1.208  -0.680  -0.013  0.00  0.00    -0.057 A 
ATOM     10  C1  <0> d           0.002  -0.004   0.002  0.00  0.00    -0.074 A 
ATOM     11  C2  <0> d          -0.017   1.377   0.010  0.00  0.00    -0.051 A 
ATOM     12  H1  <0> d          -0.926  -0.556   0.008  0.00  0.00     0.084 H 
ATOM     13  C3  <0> d           1.176   2.086   0.002  0.00  0.00     0.065 A 
ATOM     14  H2  <0> d          -0.959   1.905   0.017  0.00  0.00     0.087 H 
ATOM     15  C4  <0> d           2.385   1.405  -0.013  0.00  0.00    -0.051 A 
ATOM     16  C5  <0> d           2.398   0.024  -0.021  0.00  0.00    -0.074 A 
ATOM     17  H3  <0> d           3.314   1.955  -0.018  0.00  0.00     0.087 H 
ATOM     18  H4  <0> d           3.339  -0.506  -0.033  0.00  0.00     0.084 H 
BRANCH  13  19
ATOM     19  O1  <0> d           1.160   3.445   0.009  0.00  0.00    -0.361 OA
ATOM     20  H9  <0> d           1.164   3.834   0.894  0.00  0.00     0.217 HD
ENDBRANCH  13  19
ENDBRANCH   6   9
ENDBRANCH   1   6
TORSDOF 3
