REMARK  0 active torsions:
REMARK  status: ('A' for Active; 'I' for Inactive)
ROOT
ATOM      1  C1  <0> d          -0.013   1.076   0.008  0.00  0.00    -0.063 A 
ATOM      2  C2  <0> d          -1.219   1.758   0.017  0.00  0.00    -0.041 A 
ATOM      3  C3  <0> d          -1.194   3.146   0.030  0.00  0.00     0.155 A 
ATOM      4  C4  <0> d           0.040   3.801   0.022  0.00  0.00     0.174 A 
ATOM      5  N1  <0> d           1.172   3.106   0.008  0.00  0.00    -0.247 NA
ATOM      6  C5  <0> d           1.174   1.791   0.001  0.00  0.00     0.004 A 
ATOM      7  C6  <0> d           0.085   5.233   0.029  0.00  0.00     0.123 C 
ATOM      8  N2  <0> d           0.121   6.368   0.035  0.00  0.00    -0.190 NA
ATOM      9  F1  <0> d          -2.345   3.853   0.044  0.00  0.00    -0.203 F 
ATOM     10  H1  <0> d           0.002  -0.004   0.002  0.00  0.00     0.085 H 
ATOM     11  H2  <0> d          -2.156   1.223   0.018  0.00  0.00     0.088 H 
ATOM     12  H3  <0> d           2.115   1.260  -0.012  0.00  0.00     0.114 H 
ENDROOT
TORSDOF 0
