REMARK  1 active torsions:
REMARK  status: ('A' for Active; 'I' for Inactive)
REMARK    1  A    between atoms: C1_1  and  N1_2 
ROOT
ATOM      1  N1  <0> d           0.002  -0.004   0.002  0.00  0.00    -0.300 N 
ATOM      2  C2  <0> d           1.329  -0.423  -0.013  0.00  0.00     0.082 A 
ATOM      3  C3  <0> d           1.952  -1.659  -0.026  0.00  0.00     0.030 A 
ATOM      4  N2  <0> d           3.269  -1.742  -0.040  0.00  0.00    -0.271 NA
ATOM      5  C4  <0> d           4.041  -0.671  -0.042  0.00  0.00     0.004 A 
ATOM      6  C5  <0> d           3.498   0.599  -0.029  0.00  0.00    -0.038 A 
ATOM      7  C6  <0> d           2.116   0.735  -0.014  0.00  0.00     0.066 A 
ATOM      8  N3  <0> d           1.246   1.814  -0.000  0.00  0.00    -0.306 N 
ATOM      9  H1  <0> d           1.502   2.749   0.002  0.00  0.00     0.171 HD
ATOM     10  C7  <0> d          -0.016   1.343   0.009  0.00  0.00     0.327 A 
ATOM     11  O1  <0> d          -1.020   2.030   0.018  0.00  0.00    -0.246 OA
ATOM     12  H5  <0> d           1.357  -2.560  -0.026  0.00  0.00     0.118 H 
ATOM     13  H6  <0> d           5.114  -0.789  -0.053  0.00  0.00     0.114 H 
ATOM     14  H7  <0> d           4.137   1.470  -0.031  0.00  0.00     0.089 H 
ENDROOT
BRANCH   1  15
ATOM     15  C1  <0> d          -1.174  -0.878   0.008  0.00  0.00    -0.009 C 
ATOM     16  H2  <0> d          -2.078  -0.270   0.020  0.00  0.00     0.057 H 
ATOM     17  H3  <0> d          -1.167  -1.502  -0.886  0.00  0.00     0.057 H 
ATOM     18  H4  <0> d          -1.150  -1.512   0.894  0.00  0.00     0.057 H 
ENDBRANCH   1  15
TORSDOF 1
