REMARK  4 active torsions:
REMARK  status: ('A' for Active; 'I' for Inactive)
REMARK    1  A    between atoms: C1_1  and  C2_2 
REMARK    2  A    between atoms: C2_2  and  C3_3 
REMARK    3  A    between atoms: C2_2  and  C4_4 
REMARK    4  A    between atoms: C4_4  and  C5_5 
ROOT
ATOM      1  C2  <0> d          -0.013   1.086   0.008  0.00  0.00    -0.052 C 
ATOM      2  H4  <0> d           0.002  -0.004   0.002  0.00  0.00     0.039 H 
ENDROOT
BRANCH   1   3
ATOM      3  C1  <0> d          -0.753   1.593  -1.232  0.00  0.00    -0.073 C 
ATOM      4  H1  <0> d          -0.242   1.241  -2.128  0.00  0.00     0.028 H 
ATOM      5  H2  <0> d          -1.775   1.215  -1.224  0.00  0.00     0.028 H 
ATOM      6  H3  <0> d          -0.767   2.683  -1.226  0.00  0.00     0.028 H 
ENDBRANCH   1   3
BRANCH   1   7
ATOM      7  C3  <0> d          -0.729   1.579   1.267  0.00  0.00    -0.073 C 
ATOM      8  H5  <0> d          -0.744   2.669   1.273  0.00  0.00     0.028 H 
ATOM      9  H6  <0> d          -1.751   1.202   1.275  0.00  0.00     0.028 H 
ATOM     10  H7  <0> d          -0.202   1.218   2.150  0.00  0.00     0.028 H 
ENDBRANCH   1   7
BRANCH   1  11
ATOM     11  C4  <0> d           1.423   1.615  -0.003  0.00  0.00     0.018 C 
ATOM     12  H8  <0> d           1.408   2.702  -0.086  0.00  0.00     0.049 H 
ATOM     13  H9  <0> d           1.923   1.329   0.922  0.00  0.00     0.049 H 
BRANCH  11  14
ATOM     14  C5  <0> d           2.165   1.031  -1.177  0.00  0.00     0.172 C 
ATOM     15  O1  <0> d           1.603   0.269  -1.928  0.00  0.00    -0.648 OA
ATOM     16  O2  <0> d           3.450   1.357  -1.389  0.00  0.00    -0.648 OA
ENDBRANCH  11  14
ENDBRANCH   1  11
TORSDOF 4
