REMARK  0 active torsions:
REMARK  status: ('A' for Active; 'I' for Inactive)
ROOT
ATOM      1  C1  <0> d           1.172   1.783   0.000  0.00  0.00    -0.059 A 
ATOM      2  C2  <0> d          -0.013   1.076   0.008  0.00  0.00    -0.046 A 
ATOM      3  C3  <0> d          -1.222   1.754   0.017  0.00  0.00     0.105 A 
ATOM      4  C4  <0> d          -1.236   3.157   0.029  0.00  0.00     0.094 A 
ATOM      5  C5  <0> d          -0.030   3.860   0.021  0.00  0.00    -0.031 A 
ATOM      6  C6  <0> d           1.163   3.171   0.007  0.00  0.00     0.036 A 
ATOM      7 Cl1  <0> d           2.664   4.043  -0.003  0.00  0.00    -0.084 Cl
ATOM      8  N1  <0> d          -2.544   3.531   0.043  0.00  0.00    -0.234 NA
ATOM      9  C7  <0> d          -3.284   2.464   0.031  0.00  0.00     0.104 A 
ATOM     10  O1  <0> d          -2.515   1.363   0.022  0.00  0.00    -0.302 OA
ATOM     11  H1  <0> d           2.113   1.253  -0.011  0.00  0.00     0.086 H 
ATOM     12  H2  <0> d           0.002  -0.004   0.002  0.00  0.00     0.087 H 
ATOM     13  H3  <0> d          -0.033   4.940   0.026  0.00  0.00     0.089 H 
ATOM     14  H4  <0> d          -4.364   2.462   0.037  0.00  0.00     0.155 H 
ENDROOT
TORSDOF 0
