REMARK  3 active torsions:
REMARK  status: ('A' for Active; 'I' for Inactive)
REMARK    1  A    between atoms: C1_1  and  O1_2 
REMARK    2  A    between atoms: O1_2  and  C2_3 
REMARK    3  A    between atoms: C2_3  and  C3_5 
ROOT
ATOM      1  C3  <0> d           0.657  -2.104  -1.120  0.00  0.00     0.215 C 
ATOM      2  H1  <0> d          -0.289  -2.522  -0.779  0.00  0.00     0.104 H 
ATOM      3  C4  <0> d           1.792  -2.615  -0.229  0.00  0.00    -0.027 C 
ATOM      4  C5  <0> d           1.861  -4.142  -0.326  0.00  0.00    -0.061 C 
ATOM      5  C6  <0> d           2.067  -4.544  -1.789  0.00  0.00    -0.040 C 
ATOM      6  C7  <0> d           0.925  -3.976  -2.634  0.00  0.00     0.112 C 
ATOM      7  N1  <0> d           0.902  -2.513  -2.509  0.00  0.00     0.097 N 
ATOM      8  H5  <0> d           2.737  -2.187  -0.561  0.00  0.00     0.036 H 
ATOM      9  H6  <0> d           1.602  -2.325   0.805  0.00  0.00     0.036 H 
ATOM     10  H7  <0> d           2.695  -4.508   0.274  0.00  0.00     0.033 H 
ATOM     11  H8  <0> d           0.930  -4.573   0.043  0.00  0.00     0.033 H 
ATOM     12  H9  <0> d           3.017  -4.145  -2.145  0.00  0.00     0.035 H 
ATOM     13  H10 <0> d           2.075  -5.631  -1.870  0.00  0.00     0.035 H 
ATOM     14  H11 <0> d           1.077  -4.248  -3.679  0.00  0.00     0.079 H 
ATOM     15  H12 <0> d          -0.023  -4.386  -2.286  0.00  0.00     0.079 H 
ATOM     16  H13 <0> d           0.219  -2.108  -3.131  0.00  0.00     0.317 HD
ENDROOT
BRANCH   1  17
ATOM     17  C2  <0> d           0.598  -0.600  -1.043  0.00  0.00     0.292 C 
ATOM     18  O2  <0> d           1.088   0.070  -1.921  0.00  0.00    -0.263 OA
BRANCH  17  19
ATOM     19  O1  <0> d           0.002  -0.004   0.002  0.00  0.00    -0.325 OA
BRANCH  19  20
ATOM     20  C1  <0> d          -0.017   1.425   0.010  0.00  0.00     0.013 C 
ATOM     21  H2  <0> d           1.005   1.802   0.002  0.00  0.00     0.067 H 
ATOM     22  H3  <0> d          -0.544   1.786  -0.873  0.00  0.00     0.067 H 
ATOM     23  H4  <0> d          -0.527   1.776   0.907  0.00  0.00     0.067 H 
ENDBRANCH  19  20
ENDBRANCH  17  19
ENDBRANCH   1  17
TORSDOF 3
