REMARK  3 active torsions:
REMARK  status: ('A' for Active; 'I' for Inactive)
REMARK    1  A    between atoms: C1_1  and  O1_2 
REMARK    2  A    between atoms: O1_2  and  C2_3 
REMARK    3  A    between atoms: C2_3  and  C3_5 
ROOT
ATOM      1  C3  <0> d           2.232   0.792   0.586  0.00  0.00     0.030 C 
ATOM      2  C4  <0> d           1.453   1.995  -0.001  0.00  0.00    -0.053 C 
ATOM      3  C5  <0> d          -0.019   1.534   0.011  0.00  0.00    -0.064 C 
ATOM      4  C6  <0> d           0.002  -0.004   0.002  0.00  0.00    -0.064 C 
ATOM      5  C7  <0> d           1.486  -0.425  -0.014  0.00  0.00    -0.053 C 
ATOM      6  H4  <0> d           2.169   0.786   1.675  0.00  0.00     0.055 H 
ATOM      7  H5  <0> d           1.781   2.201  -1.020  0.00  0.00     0.034 H 
ATOM      8  H6  <0> d           1.582   2.877   0.627  0.00  0.00     0.034 H 
ATOM      9  H7  <0> d          -0.533   1.906  -0.876  0.00  0.00     0.033 H 
ATOM     10  H8  <0> d          -0.516   1.896   0.910  0.00  0.00     0.033 H 
ATOM     11  H9  <0> d          -0.485  -0.389   0.898  0.00  0.00     0.033 H 
ATOM     12  H10 <0> d          -0.502  -0.379  -0.888  0.00  0.00     0.033 H 
ATOM     13  H11 <0> d           1.639  -1.309   0.604  0.00  0.00     0.034 H 
ATOM     14  H12 <0> d           1.818  -0.612  -1.036  0.00  0.00     0.034 H 
ENDROOT
BRANCH   1  15
ATOM     15  C2  <0> d           3.670   0.814   0.134  0.00  0.00     0.262 C 
ATOM     16  O2  <0> d           4.085  -0.050  -0.601  0.00  0.00    -0.265 OA
BRANCH  15  17
ATOM     17  O1  <0> d           4.489   1.794   0.546  0.00  0.00    -0.326 OA
BRANCH  17  18
ATOM     18  C1  <0> d           5.860   1.752   0.071  0.00  0.00     0.013 C 
ATOM     19  H1  <0> d           6.412   2.599   0.478  0.00  0.00     0.067 H 
ATOM     20  H2  <0> d           6.328   0.823   0.395  0.00  0.00     0.067 H 
ATOM     21  H3  <0> d           5.868   1.803  -1.018  0.00  0.00     0.067 H 
ENDBRANCH  17  18
ENDBRANCH  15  17
ENDBRANCH   1  15
TORSDOF 3
