REMARK  2 active torsions:
REMARK  status: ('A' for Active; 'I' for Inactive)
REMARK    1  A    between atoms: C1_1  and  C2_2 
REMARK    2  A    between atoms: C4_4  and  C7_11 
ROOT
ATOM      1  C2  <0> d           0.002  -0.004   0.002  0.00  0.00     0.051 A 
ATOM      2  C3  <0> d          -1.206  -0.717   0.004  0.00  0.00    -0.036 A 
ATOM      3  C4  <0> d          -1.178  -2.073  -0.004  0.00  0.00     0.033 A 
ATOM      4  N1  <0> d           0.028  -2.709  -0.014  0.00  0.00    -0.139 N 
ATOM      5  C5  <0> d           0.404  -4.016  -0.023  0.00  0.00     0.110 A 
ATOM      6  N2  <0> d           1.711  -4.048  -0.029  0.00  0.00    -0.128 NA
ATOM      7  N3  <0> d           2.186  -2.852  -0.025  0.00  0.00     0.045 NA
ATOM      8  C6  <0> d           1.192  -1.979  -0.015  0.00  0.00     0.753 A 
ATOM      9  N4  <0> d           1.150  -0.640  -0.012  0.00  0.00    -0.066 NA
ATOM     10  H4  <0> d          -2.150  -0.192   0.012  0.00  0.00     0.089 H 
ATOM     11  H5  <0> d          -0.256  -4.871  -0.024  0.00  0.00     0.148 H 
ENDROOT
BRANCH   1  12
ATOM     12  C1  <0> d          -0.018   1.503   0.010  0.00  0.00    -0.035 C 
ATOM     13  H1  <0> d           1.004   1.880   0.003  0.00  0.00     0.035 H 
ATOM     14  H2  <0> d          -0.545   1.864  -0.873  0.00  0.00     0.035 H 
ATOM     15  H3  <0> d          -0.529   1.854   0.907  0.00  0.00     0.035 H 
ENDBRANCH   1  12
BRANCH   3  16
ATOM     16  C7  <0> d          -2.461  -2.864  -0.002  0.00  0.00    -0.036 C 
ATOM     17  H6  <0> d          -3.309  -2.181   0.007  0.00  0.00     0.035 H 
ATOM     18  H7  <0> d          -2.504  -3.487  -0.895  0.00  0.00     0.035 H 
ATOM     19  H8  <0> d          -2.495  -3.498   0.885  0.00  0.00     0.035 H 
ENDBRANCH   3  16
TORSDOF 2
