REMARK  4 active torsions:
REMARK  status: ('A' for Active; 'I' for Inactive)
REMARK    1  A    between atoms: C1_1  and  N1_2 
REMARK    2  A    between atoms: N1_2  and  C2_3 
REMARK    3  A    between atoms: N1_2  and  C3_4 
REMARK    4  A    between atoms: C4_5  and  N4_10 
ROOT
ATOM      1  C3  <0> d          -2.286   0.932  -0.134  0.00  0.00     0.150 A 
ATOM      2  C4  <0> d          -1.046   1.508   0.177  0.00  0.00     0.161 A 
ATOM      3  N2  <0> d          -0.932   2.825   0.243  0.00  0.00    -0.239 NA
ATOM      4  C5  <0> d          -1.986   3.594   0.007  0.00  0.00     0.021 A 
ATOM      5  C6  <0> d          -3.205   3.028  -0.298  0.00  0.00     0.021 A 
ATOM      6  N3  <0> d          -3.332   1.710  -0.363  0.00  0.00    -0.243 NA
ATOM      7  H7  <0> d          -1.889   4.668   0.058  0.00  0.00     0.117 H 
ATOM      8  H8  <0> d          -4.059   3.660  -0.486  0.00  0.00     0.117 H 
ENDROOT
BRANCH   1   9
ATOM      9  N1  <0> d          -2.417  -0.452  -0.201  0.00  0.00    -0.273 NA
BRANCH   9  10
ATOM     10  C1  <0> d          -3.334  -0.945   0.835  0.00  0.00    -0.028 C 
ATOM     11  H1  <0> d          -4.316  -0.494   0.695  0.00  0.00     0.049 H 
ATOM     12  H2  <0> d          -3.417  -2.029   0.760  0.00  0.00     0.049 H 
ATOM     13  H3  <0> d          -2.948  -0.678   1.819  0.00  0.00     0.049 H 
ENDBRANCH   9  10
BRANCH   9  14
ATOM     14  C2  <0> d          -2.856  -0.875  -1.538  0.00  0.00    -0.028 C 
ATOM     15  H4  <0> d          -2.138  -0.530  -2.282  0.00  0.00     0.049 H 
ATOM     16  H5  <0> d          -2.921  -1.962  -1.571  0.00  0.00     0.049 H 
ATOM     17  H6  <0> d          -3.834  -0.446  -1.751  0.00  0.00     0.049 H 
ENDBRANCH   9  14
ENDBRANCH   1   9
BRANCH   2  18
ATOM     18  N4  <0> d           0.059   0.698   0.420  0.00  0.00    -0.381 N 
ATOM     19  H9  <0> d          -0.039  -0.267   0.431  0.00  0.00     0.157 HD
ATOM     20  H10 <0> d           0.929   1.099   0.575  0.00  0.00     0.157 HD
ENDBRANCH   2  18
TORSDOF 4
