REMARK  3 active torsions:
REMARK  status: ('A' for Active; 'I' for Inactive)
REMARK    1  A    between atoms: C3_3  and  C5_5 
REMARK       I    between atoms: C5_5  and  N1_7 
REMARK    2  A    between atoms: N1_7  and  C6_8 
REMARK    3  A    between atoms: C6_8  and  C7_9 
REMARK       I    between atoms: C7_9  and  N2_11 
ROOT
ATOM      1  C5  <0> d           2.377  -0.920   0.114  0.00  0.00     0.222 C 
ATOM      2  O1  <0> d           3.165  -0.600  -0.751  0.00  0.00    -0.273 OA
ATOM      3  N1  <0> d           2.381  -2.178   0.597  0.00  0.00    -0.352 N 
ATOM      4  H8  <0> d           1.752  -2.434   1.289  0.00  0.00     0.162 HD
ENDROOT
BRANCH   1   5
ATOM      5  C3  <0> d           1.394   0.090   0.649  0.00  0.00     0.024 C 
ATOM      6  C2  <0> d           1.518   1.476  -0.004  0.00  0.00    -0.054 C 
ATOM      7  C1  <0> d          -0.019   1.534   0.011  0.00  0.00    -0.064 C 
ATOM      8  H3  <0> d           1.944   1.450  -1.007  0.00  0.00     0.034 H 
ATOM      9  H4  <0> d           1.989   2.221   0.637  0.00  0.00     0.034 H 
ATOM     10  C4  <0> d           0.002  -0.004   0.002  0.00  0.00    -0.054 C 
ATOM     11  H1  <0> d          -0.431   1.960   0.925  0.00  0.00     0.033 H 
ATOM     12  H2  <0> d          -0.448   1.969  -0.892  0.00  0.00     0.033 H 
ATOM     13  H6  <0> d          -0.751  -0.455   0.649  0.00  0.00     0.034 H 
ATOM     14  H7  <0> d           0.014  -0.435  -0.999  0.00  0.00     0.034 H 
ATOM     15  H5  <0> d           1.368   0.121   1.738  0.00  0.00     0.054 H 
ENDBRANCH   1   5
BRANCH   3  16
ATOM     16  C6  <0> d           3.337  -3.159   0.077  0.00  0.00     0.068 C 
ATOM     17  H9  <0> d           3.179  -3.288  -0.993  0.00  0.00     0.078 H 
ATOM     18  H10 <0> d           4.353  -2.805   0.254  0.00  0.00     0.078 H 
BRANCH  16  19
ATOM     19  C7  <0> d           3.135  -4.478   0.778  0.00  0.00     0.233 C 
ATOM     20  O2  <0> d           2.277  -4.587   1.629  0.00  0.00    -0.272 OA
ATOM     21  N2  <0> d           3.908  -5.535   0.461  0.00  0.00    -0.369 N 
ATOM     22  H11 <0> d           4.594  -5.447  -0.219  0.00  0.00     0.159 HD
ATOM     23  H12 <0> d           3.777  -6.384   0.912  0.00  0.00     0.159 HD
ENDBRANCH  16  19
ENDBRANCH   3  16
TORSDOF 3
