REMARK  1 active torsions:
REMARK  status: ('A' for Active; 'I' for Inactive)
REMARK    1  A    between atoms: C3_3  and  C7_8 
ROOT
ATOM      1  C7  <0> d          -0.069   5.348   0.031  0.00  0.00     0.038 C 
ATOM      2  C8  <0> d          -0.088   5.846  -1.355  0.00  0.00     0.063 C 
ATOM      3  N1  <0> d          -0.103   6.230  -2.424  0.00  0.00    -0.197 NA
ATOM      4  H5  <0> d          -0.959   5.697   0.555  0.00  0.00     0.062 H 
ATOM      5  H6  <0> d           0.821   5.720   0.538  0.00  0.00     0.062 H 
ENDROOT
BRANCH   1   6
ATOM      6  C3  <0> d          -0.050   3.841   0.023  0.00  0.00    -0.043 A 
ATOM      7  C2  <0> d           1.156   3.166   0.008  0.00  0.00    -0.076 A 
ATOM      8  C1  <0> d           1.175   1.783   0.000  0.00  0.00    -0.081 A 
ATOM      9  H2  <0> d           2.084   3.718   0.002  0.00  0.00     0.084 H 
ATOM     10  C6  <0> d          -0.013   1.076   0.008  0.00  0.00    -0.062 A 
ATOM     11  H1  <0> d           2.117   1.256  -0.012  0.00  0.00     0.083 H 
ATOM     12  C5  <0> d          -1.220   1.752   0.017  0.00  0.00     0.034 A 
ATOM     13  H4  <0> d           0.002  -0.004   0.002  0.00  0.00     0.086 H 
ATOM     14  C4  <0> d          -1.238   3.135   0.030  0.00  0.00    -0.055 A 
ATOM     15 Cl1  <0> d          -2.712   0.864   0.019  0.00  0.00    -0.084 Cl
ATOM     16  H3  <0> d          -2.180   3.663   0.041  0.00  0.00     0.086 H 
ENDBRANCH   1   6
TORSDOF 1
