REMARK  4 active torsions:
REMARK  status: ('A' for Active; 'I' for Inactive)
REMARK    1  A    between atoms: C1_1  and  C2_2 
REMARK    2  A    between atoms: N2_5  and  C5_7 
REMARK    3  A    between atoms: C5_7  and  C6_9 
REMARK    4  A    between atoms: C5_7  and  C7_10 
ROOT
ATOM      1  C7  <0> d          -1.667  -1.079  -1.425  0.00  0.00     0.035 C 
ATOM      2  C8  <0> d          -2.770  -2.055  -1.433  0.00  0.00     0.061 C 
ATOM      3  N3  <0> d          -3.621  -2.807  -1.439  0.00  0.00    -0.197 NA
ATOM      4  H10 <0> d          -2.022  -0.128  -1.821  0.00  0.00     0.058 H 
ATOM      5  H11 <0> d          -0.851  -1.449  -2.045  0.00  0.00     0.058 H 
ENDROOT
BRANCH   1   6
ATOM      6  C5  <0> d          -1.171  -0.882   0.008  0.00  0.00     0.042 C 
ATOM      7  H1  <0> d          -0.899  -1.848   0.435  0.00  0.00     0.076 H 
BRANCH   6   8
ATOM      8  N2  <0> d           0.002  -0.004   0.002  0.00  0.00    -0.275 N 
ATOM      9  N1  <0> d           1.341  -0.417  -0.013  0.00  0.00    -0.184 NA
ATOM     10  C3  <0> d           2.098   0.650  -0.015  0.00  0.00     0.029 A 
ATOM     11  C2  <0> d           1.267   1.775  -0.001  0.00  0.00    -0.026 A 
ATOM     12  H5  <0> d           3.178   0.660  -0.025  0.00  0.00     0.118 H 
ATOM     13  C4  <0> d          -0.016   1.345   0.009  0.00  0.00     0.006 A 
ATOM     14  H6  <0> d          -0.897   1.970   0.017  0.00  0.00     0.115 H 
BRANCH  11  15
ATOM     15  C1  <0> d           1.720   3.212   0.003  0.00  0.00    -0.049 C 
ATOM     16  H2  <0> d           1.839   3.553   1.031  0.00  0.00     0.033 H 
ATOM     17  H3  <0> d           2.674   3.294  -0.520  0.00  0.00     0.033 H 
ATOM     18  H4  <0> d           0.976   3.829  -0.501  0.00  0.00     0.033 H 
ENDBRANCH  11  15
ENDBRANCH   6   8
BRANCH   6  19
ATOM     19  C6  <0> d          -2.279  -0.246   0.849  0.00  0.00    -0.054 C 
ATOM     20  H7  <0> d          -2.551   0.720   0.422  0.00  0.00     0.030 H 
ATOM     21  H8  <0> d          -3.152  -0.899   0.854  0.00  0.00     0.030 H 
ATOM     22  H9  <0> d          -1.925  -0.106   1.870  0.00  0.00     0.030 H 
ENDBRANCH   6  19
ENDBRANCH   1   6
TORSDOF 4
