REMARK  7 active torsions:
REMARK  status: ('A' for Active; 'I' for Inactive)
REMARK    1  A    between atoms: C1_1  and  C2_2 
REMARK    2  A    between atoms: C2_2  and  O1_3 
REMARK    3  A    between atoms: O1_3  and  C3_4 
REMARK    4  A    between atoms: C3_4  and  C4_6 
REMARK    5  A    between atoms: C3_4  and  O2_7 
REMARK    6  A    between atoms: O2_7  and  C5_8 
REMARK    7  A    between atoms: C6_9  and  C7_10 
ROOT
ATOM      1  C7  <0> d           0.983  -2.852   3.442  0.00  0.00    -0.088 C 
ATOM      2  C8  <0> d           0.444  -2.878   4.484  0.00  0.00    -0.150 C 
ATOM      3  H12 <0> d          -0.038  -2.901   5.417  0.00  0.00     0.166 H 
ENDROOT
BRANCH   1   4
ATOM      4  C6  <0> d           1.640  -2.820   2.170  0.00  0.00    -0.013 C 
ATOM      5  C5  <0> d           1.001  -2.338   1.099  0.00  0.00     0.023 C 
ATOM      6  H10 <0> d          -0.011  -1.972   1.193  0.00  0.00     0.123 H 
ATOM      7  H11 <0> d           2.652  -3.186   2.075  0.00  0.00     0.100 H 
BRANCH   5   8
ATOM      8  O2  <0> d           1.623  -2.308  -0.104  0.00  0.00    -0.332 OA
BRANCH   8   9
ATOM      9  C3  <0> d           0.931  -1.663  -1.175  0.00  0.00     0.132 C 
ATOM     10  H1  <0> d          -0.108  -1.992  -1.188  0.00  0.00     0.128 H 
BRANCH   9  11
ATOM     11  O1  <0> d           0.980  -0.247  -0.990  0.00  0.00    -0.362 OA
BRANCH  11  12
ATOM     12  C2  <0> d           0.163   0.228   0.082  0.00  0.00     0.019 C 
ATOM     13  H5  <0> d           0.541  -0.163   1.027  0.00  0.00     0.073 H 
ATOM     14  H6  <0> d          -0.863  -0.109  -0.066  0.00  0.00     0.073 H 
BRANCH  12  15
ATOM     15  C1  <0> d           0.199   1.757   0.112  0.00  0.00    -0.056 C 
ATOM     16  H2  <0> d           1.225   2.094   0.260  0.00  0.00     0.030 H 
ATOM     17  H3  <0> d          -0.179   2.148  -0.832  0.00  0.00     0.030 H 
ATOM     18  H4  <0> d          -0.424   2.119   0.930  0.00  0.00     0.030 H 
ENDBRANCH  12  15
ENDBRANCH  11  12
ENDBRANCH   9  11
BRANCH   9  19
ATOM     19  C4  <0> d           1.597  -2.027  -2.504  0.00  0.00    -0.031 C 
ATOM     20  H7  <0> d           1.560  -3.107  -2.645  0.00  0.00     0.034 H 
ATOM     21  H8  <0> d           1.069  -1.535  -3.321  0.00  0.00     0.034 H 
ATOM     22  H9  <0> d           2.636  -1.697  -2.492  0.00  0.00     0.034 H 
ENDBRANCH   9  19
ENDBRANCH   8   9
ENDBRANCH   5   8
ENDBRANCH   1   4
TORSDOF 7
