REMARK  1 active torsions:
REMARK  status: ('A' for Active; 'I' for Inactive)
REMARK       I    between atoms: N1_3  and  C5_7 
REMARK    1  A    between atoms: C5_7  and  C6_9 
ROOT
ATOM      1  C6  <0> d          -0.770   2.680   3.419  0.00  0.00     0.088 C 
ATOM      2  C7  <0> d           0.180   3.336   4.332  0.00  0.00     0.068 C 
ATOM      3  N3  <0> d           0.913   3.842   5.037  0.00  0.00    -0.197 NA
ATOM      4  H10 <0> d          -1.548   3.398   3.122  0.00  0.00     0.069 H 
ATOM      5  H11 <0> d          -1.236   1.824   3.927  0.00  0.00     0.069 H 
ENDROOT
BRANCH   1   6
ATOM      6  C5  <0> d          -0.037   2.199   2.193  0.00  0.00     0.232 C 
ATOM      7  N1  <0> d          -0.709   1.564   1.212  0.00  0.00    -0.348 N 
ATOM      8  C2  <0> d          -0.013   1.086   0.008  0.00  0.00     0.022 C 
ATOM      9  C3  <0> d          -2.162   1.331   1.310  0.00  0.00     0.022 C 
ATOM     10  C1  <0> d          -0.762   1.597  -1.227  0.00  0.00     0.126 C 
ATOM     11  H3  <0> d           0.004  -0.014  -0.003  0.00  0.00     0.067 H 
ATOM     12  H4  <0> d           1.019   1.468  -0.004  0.00  0.00     0.067 H 
ATOM     13  N2  <0> d          -2.175   1.208  -1.135  0.00  0.00     0.086 N 
ATOM     14  H1  <0> d          -0.319   1.159  -2.134  0.00  0.00     0.082 H 
ATOM     15  H2  <0> d          -0.686   2.694  -1.275  0.00  0.00     0.082 H 
ATOM     16  C4  <0> d          -2.826   1.832   0.024  0.00  0.00     0.126 C 
ATOM     17  H9  <0> d          -2.703   1.525  -2.047  0.00  0.00     0.316 HD
ATOM     18  H7  <0> d          -3.893   1.566   0.034  0.00  0.00     0.082 H 
ATOM     19  H8  <0> d          -2.721   2.925  -0.041  0.00  0.00     0.082 H 
ATOM     20  H5  <0> d          -2.353   0.255   1.435  0.00  0.00     0.067 H 
ATOM     21  H6  <0> d          -2.563   1.877   2.177  0.00  0.00     0.067 H 
ATOM     22  O1  <0> d           1.157   2.383   2.090  0.00  0.00    -0.272 OA
ENDBRANCH   1   6
TORSDOF 1
