REMARK  4 active torsions:
REMARK  status: ('A' for Active; 'I' for Inactive)
REMARK    1  A    between atoms: C1_1  and  C2_2 
REMARK    2  A    between atoms: C1_1  and  C4_5 
REMARK    3  A    between atoms: C2_2  and  C3_3 
REMARK    4  A    between atoms: C4_5  and  C5_6 
ROOT
ATOM      1  C1  <0> d          -2.479   0.930   0.019  0.00  0.00    -0.047 C 
ATOM      2  H1  <0> d          -2.417   0.309  -0.875  0.00  0.00     0.034 H 
ATOM      3  H2  <0> d          -2.408   0.299   0.905  0.00  0.00     0.034 H 
ENDROOT
BRANCH   1   4
ATOM      4  C2  <0> d          -1.329   1.940   0.019  0.00  0.00     0.016 C 
ATOM      5  H3  <0> d          -1.391   2.561   0.913  0.00  0.00     0.049 H 
ATOM      6  H4  <0> d          -1.400   2.570  -0.867  0.00  0.00     0.049 H 
BRANCH   4   7
ATOM      7  C3  <0> d          -0.014   1.204   0.009  0.00  0.00     0.172 C 
ATOM      8  O1  <0> d           0.002  -0.004   0.002  0.00  0.00    -0.648 OA
ATOM      9  O3  <0> d           1.139   1.891   0.001  0.00  0.00    -0.648 OA
ENDBRANCH   4   7
ENDBRANCH   1   4
BRANCH   1  10
ATOM     10  C4  <0> d          -3.814   1.677   0.029  0.00  0.00     0.016 C 
ATOM     11  H5  <0> d          -3.876   2.298   0.923  0.00  0.00     0.049 H 
ATOM     12  H6  <0> d          -3.885   2.307  -0.857  0.00  0.00     0.049 H 
BRANCH  10  13
ATOM     13  C5  <0> d          -4.946   0.682   0.029  0.00  0.00     0.172 C 
ATOM     14  O2  <0> d          -4.709  -0.503   0.022  0.00  0.00    -0.648 OA
ATOM     15  O4  <0> d          -6.218   1.112   0.038  0.00  0.00    -0.648 OA
ENDBRANCH  10  13
ENDBRANCH   1  10
TORSDOF 4
