REMARK  2 active torsions:
REMARK  status: ('A' for Active; 'I' for Inactive)
REMARK    1  A    between atoms: C7_9  and  C8_11 
REMARK    2  A    between atoms: C8_11  and  O1_12 
ROOT
ATOM      1  C1  <0> d          -0.017   1.374   0.010  0.00  0.00    -0.081 A 
ATOM      2  C2  <0> d           1.170   2.094   0.002  0.00  0.00    -0.081 A 
ATOM      3  C3  <0> d           2.375   1.450  -0.013  0.00  0.00    -0.053 A 
ATOM      4  C4  <0> d           2.418   0.054  -0.021  0.00  0.00     0.085 A 
ATOM      5  C5  <0> d           1.217  -0.675  -0.013  0.00  0.00     0.062 A 
ATOM      6  C6  <0> d           0.002  -0.004   0.002  0.00  0.00    -0.055 A 
ATOM      7  N1  <0> d           1.580  -2.007  -0.024  0.00  0.00    -0.341 N 
ATOM      8  H1  <0> d           0.977  -2.767  -0.022  0.00  0.00     0.167 HD
ATOM      9  C7  <0> d           2.939  -2.056  -0.038  0.00  0.00     0.128 A 
ATOM     10  N2  <0> d           3.430  -0.852  -0.036  0.00  0.00    -0.231 NA
ATOM     11  H2  <0> d          -0.961   1.898   0.026  0.00  0.00     0.083 H 
ATOM     12  H3  <0> d           1.141   3.173   0.008  0.00  0.00     0.083 H 
ATOM     13  H4  <0> d           3.292   2.020  -0.020  0.00  0.00     0.087 H 
ATOM     14  H5  <0> d          -0.924  -0.559   0.008  0.00  0.00     0.087 H 
ENDROOT
BRANCH   9  15
ATOM     15  C8  <0> d           3.757  -3.322  -0.052  0.00  0.00     0.071 C 
ATOM     16  H6  <0> d           4.377  -3.344  -0.949  0.00  0.00     0.086 H 
ATOM     17  H7  <0> d           4.395  -3.353   0.831  0.00  0.00     0.086 H 
BRANCH  15  18
ATOM     18  O1  <0> d           2.884  -4.453  -0.049  0.00  0.00    -0.393 OA
ATOM     19  H8  <0> d           3.344  -5.304  -0.058  0.00  0.00     0.209 HD
ENDBRANCH  15  18
ENDBRANCH   9  15
TORSDOF 2
