REMARK  1 active torsions:
REMARK  status: ('A' for Active; 'I' for Inactive)
REMARK    1  A    between atoms: C5_5  and  O1_7 
ROOT
ATOM      1  C1  <0> d          -0.017   1.377   0.010  0.00  0.00    -0.080 A 
ATOM      2  C2  <0> d           1.170   2.087   0.002  0.00  0.00    -0.081 A 
ATOM      3  C3  <0> d           2.379   1.416  -0.013  0.00  0.00    -0.059 A 
ATOM      4  C4  <0> d           2.404   0.034  -0.021  0.00  0.00     0.067 A 
ATOM      5  C5  <0> d           1.213  -0.680  -0.013  0.00  0.00     0.087 A 
ATOM      6  C6  <0> d           0.002  -0.004   0.002  0.00  0.00    -0.049 A 
ATOM      7 Cl1  <0> d           3.922  -0.809  -0.041  0.00  0.00    -0.081 Cl
ATOM      8  H1  <0> d          -0.960   1.904   0.026  0.00  0.00     0.083 H 
ATOM      9  H2  <0> d           1.153   3.166   0.008  0.00  0.00     0.083 H 
ATOM     10  H3  <0> d           3.305   1.972  -0.020  0.00  0.00     0.086 H 
ATOM     11  H4  <0> d          -0.926  -0.557   0.008  0.00  0.00     0.087 H 
ENDROOT
BRANCH   5  12
ATOM     12  O1  <0> d           1.234  -2.039  -0.021  0.00  0.00    -0.359 OA
ATOM     13  H5  <0> d           1.249  -2.438   0.860  0.00  0.00     0.217 HD
ENDBRANCH   5  12
TORSDOF 1
