REMARK  0 active torsions:
REMARK  status: ('A' for Active; 'I' for Inactive)
ROOT
ATOM      1  C1  <0> d           1.194   2.055   0.002  0.00  0.00    -0.064 A 
ATOM      2  C2  <0> d          -0.017   1.384   0.010  0.00  0.00    -0.052 A 
ATOM      3  C3  <0> d           0.002  -0.004   0.002  0.00  0.00     0.081 A 
ATOM      4  C4  <0> d           1.236  -0.679  -0.013  0.00  0.00     0.177 A 
ATOM      5  N1  <0> d           2.372   0.015  -0.021  0.00  0.00    -0.239 NA
ATOM      6  C5  <0> d           2.375   1.330  -0.015  0.00  0.00     0.005 A 
ATOM      7  N2  <0> d           0.955  -2.006  -0.017  0.00  0.00    -0.222 NA
ATOM      8  C6  <0> d          -0.335  -2.183  -0.005  0.00  0.00     0.067 A 
ATOM      9  N3  <0> d          -0.971  -0.982   0.007  0.00  0.00    -0.348 N 
ATOM     10  H1  <0> d          -2.034  -0.701   0.019  0.00  0.00     0.167 HD
ATOM     11  H2  <0> d           1.219   3.135   0.007  0.00  0.00     0.085 H 
ATOM     12  H3  <0> d          -0.951   1.926   0.017  0.00  0.00     0.087 H 
ATOM     13  H4  <0> d           3.318   1.856  -0.022  0.00  0.00     0.114 H 
ATOM     14  H5  <0> d          -0.827  -3.144  -0.005  0.00  0.00     0.143 H 
ENDROOT
TORSDOF 0
