REMARK  3 active torsions:
REMARK  status: ('A' for Active; 'I' for Inactive)
REMARK    1  A    between atoms: C1_1  and  C2_2 
REMARK    2  A    between atoms: C3_3  and  C5_8 
REMARK    3  A    between atoms: N3_6  and  C4_7 
ROOT
ATOM      1  C2  <0> d           0.002  -0.004   0.002  0.00  0.00     0.065 A 
ATOM      2  C3  <0> d          -0.017   1.363   0.009  0.00  0.00     0.180 A 
ATOM      3  N1  <0> d           1.253   1.805  -0.000  0.00  0.00    -0.123 NA
ATOM      4  N2  <0> d           2.058   0.800  -0.013  0.00  0.00    -0.066 NA
ATOM      5  N3  <0> d           1.297  -0.377  -0.012  0.00  0.00    -0.258 N 
ENDROOT
BRANCH   1   6
ATOM      6  C1  <0> d          -1.196  -0.919   0.009  0.00  0.00    -0.033 C 
ATOM      7  H1  <0> d          -1.495  -1.134  -1.017  0.00  0.00     0.035 H 
ATOM      8  H2  <0> d          -0.939  -1.849   0.516  0.00  0.00     0.035 H 
ATOM      9  H3  <0> d          -2.019  -0.434   0.534  0.00  0.00     0.035 H 
ENDBRANCH   1   6
BRANCH   5  10
ATOM     10  C4  <0> d           1.811  -1.749  -0.024  0.00  0.00     0.004 C 
ATOM     11  H4  <0> d           1.928  -2.084  -1.054  0.00  0.00     0.059 H 
ATOM     12  H5  <0> d           2.777  -1.779   0.480  0.00  0.00     0.059 H 
ATOM     13  H6  <0> d           1.110  -2.404   0.494  0.00  0.00     0.059 H 
ENDBRANCH   5  10
BRANCH   2  14
ATOM     14  C5  <0> d          -1.224   2.208   0.020  0.00  0.00     0.232 C 
ATOM     15  O1  <0> d          -2.325   1.694   0.023  0.00  0.00    -0.643 OA
ATOM     16  O2  <0> d          -1.106   3.550   0.027  0.00  0.00    -0.643 OA
ENDBRANCH   2  14
TORSDOF 3
