REMARK  2 active torsions:
REMARK  status: ('A' for Active; 'I' for Inactive)
REMARK    1  A    between atoms: C1_1  and  C2_2 
REMARK    2  A    between atoms: C2_2  and  C3_4 
ROOT
ATOM      1  C3  <0> d          -1.295   1.925   0.019  0.00  0.00     0.027 A 
ATOM      2  C4  <0> d          -1.472   3.329   0.033  0.00  0.00    -0.042 A 
ATOM      3  C5  <0> d          -2.832   3.560   0.035  0.00  0.00     0.039 A 
ATOM      4  C6  <0> d          -3.587   4.755   0.045  0.00  0.00    -0.057 A 
ATOM      5  C7  <0> d          -4.942   4.686   0.051  0.00  0.00    -0.080 A 
ATOM      6  C8  <0> d          -5.577   3.429   0.047  0.00  0.00    -0.068 A 
ATOM      7  C9  <0> d          -4.852   2.296   0.037  0.00  0.00    -0.015 A 
ATOM      8  N1  <0> d          -3.478   2.340   0.031  0.00  0.00    -0.332 N 
ATOM      9  C10 <0> d          -2.556   1.354   0.021  0.00  0.00    -0.002 A 
ATOM     10  H4  <0> d          -0.693   4.076   0.039  0.00  0.00     0.088 H 
ATOM     11  H5  <0> d          -3.090   5.714   0.049  0.00  0.00     0.086 H 
ATOM     12  H6  <0> d          -5.532   5.591   0.059  0.00  0.00     0.083 H 
ATOM     13  H7  <0> d          -6.656   3.374   0.051  0.00  0.00     0.085 H 
ATOM     14  H8  <0> d          -5.355   1.340   0.035  0.00  0.00     0.112 H 
ATOM     15  H9  <0> d          -2.768   0.295   0.017  0.00  0.00     0.113 H 
ENDROOT
BRANCH   1  16
ATOM     16  C2  <0> d          -0.014   1.209   0.009  0.00  0.00     0.157 C 
ATOM     17  O1  <0> d           0.002  -0.004   0.002  0.00  0.00    -0.293 OA
BRANCH  16  18
ATOM     18  C1  <0> d           1.280   1.980   0.001  0.00  0.00    -0.017 C 
ATOM     19  H1  <0> d           2.049   1.341  -0.010  0.00  0.00     0.038 H 
ATOM     20  H2  <0> d           1.321   2.612  -0.887  0.00  0.00     0.038 H 
ATOM     21  H3  <0> d           1.338   2.603   0.893  0.00  0.00     0.038 H 
ENDBRANCH  16  18
ENDBRANCH   1  16
TORSDOF 2
