REMARK  3 active torsions:
REMARK  status: ('A' for Active; 'I' for Inactive)
REMARK    1  A    between atoms: C1_1  and  C2_2 
REMARK    2  A    between atoms: C3_4  and  C5_7 
REMARK    3  A    between atoms: C5_7  and  O1_8 
ROOT
ATOM      1  C2  <0> d           2.104   5.147   0.009  0.00  0.00     0.071 A 
ATOM      2  N1  <0> d           2.211   3.838   0.007  0.00  0.00    -0.248 NA
ATOM      3  C3  <0> d           1.147   3.062   0.008  0.00  0.00     0.065 A 
ATOM      4  C4  <0> d          -0.078   3.647   0.022  0.00  0.00    -0.017 A 
ATOM      5  S1  <0> d           0.382   5.373   0.027  0.00  0.00    -0.085 SA
ATOM      6  H4  <0> d          -1.058   3.194   0.029  0.00  0.00     0.098 H 
ENDROOT
BRANCH   3   7
ATOM      7  C5  <0> d           1.286   1.562  -0.002  0.00  0.00     0.057 C 
ATOM      8  H5  <0> d           1.840   1.243   0.881  0.00  0.00     0.083 H 
ATOM      9  H6  <0> d           1.823   1.252  -0.899  0.00  0.00     0.083 H 
BRANCH   7  10
ATOM     10  O1  <0> d          -0.011   0.963   0.007  0.00  0.00    -0.395 OA
ATOM     11  H7  <0> d           0.002  -0.004   0.002  0.00  0.00     0.209 HD
ENDBRANCH   7  10
ENDBRANCH   3   7
BRANCH   1  12
ATOM     12  C1  <0> d           3.195   6.186   0.005  0.00  0.00    -0.029 C 
ATOM     13  H1  <0> d           2.750   7.181   0.014  0.00  0.00     0.036 H 
ATOM     14  H2  <0> d           3.821   6.060   0.888  0.00  0.00     0.036 H 
ATOM     15  H3  <0> d           3.804   6.069  -0.892  0.00  0.00     0.036 H 
ENDBRANCH   1  12
TORSDOF 3
