REMARK  4 active torsions:
REMARK  status: ('A' for Active; 'I' for Inactive)
REMARK    1  A    between atoms: C1_1  and  C2_2 
REMARK    2  A    between atoms: C2_2  and  C3_4 
REMARK    3  A    between atoms: C2_2  and  C4_6 
REMARK    4  A    between atoms: C3_4  and  O1_5 
ROOT
ATOM      1  C4  <0> d           0.067   1.185   2.485  0.00  0.00    -0.052 A 
ATOM      2  C5  <0> d           0.312  -0.150   2.747  0.00  0.00    -0.076 A 
ATOM      3  C6  <0> d           1.045  -0.512   3.862  0.00  0.00    -0.082 A 
ATOM      4  C7  <0> d           1.525   0.461   4.719  0.00  0.00    -0.083 A 
ATOM      5  C8  <0> d           1.275   1.795   4.459  0.00  0.00    -0.082 A 
ATOM      6  C9  <0> d           0.546   2.157   3.342  0.00  0.00    -0.076 A 
ATOM      7  H8  <0> d          -0.067  -0.910   2.080  0.00  0.00     0.084 H 
ATOM      8  H9  <0> d           1.240  -1.555   4.064  0.00  0.00     0.083 H 
ATOM      9  H10 <0> d           2.096   0.178   5.591  0.00  0.00     0.083 H 
ATOM     10  H11 <0> d           1.651   2.555   5.128  0.00  0.00     0.083 H 
ATOM     11  H12 <0> d           0.351   3.200   3.139  0.00  0.00     0.084 H 
ENDROOT
BRANCH   1  12
ATOM     12  C2  <0> d          -0.729   1.579   1.267  0.00  0.00    -0.012 C 
ATOM     13  H1  <0> d          -0.822   2.665   1.230  0.00  0.00     0.050 H 
BRANCH  12  14
ATOM     14  C1  <0> d          -2.121   0.950   1.341  0.00  0.00    -0.067 C 
ATOM     15  H2  <0> d          -2.632   1.301   2.238  0.00  0.00     0.028 H 
ATOM     16  H3  <0> d          -2.697   1.235   0.460  0.00  0.00     0.028 H 
ATOM     17  H4  <0> d          -2.028  -0.136   1.378  0.00  0.00     0.028 H 
ENDBRANCH  12  14
BRANCH  12  18
ATOM     18  C3  <0> d          -0.013   1.086   0.008  0.00  0.00     0.024 C 
ATOM     19  H5  <0> d           0.002  -0.004   0.002  0.00  0.00     0.075 H 
ATOM     20  H6  <0> d           1.010   1.463   0.000  0.00  0.00     0.075 H 
BRANCH  18  21
ATOM     21  O1  <0> d          -0.704   1.559  -1.150  0.00  0.00    -0.400 OA
ATOM     22  H7  <0> d          -0.304   1.284  -1.986  0.00  0.00     0.209 HD
ENDBRANCH  18  21
ENDBRANCH  12  18
ENDBRANCH   1  12
TORSDOF 4
