REMARK  4 active torsions:
REMARK  status: ('A' for Active; 'I' for Inactive)
REMARK    1  A    between atoms: C1_1  and  O1_2 
REMARK    2  A    between atoms: O1_2  and  C2_3 
REMARK    3  A    between atoms: C2_3  and  C3_5 
REMARK    4  A    between atoms: C4_6  and  N2_10 
ROOT
ATOM      1  C3  <0> d           2.317   0.053  -0.020  0.00  0.00     0.126 A 
ATOM      2  C4  <0> d           1.127  -0.681  -0.012  0.00  0.00     0.144 A 
ATOM      3  N1  <0> d           0.002  -0.004   0.002  0.00  0.00    -0.235 NA
ATOM      4  C5  <0> d          -0.016   1.311   0.009  0.00  0.00     0.043 A 
ATOM      5  S1  <0> d           1.672   1.719  -0.005  0.00  0.00    -0.073 SA
ATOM      6  H4  <0> d          -0.869   1.974   0.017  0.00  0.00     0.126 H 
ENDROOT
BRANCH   1   7
ATOM      7  C2  <0> d           3.657  -0.397  -0.035  0.00  0.00     0.303 C 
ATOM      8  O2  <0> d           3.898  -1.591  -0.043  0.00  0.00    -0.259 OA
BRANCH   7   9
ATOM      9  O1  <0> d           4.669   0.496  -0.040  0.00  0.00    -0.322 OA
BRANCH   9  10
ATOM     10  C1  <0> d           5.998  -0.030  -0.055  0.00  0.00     0.013 C 
ATOM     11  H1  <0> d           6.155  -0.646   0.831  0.00  0.00     0.067 H 
ATOM     12  H2  <0> d           6.138  -0.637  -0.949  0.00  0.00     0.067 H 
ATOM     13  H3  <0> d           6.713   0.792  -0.057  0.00  0.00     0.067 H 
ENDBRANCH   9  10
ENDBRANCH   7   9
ENDBRANCH   1   7
BRANCH   2  14
ATOM     14  N2  <0> d           1.135  -2.069  -0.019  0.00  0.00    -0.383 N 
ATOM     15  H5  <0> d           0.297  -2.558  -0.014  0.00  0.00     0.157 HD
ATOM     16  H6  <0> d           1.978  -2.549  -0.030  0.00  0.00     0.157 HD
ENDBRANCH   2  14
TORSDOF 4
