REMARK  4 active torsions:
REMARK  status: ('A' for Active; 'I' for Inactive)
REMARK    1  A    between atoms: C1_1  and  C2_2 
REMARK    2  A    between atoms: C2_2  and  N1_3 
REMARK    3  A    between atoms: C4_5  and  C8_12 
REMARK    4  A    between atoms: C5_8  and  C7_11 
ROOT
ATOM      1  N1  <0> d           0.690  -0.478  -1.207  0.00  0.00     0.093 N 
ATOM      2  C3  <0> d           2.114  -0.116  -1.179  0.00  0.00     0.137 C 
ATOM      3  C4  <0> d           2.778  -0.574  -2.480  0.00  0.00     0.061 C 
ATOM      4  H1  <0> d           2.331  -0.046  -3.322  0.00  0.00     0.085 H 
ATOM      5  O1  <0> d           2.580  -1.982  -2.639  0.00  0.00    -0.378 OA
ATOM      6  C5  <0> d           1.204  -2.370  -2.671  0.00  0.00     0.061 C 
ATOM      7  H2  <0> d           0.711  -1.894  -3.519  0.00  0.00     0.085 H 
ATOM      8  C6  <0> d           0.524  -1.929  -1.372  0.00  0.00     0.137 C 
ATOM      9  H8  <0> d           2.213   0.966  -1.081  0.00  0.00     0.083 H 
ATOM     10  H9  <0> d           2.597  -0.603  -0.332  0.00  0.00     0.083 H 
ATOM     11  H10 <0> d           0.982  -2.446  -0.528  0.00  0.00     0.083 H 
ATOM     12  H11 <0> d          -0.537  -2.172  -1.416  0.00  0.00     0.083 H 
ENDROOT
BRANCH   1  13
ATOM     13  C2  <0> d           0.002  -0.004   0.002  0.00  0.00     0.110 C 
ATOM     14  H6  <0> d           0.529  -0.365   0.885  0.00  0.00     0.079 H 
ATOM     15  H7  <0> d          -1.020  -0.381   0.010  0.00  0.00     0.079 H 
BRANCH  13  16
ATOM     16  C1  <0> d          -0.019   1.526   0.010  0.00  0.00    -0.051 C 
ATOM     17  H3  <0> d           1.004   1.903   0.003  0.00  0.00     0.029 H 
ATOM     18  H4  <0> d          -0.546   1.887  -0.873  0.00  0.00     0.029 H 
ATOM     19  H5  <0> d          -0.529   1.877   0.907  0.00  0.00     0.029 H 
ENDBRANCH  13  16
ENDBRANCH   1  13
BRANCH   6  20
ATOM     20  C7  <0> d           1.105  -3.890  -2.810  0.00  0.00    -0.051 C 
ATOM     21  H12 <0> d           1.597  -4.366  -1.961  0.00  0.00     0.030 H 
ATOM     22  H13 <0> d           0.056  -4.186  -2.835  0.00  0.00     0.030 H 
ATOM     23  H14 <0> d           1.592  -4.203  -3.734  0.00  0.00     0.030 H 
ENDBRANCH   6  20
BRANCH   3  24
ATOM     24  C8  <0> d           4.276  -0.271  -2.424  0.00  0.00    -0.051 C 
ATOM     25  H15 <0> d           4.723  -0.800  -1.582  0.00  0.00     0.030 H 
ATOM     26  H16 <0> d           4.748  -0.598  -3.350  0.00  0.00     0.030 H 
ATOM     27  H17 <0> d           4.425   0.801  -2.299  0.00  0.00     0.030 H 
ENDBRANCH   3  24
TORSDOF 4
