REMARK  5 active torsions:
REMARK  status: ('A' for Active; 'I' for Inactive)
REMARK    1  A    between atoms: C1_1  and  C2_2 
REMARK    2  A    between atoms: C2_2  and  C3_3 
REMARK    3  A    between atoms: C3_3  and  C4_4 
REMARK    4  A    between atoms: C4_4  and  N1_5 
REMARK    5  A    between atoms: C5_6  and  C9_12 
ROOT
ATOM      1  N1  <0> d           1.425  -2.500  -2.470  0.00  0.00    -0.348 N 
ATOM      2  C5  <0> d           0.758  -2.772  -3.749  0.00  0.00     0.011 C 
ATOM      3  H1  <0> d           0.052  -1.976  -3.984  0.00  0.00     0.072 H 
ATOM      4  C6  <0> d           1.888  -2.812  -4.803  0.00  0.00    -0.038 C 
ATOM      5  C7  <0> d           3.109  -3.204  -3.940  0.00  0.00     0.011 C 
ATOM      6  C8  <0> d           2.746  -2.734  -2.549  0.00  0.00     0.220 C 
ATOM      7  O1  <0> d           3.532  -2.591  -1.636  0.00  0.00    -0.273 OA
ATOM      8  H11 <0> d           1.687  -3.568  -5.561  0.00  0.00     0.036 H 
ATOM      9  H12 <0> d           2.030  -1.832  -5.258  0.00  0.00     0.036 H 
ATOM     10  H13 <0> d           3.256  -4.284  -3.955  0.00  0.00     0.047 H 
ATOM     11  H14 <0> d           4.005  -2.692  -4.291  0.00  0.00     0.047 H 
ENDROOT
BRANCH   1  12
ATOM     12  C4  <0> d           0.739  -2.027  -1.265  0.00  0.00    -0.002 C 
ATOM     13  H9  <0> d           1.266  -2.388  -0.382  0.00  0.00     0.064 H 
ATOM     14  H10 <0> d          -0.284  -2.405  -1.258  0.00  0.00     0.064 H 
BRANCH  12  15
ATOM     15  C3  <0> d           0.718  -0.497  -1.257  0.00  0.00    -0.050 C 
ATOM     16  H7  <0> d           0.191  -0.136  -2.140  0.00  0.00     0.035 H 
ATOM     17  H8  <0> d           1.741  -0.120  -1.264  0.00  0.00     0.035 H 
BRANCH  15  18
ATOM     18  C2  <0> d           0.002  -0.004   0.002  0.00  0.00    -0.067 C 
ATOM     19  H5  <0> d           0.529  -0.365   0.885  0.00  0.00     0.032 H 
ATOM     20  H6  <0> d          -1.020  -0.381   0.010  0.00  0.00     0.032 H 
BRANCH  18  21
ATOM     21  C1  <0> d          -0.019   1.526   0.010  0.00  0.00    -0.076 C 
ATOM     22  H2  <0> d           1.004   1.903   0.003  0.00  0.00     0.027 H 
ATOM     23  H3  <0> d          -0.546   1.887  -0.873  0.00  0.00     0.027 H 
ATOM     24  H4  <0> d          -0.529   1.877   0.907  0.00  0.00     0.027 H 
ENDBRANCH  18  21
ENDBRANCH  15  18
ENDBRANCH  12  15
ENDBRANCH   1  12
BRANCH   2  25
ATOM     25  C9  <0> d           0.036  -4.120  -3.693  0.00  0.00    -0.057 C 
ATOM     26  H15 <0> d          -0.710  -4.100  -2.900  0.00  0.00     0.030 H 
ATOM     27  H16 <0> d          -0.454  -4.310  -4.649  0.00  0.00     0.030 H 
ATOM     28  H17 <0> d           0.759  -4.911  -3.493  0.00  0.00     0.030 H 
ENDBRANCH   2  25
TORSDOF 5
