REMARK  3 active torsions:
REMARK  status: ('A' for Active; 'I' for Inactive)
REMARK    1  A    between atoms: C4_5  and  C5_7 
REMARK    2  A    between atoms: C5_7  and  C6_8 
REMARK    3  A    between atoms: C6_8  and  C7_9 
ROOT
ATOM      1  C1  <0> d           1.433   3.608   0.026  0.00  0.00    -0.040 C 
ATOM      2  C2  <0> d           2.793   3.876   0.718  0.00  0.00     0.020 C 
ATOM      3  O1  <0> d           2.927   2.834   1.698  0.00  0.00    -0.391 OA
ATOM      4  C3  <0> d           2.144   1.698   1.313  0.00  0.00     0.023 C 
ATOM      5  C4  <0> d           1.417   2.055  -0.000  0.00  0.00    -0.031 C 
ATOM      6  H1  <0> d           1.963   1.673  -0.863  0.00  0.00     0.043 H 
ATOM      7  H2  <0> d           1.419   4.018  -0.984  0.00  0.00     0.036 H 
ATOM      8  H3  <0> d           0.607   4.000   0.619  0.00  0.00     0.036 H 
ATOM      9  H4  <0> d           2.785   4.852   1.203  0.00  0.00     0.074 H 
ATOM     10  H5  <0> d           3.606   3.821  -0.006  0.00  0.00     0.074 H 
ATOM     11  H6  <0> d           1.414   1.472   2.091  0.00  0.00     0.074 H 
ATOM     12  H7  <0> d           2.795   0.838   1.154  0.00  0.00     0.074 H 
ENDROOT
BRANCH   5  13
ATOM     13  C5  <0> d          -0.019   1.526   0.010  0.00  0.00    -0.051 C 
ATOM     14  H8  <0> d          -0.546   1.887  -0.873  0.00  0.00     0.034 H 
ATOM     15  H9  <0> d          -0.529   1.877   0.907  0.00  0.00     0.034 H 
BRANCH  13  16
ATOM     16  C6  <0> d           0.002  -0.004   0.002  0.00  0.00     0.016 C 
ATOM     17  H10 <0> d           0.512  -0.356  -0.895  0.00  0.00     0.049 H 
ATOM     18  H11 <0> d           0.529  -0.365   0.885  0.00  0.00     0.049 H 
BRANCH  16  19
ATOM     19  C7  <0> d          -1.412  -0.526   0.013  0.00  0.00     0.172 C 
ATOM     20  O2  <0> d          -2.341   0.247   0.026  0.00  0.00    -0.648 OA
ATOM     21  O3  <0> d          -1.639  -1.849   0.008  0.00  0.00    -0.648 OA
ENDBRANCH  16  19
ENDBRANCH  13  16
ENDBRANCH   5  13
TORSDOF 3
