REMARK  2 active torsions:
REMARK  status: ('A' for Active; 'I' for Inactive)
REMARK    1  A    between atoms: C1_1  and  C2_2 
REMARK    2  A    between atoms: C5_5  and  N1_8 
ROOT
ATOM      1  C2  <0> d           2.396   0.031  -0.021  0.00  0.00    -0.062 A 
ATOM      2  C3  <0> d           1.208  -0.677  -0.013  0.00  0.00    -0.075 A 
ATOM      3  C4  <0> d           0.002  -0.004   0.002  0.00  0.00    -0.056 A 
ATOM      4  C5  <0> d          -0.017   1.384   0.010  0.00  0.00     0.038 A 
ATOM      5  C6  <0> d           1.178   2.092   0.002  0.00  0.00    -0.056 A 
ATOM      6  C7  <0> d           2.381   1.413  -0.013  0.00  0.00    -0.075 A 
ATOM      7  H4  <0> d           1.224  -1.757  -0.019  0.00  0.00     0.084 H 
ATOM      8  H5  <0> d          -0.925  -0.557   0.007  0.00  0.00     0.086 H 
ATOM      9  H6  <0> d           1.166   3.172   0.008  0.00  0.00     0.086 H 
ATOM     10  H7  <0> d           3.310   1.963  -0.020  0.00  0.00     0.084 H 
ENDROOT
BRANCH   4  11
ATOM     11  N1  <0> d          -1.240   2.070   0.019  0.00  0.00    -0.333 N 
ATOM     12  C11 <0> d          -1.391   3.427   0.027  0.00  0.00    -0.015 A 
ATOM     13  C10 <0> d          -2.711   3.703   0.035  0.00  0.00    -0.066 A 
ATOM     14  H11 <0> d          -0.592   4.154   0.027  0.00  0.00     0.112 H 
ATOM     15  C9  <0> d          -3.401   2.474   0.032  0.00  0.00    -0.066 A 
ATOM     16  H10 <0> d          -3.158   4.686   0.042  0.00  0.00     0.085 H 
ATOM     17  C8  <0> d          -2.477   1.492   0.016  0.00  0.00    -0.015 A 
ATOM     18  H9  <0> d          -4.473   2.343   0.036  0.00  0.00     0.085 H 
ATOM     19  H8  <0> d          -2.680   0.431   0.006  0.00  0.00     0.112 H 
ENDBRANCH   4  11
BRANCH   1  20
ATOM     20  C1  <0> d           3.711  -0.707  -0.037  0.00  0.00    -0.051 C 
ATOM     21  H1  <0> d           4.018  -0.879  -1.069  0.00  0.00     0.033 H 
ATOM     22  H2  <0> d           4.468  -0.111   0.473  0.00  0.00     0.033 H 
ATOM     23  H3  <0> d           3.597  -1.663   0.473  0.00  0.00     0.033 H 
ENDBRANCH   1  20
TORSDOF 2
