REMARK  2 active torsions:
REMARK  status: ('A' for Active; 'I' for Inactive)
REMARK    1  A    between atoms: C1_1  and  C2_2 
REMARK    2  A    between atoms: C8_8  and  O1_9 
ROOT
ATOM      1  C2  <0> d           0.002  -0.004   0.002  0.00  0.00    -0.061 A 
ATOM      2  C3  <0> d           0.006  -0.686  -1.209  0.00  0.00    -0.075 A 
ATOM      3  C4  <0> d           0.024  -2.051  -1.243  0.00  0.00    -0.054 A 
ATOM      4  C5  <0> d           0.040  -2.774  -0.052  0.00  0.00     0.064 A 
ATOM      5  C6  <0> d           0.036  -2.085   1.175  0.00  0.00     0.047 A 
ATOM      6  C7  <0> d           0.023  -0.686   1.184  0.00  0.00    -0.061 A 
ATOM      7  C8  <0> d           0.054  -3.108   2.220  0.00  0.00     0.194 A 
ATOM      8  N1  <0> d           0.067  -4.274   1.634  0.00  0.00    -0.148 NA
ATOM      9  N2  <0> d           0.059  -4.112   0.245  0.00  0.00    -0.275 N 
ATOM     10  H2  <0> d           0.065  -4.832  -0.405  0.00  0.00     0.189 HD
ATOM     11  H6  <0> d          -0.007  -0.129  -2.134  0.00  0.00     0.084 H 
ATOM     12  H7  <0> d           0.026  -2.569  -2.191  0.00  0.00     0.087 H 
ATOM     13  H8  <0> d           0.025  -0.149   2.121  0.00  0.00     0.086 H 
ENDROOT
BRANCH   1  14
ATOM     14  C1  <0> d          -0.018   1.503   0.010  0.00  0.00    -0.051 C 
ATOM     15  H3  <0> d           1.004   1.880   0.003  0.00  0.00     0.033 H 
ATOM     16  H4  <0> d          -0.545   1.864  -0.873  0.00  0.00     0.033 H 
ATOM     17  H5  <0> d          -0.529   1.854   0.907  0.00  0.00     0.033 H 
ENDBRANCH   1  14
BRANCH   7  18
ATOM     18  O1  <0> d           0.058  -2.884   3.561  0.00  0.00    -0.343 OA
ATOM     19  H1  <0> d          -0.825  -2.832   3.953  0.00  0.00     0.219 HD
ENDBRANCH   7  18
TORSDOF 2
