REMARK  5 active torsions:
REMARK  status: ('A' for Active; 'I' for Inactive)
REMARK    1  A    between atoms: C1_1  and  C2_2 
REMARK    2  A    between atoms: C5_5  and  C8_8 
REMARK    3  A    between atoms: C8_8  and  C9_9 
REMARK    4  A    between atoms: C9_9  and  C10_10 
REMARK    5  A    between atoms: C10_10  and  O1_11 
ROOT
ATOM      1  C2  <0> d           1.171   2.086   0.002  0.00  0.00    -0.062 A 
ATOM      2  C3  <0> d          -0.017   1.378   0.010  0.00  0.00    -0.077 A 
ATOM      3  C4  <0> d           0.002  -0.004   0.002  0.00  0.00    -0.076 A 
ATOM      4  C5  <0> d           1.208  -0.679  -0.013  0.00  0.00    -0.058 A 
ATOM      5  C6  <0> d           2.396   0.029  -0.021  0.00  0.00    -0.076 A 
ATOM      6  C7  <0> d           2.377   1.411  -0.015  0.00  0.00    -0.077 A 
ATOM      7  H4  <0> d          -0.959   1.905   0.017  0.00  0.00     0.084 H 
ATOM      8  H5  <0> d          -0.926  -0.557   0.008  0.00  0.00     0.084 H 
ATOM      9  H6  <0> d           3.339  -0.499  -0.032  0.00  0.00     0.084 H 
ATOM     10  H7  <0> d           3.305   1.963  -0.021  0.00  0.00     0.084 H 
ENDROOT
BRANCH   4  11
ATOM     11  C8  <0> d           1.229  -2.186  -0.021  0.00  0.00    -0.039 C 
ATOM     12  H8  <0> d           2.129  -2.539   0.483  0.00  0.00     0.040 H 
ATOM     13  H9  <0> d           0.349  -2.563   0.500  0.00  0.00     0.040 H 
BRANCH  11  14
ATOM     14  C9  <0> d           1.221  -2.689  -1.465  0.00  0.00    -0.042 C 
ATOM     15  H10 <0> d           0.322  -2.335  -1.969  0.00  0.00     0.036 H 
ATOM     16  H11 <0> d           2.101  -2.311  -1.986  0.00  0.00     0.036 H 
BRANCH  14  17
ATOM     17  C10 <0> d           1.242  -4.219  -1.473  0.00  0.00     0.017 C 
ATOM     18  H12 <0> d           2.142  -4.572  -0.970  0.00  0.00     0.073 H 
ATOM     19  H13 <0> d           0.362  -4.597  -0.952  0.00  0.00     0.073 H 
BRANCH  17  20
ATOM     20  O1  <0> d           1.235  -4.689  -2.822  0.00  0.00    -0.401 OA
ATOM     21  H14 <0> d           1.248  -5.652  -2.903  0.00  0.00     0.209 HD
ENDBRANCH  17  20
ENDBRANCH  14  17
ENDBRANCH  11  14
ENDBRANCH   4  11
BRANCH   1  22
ATOM     22  C1  <0> d           1.151   3.592   0.010  0.00  0.00    -0.051 C 
ATOM     23  H1  <0> d           1.155   3.950   1.039  0.00  0.00     0.033 H 
ATOM     24  H2  <0> d           2.031   3.970  -0.510  0.00  0.00     0.033 H 
ATOM     25  H3  <0> d           0.251   3.946  -0.494  0.00  0.00     0.033 H 
ENDBRANCH   1  22
TORSDOF 5
