REMARK  8 active torsions:
REMARK  status: ('A' for Active; 'I' for Inactive)
REMARK    1  A    between atoms: C1_1  and  C2_2 
REMARK    2  A    between atoms: C2_2  and  C3_3 
REMARK    3  A    between atoms: C3_3  and  C4_4 
REMARK    4  A    between atoms: C4_4  and  C5_5 
REMARK       I    between atoms: C5_5  and  N1_7 
REMARK    5  A    between atoms: N1_7  and  C6_8 
REMARK    6  A    between atoms: N1_7  and  C8_10 
REMARK    7  A    between atoms: C6_8  and  C7_9 
REMARK    8  A    between atoms: C8_10  and  C9_11 
ROOT
ATOM      1  C5  <0> d          -0.014   1.209   0.009  0.00  0.00     0.219 C 
ATOM      2  O1  <0> d           0.002  -0.004   0.002  0.00  0.00    -0.273 OA
ATOM      3  N1  <0> d           1.143   1.898   0.001  0.00  0.00    -0.353 N 
ENDROOT
BRANCH   1   4
ATOM      4  C4  <0> d          -1.330   1.944   0.019  0.00  0.00     0.009 C 
ATOM      5  H8  <0> d          -1.392   2.565   0.913  0.00  0.00     0.047 H 
ATOM      6  H9  <0> d          -1.400   2.575  -0.867  0.00  0.00     0.047 H 
BRANCH   4   7
ATOM      7  C3  <0> d          -2.479   0.934   0.019  0.00  0.00    -0.058 C 
ATOM      8  H6  <0> d          -2.417   0.313  -0.875  0.00  0.00     0.033 H 
ATOM      9  H7  <0> d          -2.408   0.304   0.905  0.00  0.00     0.033 H 
BRANCH   7  10
ATOM     10  C2  <0> d          -3.814   1.681   0.029  0.00  0.00    -0.068 C 
ATOM     11  H4  <0> d          -3.876   2.302   0.923  0.00  0.00     0.032 H 
ATOM     12  H5  <0> d          -3.885   2.312  -0.857  0.00  0.00     0.032 H 
BRANCH  10  13
ATOM     13  C1  <0> d          -4.963   0.671   0.029  0.00  0.00    -0.077 C 
ATOM     14  H1  <0> d          -4.901   0.050  -0.864  0.00  0.00     0.027 H 
ATOM     15  H2  <0> d          -4.893   0.041   0.915  0.00  0.00     0.027 H 
ATOM     16  H3  <0> d          -5.915   1.203   0.037  0.00  0.00     0.027 H 
ENDBRANCH  10  13
ENDBRANCH   7  10
ENDBRANCH   4   7
ENDBRANCH   1   4
BRANCH   3  17
ATOM     17  C6  <0> d           1.124   3.363   0.009  0.00  0.00    -0.006 C 
ATOM     18  H10 <0> d           2.004   3.741  -0.511  0.00  0.00     0.063 H 
ATOM     19  H11 <0> d           0.224   3.717  -0.494  0.00  0.00     0.063 H 
BRANCH  17  20
ATOM     20  C7  <0> d           1.131   3.865   1.455  0.00  0.00    -0.061 C 
ATOM     21  H12 <0> d           2.030   3.511   1.958  0.00  0.00     0.029 H 
ATOM     22  H13 <0> d           1.116   4.955   1.461  0.00  0.00     0.029 H 
ATOM     23  H14 <0> d           0.251   3.487   1.975  0.00  0.00     0.029 H 
ENDBRANCH  17  20
ENDBRANCH   3  17
BRANCH   3  24
ATOM     24  C8  <0> d           2.422   1.183  -0.015  0.00  0.00    -0.006 C 
ATOM     25  H15 <0> d           3.179   1.780   0.495  0.00  0.00     0.063 H 
ATOM     26  H16 <0> d           2.309   0.226   0.495  0.00  0.00     0.063 H 
BRANCH  24  27
ATOM     27  C9  <0> d           2.853   0.942  -1.463  0.00  0.00    -0.061 C 
ATOM     28  H17 <0> d           2.966   1.899  -1.972  0.00  0.00     0.029 H 
ATOM     29  H18 <0> d           3.804   0.410  -1.475  0.00  0.00     0.029 H 
ATOM     30  H19 <0> d           2.097   0.345  -1.973  0.00  0.00     0.029 H 
ENDBRANCH  24  27
ENDBRANCH   3  24
TORSDOF 8
