REMARK  0 active torsions:
REMARK  status: ('A' for Active; 'I' for Inactive)
ROOT
ATOM      1  C1  <0> d          -0.016   1.350   0.009  0.00  0.00    -0.010 A 
ATOM      2  C2  <0> d           1.206   2.069   0.002  0.00  0.00     0.120 A 
ATOM      3  C3  <0> d           2.471   1.309  -0.015  0.00  0.00     0.120 A 
ATOM      4  C4  <0> d           2.411  -0.108  -0.021  0.00  0.00    -0.010 A 
ATOM      5  C5  <0> d           1.207  -0.728  -0.012  0.00  0.00     0.157 A 
ATOM      6  C6  <0> d           0.002  -0.004   0.002  0.00  0.00     0.157 A 
ATOM      7  F1  <0> d          -1.169  -0.677   0.010  0.00  0.00    -0.203 F 
ATOM      8  F2  <0> d           1.163  -2.078  -0.019  0.00  0.00    -0.203 F 
ATOM      9  N1  <0> d           3.464   2.169  -0.020  0.00  0.00    -0.103 NA
ATOM     10  O1  <0> d           2.911   3.474  -0.008  0.00  0.00    -0.106 OA
ATOM     11  N2  <0> d           1.499   3.349   0.005  0.00  0.00    -0.103 NA
ATOM     12  H1  <0> d          -0.957   1.880   0.026  0.00  0.00     0.092 H 
ATOM     13  H2  <0> d           3.321  -0.690  -0.033  0.00  0.00     0.092 H 
ENDROOT
TORSDOF 0
