REMARK  3 active torsions:
REMARK  status: ('A' for Active; 'I' for Inactive)
REMARK    1  A    between atoms: C2_2  and  C3_3 
REMARK    2  A    between atoms: C3_3  and  C4_4 
REMARK    3  A    between atoms: C4_4  and  C5_5 
ROOT
ATOM      1  C3  <0> d          -1.293  -0.775   0.010  0.00  0.00     0.329 C 
ATOM      2  F3  <0> d          -1.345  -1.587   1.149  0.00  0.00    -0.195 F 
ATOM      3  F4  <0> d          -2.368   0.119   0.025  0.00  0.00    -0.195 F 
ENDROOT
BRANCH   1   4
ATOM      4  C2  <0> d           0.002  -0.004   0.002  0.00  0.00    -0.037 C 
ATOM      5  C1  <0> d          -0.016   1.306   0.009  0.00  0.00    -0.119 C 
ATOM      6  H1  <0> d           0.912   1.859   0.003  0.00  0.00     0.066 H 
ATOM      7  H2  <0> d          -0.958   1.833   0.017  0.00  0.00     0.066 H 
ATOM      8  H3  <0> d           0.945  -0.531  -0.010  0.00  0.00     0.085 H 
ENDBRANCH   1   4
BRANCH   1   9
ATOM      9  C4  <0> d          -1.374  -1.649  -1.243  0.00  0.00     0.329 C 
ATOM     10  F1  <0> d          -1.321  -0.838  -2.381  0.00  0.00    -0.195 F 
ATOM     11  F2  <0> d          -0.298  -2.544  -1.258  0.00  0.00    -0.195 F 
BRANCH   9  12
ATOM     12  C5  <0> d          -2.668  -2.420  -1.235  0.00  0.00    -0.037 C 
ATOM     13  C6  <0> d          -3.531  -2.263  -2.208  0.00  0.00    -0.119 C 
ATOM     14  H5  <0> d          -3.314  -1.581  -3.017  0.00  0.00     0.066 H 
ATOM     15  H6  <0> d          -4.459  -2.816  -2.202  0.00  0.00     0.066 H 
ATOM     16  H4  <0> d          -2.885  -3.103  -0.426  0.00  0.00     0.085 H 
ENDBRANCH   9  12
ENDBRANCH   1   9
TORSDOF 3
