REMARK  4 active torsions:
REMARK  status: ('A' for Active; 'I' for Inactive)
REMARK    1  A    between atoms: C1_1  and  C2_2 
REMARK    2  A    between atoms: C3_4  and  N5_10 
REMARK    3  A    between atoms: C4_5  and  N4_9 
REMARK    4  A    between atoms: C5_6  and  N3_8 
ROOT
ATOM      1  C2  <0> d          -2.399   3.626   0.033  0.00  0.00     0.127 A 
ATOM      2  N1  <0> d          -3.559   3.001   0.035  0.00  0.00    -0.214 NA
ATOM      3  C3  <0> d          -3.619   1.671   0.028  0.00  0.00     0.153 A 
ATOM      4  C4  <0> d          -2.430   0.941   0.019  0.00  0.00     0.118 A 
ATOM      5  C5  <0> d          -1.224   1.644   0.017  0.00  0.00     0.153 A 
ATOM      6  N2  <0> d          -1.254   2.975   0.030  0.00  0.00    -0.214 NA
ENDROOT
BRANCH   1   7
ATOM      7  C1  <0> d          -2.382   5.133   0.042  0.00  0.00    -0.019 C 
ATOM      8  H1  <0> d          -3.415   5.512   0.043  0.00  0.00     0.037 H 
ATOM      9  H2  <0> d          -1.859   5.499  -0.854  0.00  0.00     0.037 H 
ATOM     10  H3  <0> d          -1.860   5.489   0.942  0.00  0.00     0.037 H 
ENDBRANCH   1   7
BRANCH   5  11
ATOM     11  N3  <0> d          -0.011   0.966   0.007  0.00  0.00    -0.382 N 
ATOM     12  H4  <0> d           0.934   1.529   0.006  0.00  0.00     0.157 HD
ATOM     13  H5  <0> d           0.004  -0.134   0.001  0.00  0.00     0.157 HD
ENDBRANCH   5  11
BRANCH   3  14
ATOM     14  N5  <0> d          -4.847   1.020   0.031  0.00  0.00    -0.382 N 
ATOM     15  H8  <0> d          -4.887  -0.079   0.025  0.00  0.00     0.157 HD
ATOM     16  H9  <0> d          -5.779   1.605   0.039  0.00  0.00     0.157 HD
ENDBRANCH   3  14
BRANCH   4  17
ATOM     17  N4  <0> d          -2.446  -0.464   0.012  0.00  0.00    -0.393 N 
ATOM     18  H6  <0> d          -1.499  -1.024   0.004  0.00  0.00     0.156 HD
ATOM     19  H7  <0> d          -3.404  -1.003   0.014  0.00  0.00     0.156 HD
ENDBRANCH   4  17
TORSDOF 4
