REMARK  1 active torsions:
REMARK  status: ('A' for Active; 'I' for Inactive)
REMARK       I    between atoms: N1_5  and  C7_10 
REMARK    1  A    between atoms: C7_10  and  O2_12 
ROOT
ATOM      1  C1  <0> d          -0.656   1.788   1.261  0.00  0.00    -0.035 C 
ATOM      2  C2  <0> d          -0.013   1.086   0.008  0.00  0.00    -0.020 C 
ATOM      3  H1  <0> d           0.002  -0.004   0.002  0.00  0.00     0.048 H 
ATOM      4  C3  <0> d           1.373   1.810  -0.001  0.00  0.00     0.007 C 
ATOM      5  N1  <0> d           1.065   3.189   0.441  0.00  0.00    -0.320 N 
ATOM      6  C4  <0> d          -0.411   3.222   0.665  0.00  0.00     0.034 C 
ATOM      7  H2  <0> d          -0.789   4.068   1.239  0.00  0.00     0.079 H 
ATOM      8  C5  <0> d          -1.014   3.032  -0.732  0.00  0.00    -0.084 C 
ATOM      9  C6  <0> d          -0.780   1.773  -1.130  0.00  0.00    -0.099 C 
ATOM     10  C7  <0> d           1.936   4.204   0.607  0.00  0.00     0.252 C 
ATOM     11  O1  <0> d           1.539   5.290   0.978  0.00  0.00    -0.632 OA
ATOM     12  H3  <0> d          -1.715   1.556   1.376  0.00  0.00     0.037 H 
ATOM     13  H4  <0> d          -0.093   1.612   2.177  0.00  0.00     0.037 H 
ATOM     14  H5  <0> d           2.059   1.329   0.696  0.00  0.00     0.065 H 
ATOM     15  H6  <0> d           1.793   1.817  -1.007  0.00  0.00     0.065 H 
ATOM     16  H7  <0> d          -1.533   3.786  -1.305  0.00  0.00     0.079 H 
ATOM     17  H8  <0> d          -1.067   1.321  -2.068  0.00  0.00     0.077 H 
ENDROOT
BRANCH  10  18
ATOM     18  O2  <0> d           3.246   4.013   0.362  0.00  0.00    -0.760 OA
ATOM     19  H9  <0> d           3.833   4.770   0.495  0.00  0.00     0.169 HD
ENDBRANCH  10  18
TORSDOF 1
