REMARK  2 active torsions:
REMARK  status: ('A' for Active; 'I' for Inactive)
REMARK    1  A    between atoms: C2_2  and  N3_9 
REMARK    2  A    between atoms: C3_3  and  C4_6 
REMARK       I    between atoms: C4_6  and  N2_8 
ROOT
ATOM      1  C1  <0> d          -3.601   2.067   0.031  0.00  0.00     0.001 A 
ATOM      2  C2  <0> d          -2.516   1.241   0.015  0.00  0.00     0.069 A 
ATOM      3  C3  <0> d          -1.301   1.932   0.019  0.00  0.00     0.159 A 
ATOM      4  N1  <0> d          -1.346   3.247   0.026  0.00  0.00    -0.204 NA
ATOM      5  S1  <0> d          -2.872   3.635   0.035  0.00  0.00     0.002 SA
ATOM      6  H1  <0> d          -4.649   1.808   0.035  0.00  0.00     0.100 H 
ENDROOT
BRANCH   3   7
ATOM      7  C4  <0> d          -0.014   1.212   0.009  0.00  0.00     0.271 C 
ATOM      8  O1  <0> d           0.002  -0.004   0.002  0.00  0.00    -0.266 OA
ATOM      9  N2  <0> d           1.143   1.902   0.001  0.00  0.00    -0.365 N 
ATOM     10  H2  <0> d           1.990   1.428  -0.009  0.00  0.00     0.159 HD
ATOM     11  H3  <0> d           1.130   2.871   0.007  0.00  0.00     0.159 HD
ENDBRANCH   3   7
BRANCH   2  12
ATOM     12  N3  <0> d          -2.611  -0.158   0.002  0.00  0.00    -0.397 N 
ATOM     13  H4  <0> d          -1.805  -0.698  -0.006  0.00  0.00     0.156 HD
ATOM     14  H5  <0> d          -3.481  -0.586   0.000  0.00  0.00     0.156 HD
ENDBRANCH   2  12
TORSDOF 2
