REMARK  5 active torsions:
REMARK  status: ('A' for Active; 'I' for Inactive)
REMARK    1  A    between atoms: C1_1  and  N1_2 
REMARK    2  A    between atoms: N1_2  and  C2_3 
REMARK    3  A    between atoms: N1_2  and  C6_7 
REMARK    4  A    between atoms: C2_3  and  C3_4 
REMARK    5  A    between atoms: C3_4  and  C4_5 
ROOT
ATOM      1  C4  <0> d          -0.064   1.118  -2.443  0.00  0.00    -0.116 C 
ATOM      2  C5  <0> d           0.486   0.739  -3.409  0.00  0.00    -0.154 C 
ATOM      3  H8  <0> d           0.977   0.401  -4.272  0.00  0.00     0.166 H 
ENDROOT
BRANCH   1   4
ATOM      4  C3  <0> d          -0.753   1.593  -1.232  0.00  0.00     0.005 C 
ATOM      5  H6  <0> d          -1.775   1.215  -1.224  0.00  0.00     0.054 H 
ATOM      6  H7  <0> d          -0.767   2.683  -1.226  0.00  0.00     0.054 H 
BRANCH   4   7
ATOM      7  C2  <0> d          -0.013   1.086   0.008  0.00  0.00     0.004 C 
ATOM      8  H4  <0> d           0.002  -0.004   0.002  0.00  0.00     0.065 H 
ATOM      9  H5  <0> d           1.010   1.463   0.000  0.00  0.00     0.065 H 
BRANCH   7  10
ATOM     10  N1  <0> d          -0.698   1.558   1.213  0.00  0.00    -0.384 N 
BRANCH  10  11
ATOM     11  C1  <0> d          -0.323   2.840   1.815  0.00  0.00    -0.018 C 
ATOM     12  H1  <0> d          -0.927   3.636   1.380  0.00  0.00     0.056 H 
ATOM     13  H2  <0> d          -0.494   2.801   2.890  0.00  0.00     0.056 H 
ATOM     14  H3  <0> d           0.732   3.037   1.621  0.00  0.00     0.056 H 
ENDBRANCH  10  11
BRANCH  10  15
ATOM     15  C6  <0> d          -1.710   0.786   1.789  0.00  0.00     0.029 A 
ATOM     16  C11 <0> d          -2.361   1.233   2.932  0.00  0.00    -0.057 A 
ATOM     17  C10 <0> d          -3.362   0.468   3.498  0.00  0.00    -0.081 A 
ATOM     18  H13 <0> d          -2.086   2.178   3.377  0.00  0.00     0.086 H 
ATOM     19  C9  <0> d          -3.715  -0.742   2.929  0.00  0.00    -0.083 A 
ATOM     20  H12 <0> d          -3.868   0.814   4.387  0.00  0.00     0.083 H 
ATOM     21  C8  <0> d          -3.069  -1.190   1.791  0.00  0.00    -0.081 A 
ATOM     22  H11 <0> d          -4.498  -1.339   3.374  0.00  0.00     0.083 H 
ATOM     23  C7  <0> d          -2.071  -0.427   1.217  0.00  0.00    -0.057 A 
ATOM     24  H10 <0> d          -3.348  -2.135   1.349  0.00  0.00     0.083 H 
ATOM     25  H9  <0> d          -1.570  -0.775   0.326  0.00  0.00     0.086 H 
ENDBRANCH  10  15
ENDBRANCH   7  10
ENDBRANCH   4   7
ENDBRANCH   1   4
TORSDOF 5
