REMARK  2 active torsions:
REMARK  status: ('A' for Active; 'I' for Inactive)
REMARK    1  A    between atoms: C3_3  and  N2_9 
REMARK    2  A    between atoms: C4_4  and  N1_8 
ROOT
ATOM      1  C1  <0> d          -0.017   1.379   0.010  0.00  0.00    -0.060 A 
ATOM      2  C2  <0> d           1.169   2.090   0.002  0.00  0.00    -0.054 A 
ATOM      3  C3  <0> d           2.381   1.418  -0.013  0.00  0.00     0.052 A 
ATOM      4  C4  <0> d           2.401   0.023  -0.021  0.00  0.00     0.053 A 
ATOM      5  C5  <0> d           1.208  -0.683  -0.013  0.00  0.00    -0.035 A 
ATOM      6  C6  <0> d           0.002  -0.004   0.002  0.00  0.00     0.036 A 
ATOM      7 Cl1  <0> d          -1.491  -0.890   0.012  0.00  0.00    -0.084 Cl
ATOM      8  H1  <0> d          -0.960   1.905   0.026  0.00  0.00     0.086 H 
ATOM      9  H2  <0> d           1.151   3.170   0.008  0.00  0.00     0.087 H 
ATOM     10  H3  <0> d           1.220  -1.763  -0.019  0.00  0.00     0.089 H 
ENDROOT
BRANCH   3  11
ATOM     11  N2  <0> d           3.583   2.137  -0.022  0.00  0.00    -0.397 N 
ATOM     12  H6  <0> d           3.568   3.107  -0.017  0.00  0.00     0.156 HD
ATOM     13  H7  <0> d           4.431   1.665  -0.033  0.00  0.00     0.156 HD
ENDBRANCH   3  11
BRANCH   4  14
ATOM     14  N1  <0> d           3.622  -0.662  -0.037  0.00  0.00    -0.397 N 
ATOM     15  H4  <0> d           4.456  -0.166  -0.043  0.00  0.00     0.156 HD
ATOM     16  H5  <0> d           3.634  -1.632  -0.043  0.00  0.00     0.156 HD
ENDBRANCH   4  14
TORSDOF 2
