REMARK  1 active torsions:
REMARK  status: ('A' for Active; 'I' for Inactive)
REMARK    1  A    between atoms: C1_1  and  C3_4 
ROOT
ATOM      1  C1  <0> d          -0.018   1.468   0.010  0.00  0.00     0.069 C 
ATOM      2  C2  <0> d           0.002  -0.004   0.002  0.00  0.00     0.066 C 
ATOM      3  N1  <0> d           0.018  -1.140  -0.004  0.00  0.00    -0.197 NA
ATOM      4  H2  <0> d          -0.545   1.829  -0.873  0.00  0.00     0.066 H 
ATOM      5  H3  <0> d          -0.528   1.819   0.907  0.00  0.00     0.066 H 
ENDROOT
BRANCH   1   6
ATOM      6  C3  <0> d           1.396   1.989  -0.001  0.00  0.00     0.121 A 
ATOM      7  N3  <0> d           2.302   1.659   0.869  0.00  0.00    -0.209 NA
ATOM      8  C5  <0> d           3.473   2.295   0.587  0.00  0.00     0.229 A 
ATOM      9  C4  <0> d           3.208   3.114  -0.609  0.00  0.00     0.209 A 
ATOM     10  N4  <0> d           4.720   2.480   0.937  0.00  0.00    -0.081 NA
ATOM     11  N2  <0> d           1.880   2.869  -0.920  0.00  0.00    -0.323 N 
ATOM     12  N5  <0> d           4.299   3.749  -0.921  0.00  0.00    -0.083 NA
ATOM     13  H1  <0> d           1.384   3.255  -1.659  0.00  0.00     0.169 HD
ATOM     14  O1  <0> d           5.298   3.393   0.019  0.00  0.00    -0.103 OA
ENDBRANCH   1   6
TORSDOF 1
