REMARK  4 active torsions:
REMARK  status: ('A' for Active; 'I' for Inactive)
REMARK    1  A    between atoms: C1_1  and  C2_2 
REMARK    2  A    between atoms: C2_2  and  C3_3 
REMARK    3  A    between atoms: C2_2  and  N1_4 
REMARK       I    between atoms: N1_4  and  C4_5 
REMARK    4  A    between atoms: C4_5  and  C5_7 
ROOT
ATOM      1  N1  <0> d          -1.191   1.867   0.018  0.00  0.00    -0.357 N 
ATOM      2  C4  <0> d          -0.014   1.209   0.009  0.00  0.00     0.222 C 
ATOM      3  O1  <0> d           0.002  -0.004   0.002  0.00  0.00    -0.273 OA
ATOM      4  H8  <0> d          -1.204   2.837   0.023  0.00  0.00     0.162 HD
ENDROOT
BRANCH   1   5
ATOM      5  C2  <0> d          -2.449   1.117   0.020  0.00  0.00     0.005 C 
ATOM      6  H4  <0> d          -2.333   0.211  -0.575  0.00  0.00     0.071 H 
BRANCH   5   7
ATOM      7  C1  <0> d          -2.816   0.740   1.456  0.00  0.00    -0.058 C 
ATOM      8  H1  <0> d          -2.026   0.123   1.884  0.00  0.00     0.030 H 
ATOM      9  H2  <0> d          -2.932   1.646   2.051  0.00  0.00     0.030 H 
ATOM     10  H3  <0> d          -3.753   0.182   1.458  0.00  0.00     0.030 H 
ENDBRANCH   5   7
BRANCH   5  11
ATOM     11  C3  <0> d          -3.559   1.982  -0.580  0.00  0.00    -0.058 C 
ATOM     12  H5  <0> d          -3.298   2.251  -1.603  0.00  0.00     0.030 H 
ATOM     13  H6  <0> d          -4.496   1.425  -0.579  0.00  0.00     0.030 H 
ATOM     14  H7  <0> d          -3.675   2.888   0.015  0.00  0.00     0.030 H 
ENDBRANCH   5  11
ENDBRANCH   1   5
BRANCH   2  15
ATOM     15  C5  <0> d           1.280   1.980   0.001  0.00  0.00     0.024 A 
ATOM     16  C7  <0> d           2.582   1.175  -0.018  0.00  0.00    -0.053 A 
ATOM     17  C6  <0> d           2.127   1.925  -1.273  0.00  0.00    -0.053 A 
ATOM     18  H12 <0> d           3.432   1.581   0.530  0.00  0.00     0.034 H 
ATOM     19  H13 <0> d           2.501   0.088  -0.024  0.00  0.00     0.034 H 
ATOM     20  H10 <0> d           1.747   1.332  -2.105  0.00  0.00     0.034 H 
ATOM     21  H11 <0> d           2.678   2.824  -1.549  0.00  0.00     0.034 H 
ATOM     22  H9  <0> d           1.274   2.914   0.561  0.00  0.00     0.054 H 
ENDBRANCH   2  15
TORSDOF 4
