REMARK  8 active torsions:
REMARK  status: ('A' for Active; 'I' for Inactive)
REMARK    1  A    between atoms: C1_1  and  C2_2 
REMARK    2  A    between atoms: C2_2  and  C3_3 
REMARK    3  A    between atoms: C3_3  and  C4_5 
REMARK    4  A    between atoms: C3_3  and  C5_6 
REMARK    5  A    between atoms: C5_6  and  C6_8 
REMARK    6  A    between atoms: C6_8  and  C7_10 
REMARK    7  A    between atoms: C6_8  and  C8_11 
REMARK    8  A    between atoms: C8_11  and  C9_12 
ROOT
ATOM      1  C5  <0> d           0.731  -0.503   1.223  0.00  0.00     0.134 C 
ATOM      2  O1  <0> d           1.924  -0.688   1.181  0.00  0.00    -0.297 OA
ENDROOT
BRANCH   1   3
ATOM      3  C3  <0> d          -0.029  -0.772   2.497  0.00  0.00     0.000 C 
ATOM      4  H1  <0> d          -1.025  -1.160   2.237  0.00  0.00     0.051 H 
BRANCH   3   5
ATOM      5  C2  <0> d           0.730  -1.803   3.334  0.00  0.00    -0.059 C 
ATOM      6  H6  <0> d           1.693  -1.380   3.654  0.00  0.00     0.033 H 
ATOM      7  H7  <0> d           0.908  -2.706   2.732  0.00  0.00     0.033 H 
BRANCH   5   8
ATOM      8  C1  <0> d          -0.101  -2.169   4.567  0.00  0.00    -0.076 C 
ATOM      9  H3  <0> d           0.444  -2.911   5.169  0.00  0.00     0.027 H 
ATOM     10  H4  <0> d          -1.064  -2.593   4.247  0.00  0.00     0.027 H 
ATOM     11  H5  <0> d          -0.279  -1.266   5.170  0.00  0.00     0.027 H 
ENDBRANCH   5   8
ENDBRANCH   3   5
BRANCH   3  12
ATOM     12  C4  <0> d          -0.167   0.528   3.291  0.00  0.00    -0.066 C 
ATOM     13  H8  <0> d          -0.712   1.270   2.689  0.00  0.00     0.028 H 
ATOM     14  H9  <0> d           0.832   0.917   3.535  0.00  0.00     0.028 H 
ATOM     15  H10 <0> d          -0.722   0.332   4.221  0.00  0.00     0.028 H 
ENDBRANCH   3  12
ENDBRANCH   1   3
BRANCH   1  16
ATOM     16  C6  <0> d           0.002  -0.004   0.002  0.00  0.00     0.000 C 
ATOM     17  H2  <0> d          -1.027  -0.392   0.023  0.00  0.00     0.051 H 
BRANCH  16  18
ATOM     18  C7  <0> d          -0.019   1.526   0.010  0.00  0.00    -0.066 C 
ATOM     19  H11 <0> d          -0.551   1.890  -0.881  0.00  0.00     0.028 H 
ATOM     20  H12 <0> d           1.013   1.907   0.003  0.00  0.00     0.028 H 
ATOM     21  H13 <0> d          -0.534   1.881   0.915  0.00  0.00     0.028 H 
ENDBRANCH  16  18
BRANCH  16  22
ATOM     22  C8  <0> d           0.718  -0.497  -1.257  0.00  0.00    -0.059 C 
ATOM     23  H14 <0> d           1.719  -0.045  -1.310  0.00  0.00     0.033 H 
ATOM     24  H15 <0> d           0.812  -1.593  -1.220  0.00  0.00     0.033 H 
BRANCH  22  25
ATOM     25  C9  <0> d          -0.089  -0.097  -2.493  0.00  0.00    -0.076 C 
ATOM     26  H16 <0> d           0.426  -0.452  -3.398  0.00  0.00     0.027 H 
ATOM     27  H17 <0> d          -0.183   0.999  -2.530  0.00  0.00     0.027 H 
ATOM     28  H18 <0> d          -1.090  -0.549  -2.440  0.00  0.00     0.027 H 
ENDBRANCH  22  25
ENDBRANCH  16  22
ENDBRANCH   1  16
TORSDOF 8
