REMARK  3 active torsions:
REMARK  status: ('A' for Active; 'I' for Inactive)
REMARK    1  A    between atoms: C1_1  and  C2_2 
REMARK    2  A    between atoms: C5_5  and  C8_8 
REMARK    3  A    between atoms: C8_8  and  C9_10 
ROOT
ATOM      1  C2  <0> d           0.002  -0.004   0.002  0.00  0.00    -0.062 A 
ATOM      2  C3  <0> d           0.006  -0.686  -1.202  0.00  0.00    -0.076 A 
ATOM      3  C4  <0> d           0.024  -2.064  -1.218  0.00  0.00    -0.069 A 
ATOM      4  C5  <0> d           0.039  -2.774  -0.013  0.00  0.00     0.009 A 
ATOM      5  C6  <0> d           0.036  -2.078   1.200  0.00  0.00    -0.069 A 
ATOM      6  C7  <0> d           0.023  -0.699   1.199  0.00  0.00    -0.076 A 
ATOM      7  H4  <0> d          -0.006  -0.137  -2.132  0.00  0.00     0.084 H 
ATOM      8  H5  <0> d           0.026  -2.595  -2.159  0.00  0.00     0.085 H 
ATOM      9  H6  <0> d           0.047  -2.618   2.134  0.00  0.00     0.085 H 
ATOM     10  H7  <0> d           0.025  -0.160   2.135  0.00  0.00     0.084 H 
ENDROOT
BRANCH   4  11
ATOM     11  C8  <0> d           0.058  -4.245  -0.021  0.00  0.00     0.155 C 
ATOM     12  O1  <0> d           0.060  -4.846  -1.075  0.00  0.00    -0.293 OA
BRANCH  11  13
ATOM     13  C9  <0> d           0.075  -5.006   1.280  0.00  0.00    -0.017 C 
ATOM     14  H8  <0> d          -0.949  -5.203   1.599  0.00  0.00     0.038 H 
ATOM     15  H9  <0> d           0.600  -5.951   1.141  0.00  0.00     0.038 H 
ATOM     16  H10 <0> d           0.585  -4.414   2.040  0.00  0.00     0.038 H 
ENDBRANCH  11  13
ENDBRANCH   4  11
BRANCH   1  17
ATOM     17  C1  <0> d          -0.018   1.503   0.010  0.00  0.00    -0.051 C 
ATOM     18  H1  <0> d           1.004   1.880   0.003  0.00  0.00     0.033 H 
ATOM     19  H2  <0> d          -0.545   1.864  -0.873  0.00  0.00     0.033 H 
ATOM     20  H3  <0> d          -0.529   1.854   0.907  0.00  0.00     0.033 H 
ENDBRANCH   1  17
TORSDOF 3
