REMARK  5 active torsions:
REMARK  status: ('A' for Active; 'I' for Inactive)
REMARK    1  A    between atoms: C1_1  and  C2_2 
REMARK    2  A    between atoms: N2_6  and  C5_7 
REMARK    3  A    between atoms: C5_7  and  C6_8 
REMARK    4  A    between atoms: C6_8  and  C7_9 
REMARK    5  A    between atoms: C6_8  and  C8_10 
ROOT
ATOM      1  C5  <0> d          -0.013   1.086   0.008  0.00  0.00     0.019 C 
ATOM      2  H6  <0> d           0.002  -0.004   0.002  0.00  0.00     0.068 H 
ATOM      3  H7  <0> d           1.010   1.463   0.000  0.00  0.00     0.068 H 
ENDROOT
BRANCH   1   4
ATOM      4  N2  <0> d          -0.698   1.558   1.213  0.00  0.00    -0.274 N 
ATOM      5  C2  <0> d          -0.449   2.711   1.869  0.00  0.00     0.028 A 
ATOM      6  C3  <0> d          -1.294   2.778   2.923  0.00  0.00    -0.041 A 
ATOM      7  C4  <0> d          -2.082   1.622   2.917  0.00  0.00     0.024 A 
ATOM      8  H4  <0> d          -1.349   3.580   3.644  0.00  0.00     0.088 H 
ATOM      9  N1  <0> d          -1.725   0.890   1.893  0.00  0.00    -0.185 NA
ATOM     10  H5  <0> d          -2.850   1.376   3.634  0.00  0.00     0.117 H 
BRANCH   5  11
ATOM     11  C1  <0> d           0.585   3.741   1.491  0.00  0.00    -0.036 C 
ATOM     12  H1  <0> d           0.139   4.472   0.816  0.00  0.00     0.035 H 
ATOM     13  H2  <0> d           0.940   4.246   2.390  0.00  0.00     0.035 H 
ATOM     14  H3  <0> d           1.422   3.251   0.995  0.00  0.00     0.035 H 
ENDBRANCH   5  11
ENDBRANCH   1   4
BRANCH   1  15
ATOM     15  C6  <0> d          -0.753   1.593  -1.232  0.00  0.00    -0.044 C 
ATOM     16  H8  <0> d          -1.798   1.290  -1.179  0.00  0.00     0.041 H 
BRANCH  15  17
ATOM     17  C7  <0> d          -0.666   3.119  -1.289  0.00  0.00    -0.072 C 
ATOM     18  H9  <0> d          -1.123   3.543  -0.394  0.00  0.00     0.028 H 
ATOM     19  H10 <0> d           0.380   3.422  -1.341  0.00  0.00     0.028 H 
ATOM     20  H11 <0> d          -1.193   3.480  -2.172  0.00  0.00     0.028 H 
ENDBRANCH  15  17
BRANCH  15  21
ATOM     21  C8  <0> d          -0.111   0.998  -2.487  0.00  0.00    -0.072 C 
ATOM     22  H12 <0> d          -0.173  -0.089  -2.446  0.00  0.00     0.028 H 
ATOM     23  H13 <0> d          -0.639   1.359  -3.370  0.00  0.00     0.028 H 
ATOM     24  H14 <0> d           0.934   1.301  -2.539  0.00  0.00     0.028 H 
ENDBRANCH  15  21
ENDBRANCH   1  15
TORSDOF 5
