REMARK  6 active torsions:
REMARK  status: ('A' for Active; 'I' for Inactive)
REMARK    1  A    between atoms: C1_1  and  C2_2 
REMARK    2  A    between atoms: C2_2  and  C3_3 
REMARK    3  A    between atoms: C2_2  and  C4_4 
REMARK    4  A    between atoms: C4_4  and  C5_5 
REMARK    5  A    between atoms: C5_5  and  C6_6 
REMARK    6  A    between atoms: C6_6  and  C7_7 
ROOT
ATOM      1  C7  <0> d          -0.018   1.468   0.010  0.00  0.00     0.015 C 
ATOM      2  C8  <0> d           0.002  -0.004   0.002  0.00  0.00     0.059 C 
ATOM      3  N1  <0> d           0.018  -1.140  -0.004  0.00  0.00    -0.197 NA
ATOM      4  H13 <0> d           1.005   1.845   0.002  0.00  0.00     0.054 H 
ATOM      5  H14 <0> d          -0.545   1.829  -0.873  0.00  0.00     0.054 H 
ENDROOT
BRANCH   1   6
ATOM      6  C6  <0> d          -0.734   1.961   1.269  0.00  0.00    -0.054 C 
ATOM      7  H11 <0> d          -1.757   1.584   1.277  0.00  0.00     0.034 H 
ATOM      8  H12 <0> d          -0.207   1.600   2.152  0.00  0.00     0.034 H 
BRANCH   6   9
ATOM      9  C5  <0> d          -0.755   3.491   1.277  0.00  0.00    -0.063 C 
ATOM     10  H9  <0> d           0.268   3.868   1.270  0.00  0.00     0.033 H 
ATOM     11  H10 <0> d          -1.282   3.852   0.394  0.00  0.00     0.033 H 
BRANCH   9  12
ATOM     12  C4  <0> d          -1.471   3.984   2.536  0.00  0.00    -0.046 C 
ATOM     13  H7  <0> d          -2.494   3.607   2.544  0.00  0.00     0.035 H 
ATOM     14  H8  <0> d          -0.944   3.623   3.419  0.00  0.00     0.035 H 
BRANCH  12  15
ATOM     15  C2  <0> d          -1.492   5.514   2.545  0.00  0.00     0.042 C 
ATOM     16  C9  <0> d          -2.181   5.989   3.756  0.00  0.00     0.068 C 
ATOM     17  N2  <0> d          -2.712   6.355   4.690  0.00  0.00    -0.196 NA
BRANCH  15  18
ATOM     18  C1  <0> d          -0.056   6.044   2.534  0.00  0.00    -0.057 C 
ATOM     19  H1  <0> d           0.454   5.692   1.637  0.00  0.00     0.029 H 
ATOM     20  H2  <0> d          -0.071   7.134   2.540  0.00  0.00     0.029 H 
ATOM     21  H3  <0> d           0.471   5.683   3.417  0.00  0.00     0.029 H 
ENDBRANCH  15  18
BRANCH  15  22
ATOM     22  C3  <0> d          -2.232   6.021   1.305  0.00  0.00    -0.057 C 
ATOM     23  H4  <0> d          -3.254   5.644   1.313  0.00  0.00     0.029 H 
ATOM     24  H5  <0> d          -2.246   7.111   1.311  0.00  0.00     0.029 H 
ATOM     25  H6  <0> d          -1.722   5.670   0.408  0.00  0.00     0.029 H 
ENDBRANCH  15  22
ENDBRANCH  12  15
ENDBRANCH   9  12
ENDBRANCH   6   9
ENDBRANCH   1   6
TORSDOF 6
