REMARK  0 active torsions:
REMARK  status: ('A' for Active; 'I' for Inactive)
ROOT
ATOM      1  C1  <0> d          -0.016   1.362   0.009  0.00  0.00    -0.082 A 
ATOM      2  C2  <0> d           1.169   2.084   0.002  0.00  0.00    -0.081 A 
ATOM      3  C3  <0> d           2.386   1.439  -0.013  0.00  0.00    -0.056 A 
ATOM      4  C4  <0> d           2.430   0.048  -0.021  0.00  0.00     0.045 A 
ATOM      5  C5  <0> d           1.226  -0.681  -0.013  0.00  0.00    -0.009 A 
ATOM      6  C6  <0> d           0.002  -0.004   0.002  0.00  0.00    -0.071 A 
ATOM      7  C7  <0> d           1.283  -2.144  -0.022  0.00  0.00    -0.066 A 
ATOM      8  C8  <0> d           2.498  -2.745  -0.037  0.00  0.00    -0.017 A 
ATOM      9  C9  <0> d           3.676  -1.967  -0.045  0.00  0.00     0.245 A 
ATOM     10  N1  <0> d           3.634  -0.624  -0.036  0.00  0.00    -0.323 N 
ATOM     11  O1  <0> d           4.758  -2.528  -0.058  0.00  0.00    -0.268 OA
ATOM     12  H1  <0> d          -0.962   1.884   0.026  0.00  0.00     0.083 H 
ATOM     13  H2  <0> d           1.137   3.164   0.008  0.00  0.00     0.083 H 
ATOM     14  H3  <0> d           3.303   2.010  -0.020  0.00  0.00     0.086 H 
ATOM     15  H4  <0> d          -0.924  -0.559   0.008  0.00  0.00     0.084 H 
ATOM     16  H5  <0> d           0.376  -2.731  -0.015  0.00  0.00     0.085 H 
ATOM     17  H6  <0> d           2.565  -3.823  -0.043  0.00  0.00     0.092 H 
ATOM     18  H7  <0> d           4.463  -0.119  -0.042  0.00  0.00     0.169 HD
ENDROOT
TORSDOF 0
