REMARK  0 active torsions:
REMARK  status: ('A' for Active; 'I' for Inactive)
ROOT
ATOM      1  C1  <0> d          -1.413   4.375   0.039  0.00  0.00    -0.015 A 
ATOM      2  C2  <0> d          -0.737   3.162   0.026  0.00  0.00     0.065 A 
ATOM      3  C3  <0> d           0.667   3.141   0.013  0.00  0.00     0.087 A 
ATOM      4  C4  <0> d           1.375   4.346   0.012  0.00  0.00    -0.013 A 
ATOM      5  C5  <0> d           0.691   5.541   0.024  0.00  0.00     0.157 A 
ATOM      6  C6  <0> d          -0.701   5.557   0.038  0.00  0.00     0.157 A 
ATOM      7  F1  <0> d          -1.359   6.737   0.050  0.00  0.00    -0.203 F 
ATOM      8  F2  <0> d           1.375   6.706   0.023  0.00  0.00    -0.203 F 
ATOM      9  N1  <0> d           1.043   1.836   0.002  0.00  0.00    -0.242 NA
ATOM     10  C7  <0> d          -0.013   1.076   0.008  0.00  0.00     0.065 A 
ATOM     11  N2  <0> d          -1.138   1.840   0.017  0.00  0.00    -0.349 N 
ATOM     12  H1  <0> d          -2.081   1.507   0.017  0.00  0.00     0.167 HD
ATOM     13  H2  <0> d          -2.492   4.393   0.049  0.00  0.00     0.092 H 
ATOM     14  H3  <0> d           2.455   4.340   0.002  0.00  0.00     0.092 H 
ATOM     15  H4  <0> d           0.002  -0.004   0.002  0.00  0.00     0.143 H 
ENDROOT
TORSDOF 0
