REMARK  0 active torsions:
REMARK  status: ('A' for Active; 'I' for Inactive)
ROOT
ATOM      1  C1  <0> d          -0.016   1.351   0.009  0.00  0.00    -0.064 A 
ATOM      2  C2  <0> d           1.310   1.798  -0.001  0.00  0.00    -0.048 A 
ATOM      3  C3  <0> d           2.108   0.679  -0.014  0.00  0.00     0.124 A 
ATOM      4  C4  <0> d           3.559   0.473  -0.029  0.00  0.00     0.278 A 
ATOM      5  O1  <0> d           4.320   1.422  -0.031  0.00  0.00    -0.265 OA
ATOM      6  N1  <0> d           4.036  -0.790  -0.040  0.00  0.00    -0.272 N 
ATOM      7  H1  <0> d           4.994  -0.939  -0.049  0.00  0.00     0.173 HD
ATOM      8  C5  <0> d           3.202  -1.843  -0.038  0.00  0.00     0.342 A 
ATOM      9  O2  <0> d           3.673  -2.964  -0.048  0.00  0.00    -0.245 OA
ATOM     10  N2  <0> d           1.866  -1.701  -0.024  0.00  0.00    -0.244 N 
ATOM     11  H2  <0> d           1.299  -2.488  -0.023  0.00  0.00     0.192 HD
ATOM     12  N3  <0> d           1.282  -0.427  -0.013  0.00  0.00    -0.258 N 
ATOM     13  C6  <0> d           0.002  -0.004   0.002  0.00  0.00     0.003 A 
ATOM     14  H3  <0> d          -0.898   1.975   0.025  0.00  0.00     0.085 H 
ATOM     15  H4  <0> d           1.642   2.826   0.001  0.00  0.00     0.087 H 
ATOM     16  H5  <0> d          -0.869  -0.643   0.007  0.00  0.00     0.114 H 
ENDROOT
TORSDOF 0
