REMARK  2 active torsions:
REMARK  status: ('A' for Active; 'I' for Inactive)
REMARK    1  A    between atoms: C1_1  and  N1_2 
REMARK    2  A    between atoms: N1_2  and  C2_3 
ROOT
ATOM      1  C2  <0> d          -1.221   1.775   0.017  0.00  0.00     0.125 A 
ATOM      2  C3  <0> d          -0.013   1.076   0.008  0.00  0.00    -0.022 A 
ATOM      3  C4  <0> d           1.163   1.800   0.001  0.00  0.00     0.007 A 
ATOM      4  N2  <0> d           1.107   3.124   0.008  0.00  0.00    -0.254 NA
ATOM      5  C5  <0> d          -0.049   3.755   0.022  0.00  0.00     0.088 A 
ATOM      6  N3  <0> d          -1.195   3.105   0.030  0.00  0.00    -0.225 NA
ATOM      7  H5  <0> d           0.002  -0.004   0.002  0.00  0.00     0.091 H 
ATOM      8  H6  <0> d           2.117   1.293  -0.011  0.00  0.00     0.115 H 
ATOM      9  H7  <0> d          -0.058   4.835   0.027  0.00  0.00     0.146 H 
ENDROOT
BRANCH   1  10
ATOM     10  N1  <0> d          -2.428   1.095   0.020  0.00  0.00    -0.379 N 
ATOM     11  H4  <0> d          -3.375   1.655   0.027  0.00  0.00     0.160 HD
BRANCH  10  12
ATOM     12  C1  <0> d          -2.443  -0.370   0.012  0.00  0.00    -0.020 C 
ATOM     13  H1  <0> d          -3.484  -0.726   0.015  0.00  0.00     0.056 H 
ATOM     14  H2  <0> d          -1.924  -0.747   0.906  0.00  0.00     0.056 H 
ATOM     15  H3  <0> d          -1.933  -0.737  -0.890  0.00  0.00     0.056 H 
ENDBRANCH  10  12
ENDBRANCH   1  10
TORSDOF 2
