REMARK  4 active torsions:
REMARK  status: ('A' for Active; 'I' for Inactive)
REMARK    1  A    between atoms: C1_1  and  C2_2 
REMARK    2  A    between atoms: C2_2  and  C3_3 
REMARK    3  A    between atoms: C3_3  and  C4_5 
REMARK    4  A    between atoms: C3_3  and  C5_6 
ROOT
ATOM      1  C3  <0> d          -0.729   1.579   1.267  0.00  0.00    -0.014 C 
ATOM      2  H1  <0> d          -1.783   1.266   1.244  0.00  0.00     0.049 H 
ENDROOT
BRANCH   1   3
ATOM      3  C2  <0> d          -0.013   1.086   0.008  0.00  0.00    -0.060 C 
ATOM      4  H5  <0> d           0.002  -0.014   0.002  0.00  0.00     0.033 H 
ATOM      5  H6  <0> d           1.019   1.466   0.000  0.00  0.00     0.033 H 
BRANCH   3   6
ATOM      6  C1  <0> d          -0.753   1.593  -1.232  0.00  0.00    -0.076 C 
ATOM      7  H2  <0> d          -0.238   1.238  -2.136  0.00  0.00     0.027 H 
ATOM      8  H3  <0> d          -0.768   2.693  -1.225  0.00  0.00     0.027 H 
ATOM      9  H4  <0> d          -1.785   1.212  -1.224  0.00  0.00     0.027 H 
ENDBRANCH   3   6
ENDBRANCH   1   3
BRANCH   1  10
ATOM     10  C4  <0> d          -0.641   3.105   1.339  0.00  0.00    -0.068 C 
ATOM     11  H7  <0> d          -1.156   3.460   2.244  0.00  0.00     0.028 H 
ATOM     12  H8  <0> d          -1.119   3.542   0.450  0.00  0.00     0.028 H 
ATOM     13  H9  <0> d           0.415   3.410   1.374  0.00  0.00     0.028 H 
ENDBRANCH   1  10
BRANCH   1  14
ATOM     14  C5  <0> d          -0.074   0.981   2.485  0.00  0.00     0.055 A 
ATOM     15  N2  <0> d          -0.565  -0.121   3.025  0.00  0.00    -0.262 NA
ATOM     16  C8  <0> d           0.012  -0.648   4.090  0.00  0.00     0.019 A 
ATOM     17  C7  <0> d           1.125  -0.042   4.646  0.00  0.00     0.019 A 
ATOM     18  H12 <0> d          -0.387  -1.550   4.530  0.00  0.00     0.117 H 
ATOM     19  N1  <0> d           1.613   1.062   4.109  0.00  0.00    -0.270 NA
ATOM     20  H11 <0> d           1.594  -0.471   5.519  0.00  0.00     0.117 H 
ATOM     21  C6  <0> d           1.039   1.587   3.041  0.00  0.00     0.026 A 
ATOM     22  H10 <0> d           1.438   2.489   2.601  0.00  0.00     0.117 H 
ENDBRANCH   1  14
TORSDOF 4
