REMARK  1 active torsions:
REMARK  status: ('A' for Active; 'I' for Inactive)
REMARK    1  A    between atoms: C1_1  and  C2_2 
ROOT
ATOM      1  C2  <0> d           2.398   1.423  -0.015  0.00  0.00    -0.047 A 
ATOM      2  C3  <0> d           2.418  -0.050  -0.022  0.00  0.00    -0.076 A 
ATOM      3  C4  <0> d           1.288  -0.723  -0.014  0.00  0.00    -0.082 A 
ATOM      4  C5  <0> d           0.002  -0.004   0.002  0.00  0.00    -0.068 A 
ATOM      5  C6  <0> d          -0.016   1.312   0.009  0.00  0.00     0.033 A 
ATOM      6  C7  <0> d           1.250   2.066   0.001  0.00  0.00     0.038 A 
ATOM      7  C8  <0> d           0.496   3.331   0.015  0.00  0.00     0.234 A 
ATOM      8  O1  <0> d           0.792   4.500   0.019  0.00  0.00    -0.283 OA
ATOM      9  C9  <0> d          -0.769   2.577   0.018  0.00  0.00     0.233 A 
ATOM     10  O2  <0> d          -1.938   2.874   0.023  0.00  0.00    -0.283 OA
ATOM     11  H4  <0> d           3.361  -0.577  -0.033  0.00  0.00     0.084 H 
ATOM     12  H5  <0> d           1.302  -1.803  -0.019  0.00  0.00     0.083 H 
ATOM     13  H6  <0> d          -0.926  -0.557   0.008  0.00  0.00     0.085 H 
ENDROOT
BRANCH   1  14
ATOM     14  C1  <0> d           3.693   2.194  -0.024  0.00  0.00    -0.050 C 
ATOM     15  H1  <0> d           3.995   2.385  -1.054  0.00  0.00     0.033 H 
ATOM     16  H2  <0> d           3.554   3.143   0.495  0.00  0.00     0.033 H 
ATOM     17  H3  <0> d           4.465   1.613   0.480  0.00  0.00     0.033 H 
ENDBRANCH   1  14
TORSDOF 1
