REMARK  2 active torsions:
REMARK  status: ('A' for Active; 'I' for Inactive)
REMARK    1  A    between atoms: C1_1  and  C2_2 
REMARK    2  A    between atoms: C7_7  and  C8_8 
ROOT
ATOM      1  C8  <0> d           2.454   3.935  -0.001  0.00  0.00     0.039 C 
ATOM      2  C9  <0> d           2.924   4.089  -1.387  0.00  0.00     0.063 C 
ATOM      3  N1  <0> d           3.287   4.207  -2.457  0.00  0.00    -0.197 NA
ATOM      4  H7  <0> d           2.295   4.919   0.441  0.00  0.00     0.062 H 
ATOM      5  H8  <0> d           3.202   3.393   0.578  0.00  0.00     0.062 H 
ENDROOT
BRANCH   1   6
ATOM      6  C7  <0> d           1.158   3.165   0.008  0.00  0.00    -0.036 A 
ATOM      7  C2  <0> d           1.175   1.783   0.000  0.00  0.00    -0.055 A 
ATOM      8  C3  <0> d          -0.013   1.076   0.008  0.00  0.00    -0.074 A 
ATOM      9  C4  <0> d          -1.219   1.750   0.017  0.00  0.00    -0.045 A 
ATOM     10  H4  <0> d           0.002  -0.004   0.002  0.00  0.00     0.084 H 
ATOM     11  C5  <0> d          -1.237   3.135   0.031  0.00  0.00     0.117 A 
ATOM     12  H5  <0> d          -2.147   1.197   0.019  0.00  0.00     0.088 H 
ATOM     13  C6  <0> d          -0.047   3.842   0.023  0.00  0.00    -0.038 A 
ATOM     14  F1  <0> d          -2.416   3.795   0.045  0.00  0.00    -0.206 F 
ATOM     15  H6  <0> d          -0.060   4.922   0.029  0.00  0.00     0.089 H 
BRANCH   7  16
ATOM     16  C1  <0> d           2.490   1.047  -0.017  0.00  0.00    -0.051 C 
ATOM     17  H1  <0> d           2.797   0.875  -1.048  0.00  0.00     0.033 H 
ATOM     18  H2  <0> d           3.247   1.643   0.493  0.00  0.00     0.033 H 
ATOM     19  H3  <0> d           2.377   0.090   0.493  0.00  0.00     0.033 H 
ENDBRANCH   7  16
ENDBRANCH   1   6
TORSDOF 2
