REMARK  3 active torsions:
REMARK  status: ('A' for Active; 'I' for Inactive)
REMARK    1  A    between atoms: C1_1  and  O1_2 
REMARK    2  A    between atoms: O1_2  and  C2_3 
REMARK    3  A    between atoms: C3_4  and  C5_8 
ROOT
ATOM      1  C2  <0> d           0.002  -0.004   0.002  0.00  0.00     0.227 A 
ATOM      2  C3  <0> d          -0.017   1.392   0.010  0.00  0.00     0.120 A 
ATOM      3  C4  <0> d           1.367   1.737  -0.002  0.00  0.00     0.050 A 
ATOM      4  N1  <0> d           2.022   0.616  -0.014  0.00  0.00    -0.137 NA
ATOM      5  O2  <0> d           1.296  -0.349  -0.012  0.00  0.00    -0.187 OA
ATOM      6  H4  <0> d           1.787   2.732  -0.001  0.00  0.00     0.120 H 
ENDROOT
BRANCH   1   7
ATOM      7  O1  <0> d          -1.062  -0.834   0.008  0.00  0.00    -0.333 OA
BRANCH   7   8
ATOM      8  C1  <0> d          -0.792  -2.237  -0.002  0.00  0.00     0.012 C 
ATOM      9  H1  <0> d          -0.227  -2.491  -0.899  0.00  0.00     0.067 H 
ATOM     10  H2  <0> d          -0.209  -2.501   0.881  0.00  0.00     0.067 H 
ATOM     11  H3  <0> d          -1.732  -2.788   0.005  0.00  0.00     0.067 H 
ENDBRANCH   7   8
ENDBRANCH   1   7
BRANCH   2  12
ATOM     12  C5  <0> d          -1.179   2.287   0.020  0.00  0.00     0.215 C 
ATOM     13  O3  <0> d          -2.303   1.824   0.024  0.00  0.00    -0.644 OA
ATOM     14  O4  <0> d          -1.000   3.624   0.027  0.00  0.00    -0.644 OA
ENDBRANCH   2  12
TORSDOF 3
