REMARK  1 active torsions:
REMARK  status: ('A' for Active; 'I' for Inactive)
REMARK    1  A    between atoms: C4_5  and  N3_7 
ROOT
ATOM      1  C1  <0> d           1.134  -0.681  -0.012  0.00  0.00     0.030 A 
ATOM      2  C2  <0> d           2.357  -0.004  -0.021  0.00  0.00    -0.003 A 
ATOM      3  C3  <0> d           2.283   1.387  -0.013  0.00  0.00     0.120 A 
ATOM      4  N1  <0> d           1.116   2.012   0.002  0.00  0.00    -0.056 NA
ATOM      5  C4  <0> d          -0.016   1.321   0.009  0.00  0.00     0.721 A 
ATOM      6  N2  <0> d           0.002  -0.004   0.002  0.00  0.00    -0.075 NA
ATOM      7  S1  <0> d           3.950   1.996  -0.026  0.00  0.00    -0.109 SA
ATOM      8  C5  <0> d           4.868   0.413  -0.043  0.00  0.00    -0.013 A 
ATOM      9  C6  <0> d           3.728  -0.614  -0.038  0.00  0.00    -0.029 A 
ATOM     10  H1  <0> d           1.116  -1.761  -0.018  0.00  0.00     0.116 H 
ATOM     11  H4  <0> d           5.470   0.322  -0.948  0.00  0.00     0.050 H 
ATOM     12  H5  <0> d           5.488   0.312   0.847  0.00  0.00     0.050 H 
ATOM     13  H6  <0> d           3.837  -1.249   0.841  0.00  0.00     0.041 H 
ATOM     14  H7  <0> d           3.818  -1.240  -0.926  0.00  0.00     0.041 H 
ENDROOT
BRANCH   5  15
ATOM     15  N3  <0> d          -1.227   1.990   0.019  0.00  0.00    -0.231 N 
ATOM     16  H2  <0> d          -2.058   1.489   0.020  0.00  0.00     0.174 HD
ATOM     17  H3  <0> d          -1.246   2.960   0.024  0.00  0.00     0.174 HD
ENDBRANCH   5  15
TORSDOF 1
