REMARK  5 active torsions:
REMARK  status: ('A' for Active; 'I' for Inactive)
REMARK    1  A    between atoms: C1_1  and  C2_2 
REMARK    2  A    between atoms: C2_2  and  O1_3 
REMARK    3  A    between atoms: O1_3  and  C3_4 
REMARK    4  A    between atoms: C3_4  and  C4_6 
REMARK    5  A    between atoms: C6_8  and  C8_11 
ROOT
ATOM      1  C4  <0> d           1.500  -2.373   2.473  0.00  0.00     0.064 A 
ATOM      2  C5  <0> d           1.715  -3.794   2.784  0.00  0.00    -0.037 A 
ATOM      3  C6  <0> d           2.395  -3.820   3.940  0.00  0.00     0.049 A 
ATOM      4  O3  <0> d           2.610  -2.561   4.353  0.00  0.00    -0.326 OA
ATOM      5  C7  <0> d           2.090  -1.681   3.491  0.00  0.00     0.035 A 
ATOM      6  H6  <0> d           1.390  -4.643   2.202  0.00  0.00     0.088 H 
ATOM      7  H7  <0> d           2.128  -0.606   3.586  0.00  0.00     0.125 H 
ENDROOT
BRANCH   1   8
ATOM      8  C3  <0> d           0.801  -1.813   1.304  0.00  0.00     0.295 C 
ATOM      9  O2  <0> d           0.321  -2.555   0.470  0.00  0.00    -0.259 OA
BRANCH   8  10
ATOM     10  O1  <0> d           0.693  -0.477   1.160  0.00  0.00    -0.318 OA
BRANCH  10  11
ATOM     11  C2  <0> d           0.002  -0.004   0.002  0.00  0.00     0.026 C 
ATOM     12  H4  <0> d          -1.020  -0.381   0.010  0.00  0.00     0.074 H 
ATOM     13  H5  <0> d           0.512  -0.356  -0.895  0.00  0.00     0.074 H 
BRANCH  11  14
ATOM     14  C1  <0> d          -0.019   1.526   0.010  0.00  0.00    -0.056 C 
ATOM     15  H1  <0> d           1.004   1.903   0.003  0.00  0.00     0.030 H 
ATOM     16  H2  <0> d          -0.546   1.887  -0.873  0.00  0.00     0.030 H 
ATOM     17  H3  <0> d          -0.529   1.877   0.907  0.00  0.00     0.030 H 
ENDBRANCH  11  14
ENDBRANCH  10  11
ENDBRANCH   8  10
ENDBRANCH   1   8
BRANCH   3  18
ATOM     18  C8  <0> d           2.845  -5.064   4.661  0.00  0.00    -0.031 C 
ATOM     19  H8  <0> d           3.840  -5.345   4.314  0.00  0.00     0.036 H 
ATOM     20  H9  <0> d           2.876  -4.872   5.734  0.00  0.00     0.036 H 
ATOM     21  H10 <0> d           2.147  -5.875   4.457  0.00  0.00     0.036 H 
ENDBRANCH   3  18
TORSDOF 5
