REMARK  3 active torsions:
REMARK  status: ('A' for Active; 'I' for Inactive)
REMARK    1  A    between atoms: C1_1  and  C2_2 
REMARK    2  A    between atoms: C2_2  and  C3_4 
REMARK    3  A    between atoms: C2_2  and  O1_10 
ROOT
ATOM      1  C3  <0> d          -0.013   1.086   0.008  0.00  0.00    -0.029 C 
ATOM      2  C4  <0> d          -0.729   1.579   1.267  0.00  0.00    -0.059 C 
ATOM      3  C5  <0> d          -2.164   1.050   1.278  0.00  0.00    -0.065 C 
ATOM      4  C6  <0> d          -2.904   1.556   0.038  0.00  0.00    -0.065 C 
ATOM      5  C7  <0> d          -2.188   1.063  -1.221  0.00  0.00    -0.065 C 
ATOM      6  C8  <0> d          -0.753   1.593  -1.232  0.00  0.00    -0.059 C 
ATOM      7  H5  <0> d           0.002  -0.014   0.002  0.00  0.00     0.043 H 
ATOM      8  H6  <0> d          -0.197   1.215   2.158  0.00  0.00     0.033 H 
ATOM      9  H7  <0> d          -0.744   2.679   1.273  0.00  0.00     0.033 H 
ATOM     10  H8  <0> d          -2.149  -0.050   1.272  0.00  0.00     0.033 H 
ATOM     11  H9  <0> d          -2.679   1.405   2.183  0.00  0.00     0.033 H 
ATOM     12  H10 <0> d          -3.936   1.176   0.046  0.00  0.00     0.033 H 
ATOM     13  H11 <0> d          -2.919   2.656   0.044  0.00  0.00     0.033 H 
ATOM     14  H12 <0> d          -2.173  -0.037  -1.227  0.00  0.00     0.033 H 
ATOM     15  H13 <0> d          -2.720   1.427  -2.112  0.00  0.00     0.033 H 
ATOM     16  H14 <0> d          -0.768   2.693  -1.225  0.00  0.00     0.033 H 
ATOM     17  H15 <0> d          -0.238   1.238  -2.137  0.00  0.00     0.033 H 
ENDROOT
BRANCH   1  18
ATOM     18  C2  <0> d           1.423   1.615  -0.003  0.00  0.00     0.035 C 
ATOM     19  H1  <0> d           1.442   2.714  -0.058  0.00  0.00     0.082 H 
BRANCH  18  20
ATOM     20  C1  <0> d           2.163   1.109   1.237  0.00  0.00    -0.052 C 
ATOM     21  H2  <0> d           3.195   1.489   1.229  0.00  0.00     0.030 H 
ATOM     22  H3  <0> d           2.178   0.009   1.231  0.00  0.00     0.030 H 
ATOM     23  H4  <0> d           1.648   1.463   2.142  0.00  0.00     0.030 H 
ENDBRANCH  18  20
BRANCH  18  24
ATOM     24  O1  <0> d           2.091   1.155  -1.179  0.00  0.00    -0.396 OA
ATOM     25  H16 <0> d           1.702   1.421  -2.173  0.00  0.00     0.210 HD
ENDBRANCH  18  24
ENDBRANCH   1  18
TORSDOF 3
