REMARK  1 active torsions:
REMARK  status: ('A' for Active; 'I' for Inactive)
REMARK    1  A    between atoms: C6_6  and  O1_7 
ROOT
ATOM      1  C1  <0> d           1.862   1.822   1.197  0.00  0.00    -0.048 A 
ATOM      2  C2  <0> d           3.119   2.396   1.197  0.00  0.00    -0.042 A 
ATOM      3  C3  <0> d           3.745   2.697   0.002  0.00  0.00     0.137 A 
ATOM      4  C4  <0> d           3.107   2.414  -1.211  0.00  0.00     0.085 A 
ATOM      5  C5  <0> d           1.839   1.829  -1.205  0.00  0.00    -0.028 A 
ATOM      6  C6  <0> d           1.223   1.533  -0.001  0.00  0.00     0.067 A 
ATOM      7  C7  <0> d           3.751   2.723  -2.452  0.00  0.00     0.102 C 
ATOM      8  N1  <0> d           4.261   2.968  -3.437  0.00  0.00    -0.191 NA
ATOM      9  F1  <0> d           4.972   3.262   0.004  0.00  0.00    -0.204 F 
ATOM     10  H1  <0> d           1.375   1.593   2.134  0.00  0.00     0.087 H 
ATOM     11  H2  <0> d           3.612   2.614   2.132  0.00  0.00     0.088 H 
ATOM     12  H3  <0> d           1.340   1.608  -2.137  0.00  0.00     0.090 H 
ENDROOT
BRANCH   6  13
ATOM     13  O1  <0> d          -0.011   0.963   0.007  0.00  0.00    -0.361 OA
ATOM     14  H4  <0> d          -0.517   0.733  -0.942  0.00  0.00     0.217 HD
ENDBRANCH   6  13
TORSDOF 1
