REMARK  0 active torsions:
REMARK  status: ('A' for Active; 'I' for Inactive)
ROOT
ATOM      1  C1  <0> d          -0.018   1.495   0.010  0.00  0.00    -0.049 C 
ATOM      2  C2  <0> d           1.409   2.050  -0.000  0.00  0.00    -0.051 C 
ATOM      3  C3  <0> d           2.204   1.312  -1.076  0.00  0.00     0.006 C 
ATOM      4  C4  <0> d           2.341  -0.177  -0.776  0.00  0.00    -0.039 C 
ATOM      5  C5  <0> d           1.013  -0.732  -0.343  0.00  0.00    -0.106 C 
ATOM      6  C6  <0> d           0.002  -0.004   0.002  0.00  0.00    -0.106 C 
ATOM      7  C7  <0> d           1.745   1.620  -2.507  0.00  0.00     0.029 C 
ATOM      8  O1  <0> d           2.751   2.654  -2.481  0.00  0.00    -0.389 OA
ATOM      9  C8  <0> d           3.523   1.998  -1.453  0.00  0.00     0.029 C 
ATOM     10  H1  <0> d          -0.534   1.843   0.905  0.00  0.00     0.038 H 
ATOM     11  H2  <0> d          -0.551   1.853  -0.871  0.00  0.00     0.038 H 
ATOM     12  H3  <0> d           1.387   3.116  -0.227  0.00  0.00     0.034 H 
ATOM     13  H4  <0> d           1.872   1.890   0.973  0.00  0.00     0.034 H 
ATOM     14  H5  <0> d           2.677  -0.698  -1.672  0.00  0.00     0.040 H 
ATOM     15  H6  <0> d           3.071  -0.320   0.021  0.00  0.00     0.040 H 
ATOM     16  H7  <0> d           0.897  -1.805  -0.319  0.00  0.00     0.076 H 
ATOM     17  H8  <0> d          -0.898  -0.516   0.308  0.00  0.00     0.076 H 
ATOM     18  H9  <0> d           1.952   0.821  -3.219  0.00  0.00     0.075 H 
ATOM     19  H10 <0> d           0.725   1.998  -2.571  0.00  0.00     0.075 H 
ATOM     20  H11 <0> d           3.904   2.674  -0.688  0.00  0.00     0.075 H 
ATOM     21  H12 <0> d           4.281   1.316  -1.838  0.00  0.00     0.075 H 
ENDROOT
TORSDOF 0
