REMARK  2 active torsions:
REMARK  status: ('A' for Active; 'I' for Inactive)
REMARK    1  A    between atoms: C3_3  and  C4_4 
REMARK    2  A    between atoms: C4_4  and  N2_8 
ROOT
ATOM      1  C4  <0> d          -0.384  -0.723   1.296  0.00  0.00     0.215 C 
ATOM      2  H1  <0> d           0.300  -0.430   2.092  0.00  0.00     0.112 H 
ATOM      3  C5  <0> d          -1.759  -0.355   1.671  0.00  0.00     0.095 C 
ATOM      4  N1  <0> d          -2.820  -0.070   1.960  0.00  0.00    -0.195 NA
ENDROOT
BRANCH   1   5
ATOM      5  C3  <0> d           0.002  -0.004   0.002  0.00  0.00    -0.012 A 
ATOM      6  C1  <0> d          -0.019   1.526   0.010  0.00  0.00    -0.058 A 
ATOM      7  C2  <0> d           1.317   0.779  -0.006  0.00  0.00    -0.058 A 
ATOM      8  H2  <0> d          -0.307   2.020   0.938  0.00  0.00     0.033 H 
ATOM      9  H3  <0> d          -0.325   2.030  -0.906  0.00  0.00     0.033 H 
ATOM     10  H4  <0> d           1.889   0.792  -0.934  0.00  0.00     0.033 H 
ATOM     11  H5  <0> d           1.906   0.782   0.910  0.00  0.00     0.033 H 
ATOM     12  H6  <0> d          -0.290  -0.506  -0.920  0.00  0.00     0.044 H 
ENDBRANCH   1   5
BRANCH   1  13
ATOM     13  N2  <0> d          -0.304  -2.175   1.092  0.00  0.00     0.096 N 
ATOM     14  H7  <0> d          -0.930  -2.472   0.358  0.00  0.00     0.314 HD
ATOM     15  H8  <0> d           0.643  -2.462   0.897  0.00  0.00     0.314 HD
ENDBRANCH   1  13
TORSDOF 2
