REMARK  3 active torsions:
REMARK  status: ('A' for Active; 'I' for Inactive)
REMARK    1  A    between atoms: C1_1  and  C2_2 
REMARK    2  A    between atoms: C4_4  and  C7_9 
REMARK    3  A    between atoms: C5_5  and  C6_8 
ROOT
ATOM      1  C2  <0> d           0.625   5.228   0.023  0.00  0.00     0.006 A 
ATOM      2  C3  <0> d           0.102   3.989   0.016  0.00  0.00    -0.043 A 
ATOM      3  C4  <0> d           1.238   3.061   0.007  0.00  0.00     0.064 A 
ATOM      4  C5  <0> d           2.370   3.848   0.000  0.00  0.00     0.022 A 
ATOM      5  N1  <0> d           1.986   5.138   0.010  0.00  0.00    -0.363 N 
ATOM      6  H1  <0> d           2.591   5.896   0.008  0.00  0.00     0.165 HD
ATOM      7  H5  <0> d          -0.946   3.729   0.019  0.00  0.00     0.088 H 
ENDROOT
BRANCH   1   8
ATOM      8  C1  <0> d          -0.167   6.511   0.037  0.00  0.00    -0.037 C 
ATOM      9  H2  <0> d          -0.367   6.825  -0.988  0.00  0.00     0.035 H 
ATOM     10  H3  <0> d          -1.110   6.350   0.558  0.00  0.00     0.035 H 
ATOM     11  H4  <0> d           0.405   7.284   0.549  0.00  0.00     0.035 H 
ENDBRANCH   1   8
BRANCH   4  12
ATOM     12  C6  <0> d           3.793   3.350  -0.015  0.00  0.00    -0.036 C 
ATOM     13  H6  <0> d           4.126   3.235  -1.047  0.00  0.00     0.035 H 
ATOM     14  H7  <0> d           4.434   4.067   0.496  0.00  0.00     0.035 H 
ATOM     15  H8  <0> d           3.846   2.387   0.493  0.00  0.00     0.035 H 
ENDBRANCH   4  12
BRANCH   3  16
ATOM     16  C7  <0> d           1.181   1.591  -0.001  0.00  0.00     0.211 C 
ATOM     17  O1  <0> d           2.210   0.943  -0.014  0.00  0.00    -0.644 OA
ATOM     18  O2  <0> d          -0.011   0.963   0.007  0.00  0.00    -0.644 OA
ENDBRANCH   3  16
TORSDOF 3
