REMARK  2 active torsions:
REMARK  status: ('A' for Active; 'I' for Inactive)
REMARK    1  A    between atoms: C1_1  and  N1_2 
REMARK    2  A    between atoms: N1_2  and  C2_3 
ROOT
ATOM      1  C2  <0> d          -2.016   1.205   1.443  0.00  0.00     0.078 A 
ATOM      2  C3  <0> d          -2.611   0.407   0.478  0.00  0.00    -0.054 A 
ATOM      3  C4  <0> d          -3.905  -0.099   0.455  0.00  0.00    -0.081 A 
ATOM      4  C5  <0> d          -4.926   0.071   1.367  0.00  0.00    -0.083 A 
ATOM      5  C6  <0> d          -4.938   0.787   2.558  0.00  0.00    -0.079 A 
ATOM      6  C7  <0> d          -3.926   1.519   3.143  0.00  0.00    -0.032 A 
ATOM      7  C8  <0> d          -2.618   1.724   2.673  0.00  0.00     0.198 A 
ATOM      8  O1  <0> d          -1.895   2.418   3.375  0.00  0.00    -0.286 OA
ATOM      9  H5  <0> d          -1.986   0.138  -0.360  0.00  0.00     0.087 H 
ATOM     10  H6  <0> d          -4.148  -0.709  -0.403  0.00  0.00     0.083 H 
ATOM     11  H7  <0> d          -5.852  -0.426   1.119  0.00  0.00     0.083 H 
ATOM     12  H8  <0> d          -5.870   0.768   3.103  0.00  0.00     0.083 H 
ATOM     13  H9  <0> d          -4.170   1.995   4.081  0.00  0.00     0.089 H 
ENDROOT
BRANCH   1  14
ATOM     14  N1  <0> d          -0.698   1.558   1.213  0.00  0.00    -0.391 N 
ATOM     15  H4  <0> d          -0.229   2.119   1.850  0.00  0.00     0.159 HD
BRANCH  14  16
ATOM     16  C1  <0> d          -0.013   1.086   0.008  0.00  0.00    -0.021 C 
ATOM     17  H1  <0> d           0.002  -0.004   0.002  0.00  0.00     0.056 H 
ATOM     18  H2  <0> d           1.010   1.463   0.000  0.00  0.00     0.056 H 
ATOM     19  H3  <0> d          -0.540   1.447  -0.875  0.00  0.00     0.056 H 
ENDBRANCH  14  16
ENDBRANCH   1  14
TORSDOF 2
