REMARK  2 active torsions:
REMARK  status: ('A' for Active; 'I' for Inactive)
REMARK    1  A    between atoms: C2_2  and  C3_3 
REMARK    2  A    between atoms: C7_7  and  C9_9 
ROOT
ATOM      1  C1  <0> d           0.018  -1.178  -0.004  0.00  0.00    -0.149 C 
ATOM      2  C2  <0> d           0.002  -0.004   0.002  0.00  0.00    -0.078 C 
ATOM      3  H1  <0> d           0.032  -2.228  -0.010  0.00  0.00     0.166 H 
ENDROOT
BRANCH   2   4
ATOM      4  C3  <0> d          -0.017   1.428   0.010  0.00  0.00     0.018 A 
ATOM      5  C8  <0> d           1.179   2.142   0.002  0.00  0.00    -0.047 A 
ATOM      6  C7  <0> d           1.151   3.535   0.004  0.00  0.00     0.018 A 
ATOM      7  H5  <0> d           2.123   1.619  -0.009  0.00  0.00     0.087 H 
ATOM      8  C6  <0> d          -0.074   4.206   0.025  0.00  0.00    -0.065 A 
ATOM      9  C5  <0> d          -1.255   3.491   0.038  0.00  0.00    -0.080 A 
ATOM     10  H4  <0> d          -0.097   5.285   0.030  0.00  0.00     0.085 H 
ATOM     11  C4  <0> d          -1.235   2.111   0.031  0.00  0.00    -0.065 A 
ATOM     12  H3  <0> d          -2.200   4.015   0.054  0.00  0.00     0.083 H 
ATOM     13  H2  <0> d          -2.163   1.558   0.041  0.00  0.00     0.085 H 
BRANCH   6  14
ATOM     14  C9  <0> d           2.375   4.277  -0.010  0.00  0.00    -0.078 C 
ATOM     15  C10 <0> d           3.379   4.886  -0.022  0.00  0.00    -0.149 C 
ATOM     16  H6  <0> d           4.277   5.430  -0.032  0.00  0.00     0.166 H 
ENDBRANCH   6  14
ENDBRANCH   2   4
TORSDOF 2
