REMARK  4 active torsions:
REMARK  status: ('A' for Active; 'I' for Inactive)
REMARK    1  A    between atoms: C1_1  and  C2_2 
REMARK    2  A    between atoms: C2_2  and  C3_3 
REMARK    3  A    between atoms: C2_2  and  N1_4 
REMARK    4  A    between atoms: N1_4  and  C4_5 
ROOT
ATOM      1  N1  <0> d          -1.372  -0.511   0.012  0.00  0.00    -0.219 N 
ATOM      2  H8  <0> d          -2.087   0.033   0.377  0.00  0.00     0.178 HD
ENDROOT
BRANCH   1   3
ATOM      3  C2  <0> d           0.002  -0.004   0.002  0.00  0.00     0.019 C 
ATOM      4  H4  <0> d           0.512  -0.356  -0.895  0.00  0.00     0.072 H 
BRANCH   3   5
ATOM      5  C1  <0> d          -0.019   1.526   0.010  0.00  0.00    -0.057 C 
ATOM      6  H1  <0> d           1.004   1.903   0.003  0.00  0.00     0.030 H 
ATOM      7  H2  <0> d          -0.546   1.887  -0.873  0.00  0.00     0.030 H 
ATOM      8  H3  <0> d          -0.529   1.877   0.907  0.00  0.00     0.030 H 
ENDBRANCH   3   5
BRANCH   3   9
ATOM      9  C3  <0> d           0.742  -0.511   1.242  0.00  0.00    -0.057 C 
ATOM     10  H5  <0> d           1.765  -0.134   1.234  0.00  0.00     0.030 H 
ATOM     11  H6  <0> d           0.232  -0.159   2.138  0.00  0.00     0.030 H 
ATOM     12  H7  <0> d           0.757  -1.601   1.236  0.00  0.00     0.030 H 
ENDBRANCH   3   9
ENDBRANCH   1   3
BRANCH   1  13
ATOM     13  C4  <0> d          -1.651  -1.767  -0.498  0.00  0.00     0.722 A 
ATOM     14  N3  <0> d          -2.899  -2.210  -0.481  0.00  0.00    -0.075 NA
ATOM     15  C7  <0> d          -3.199  -3.404  -0.966  0.00  0.00     0.022 A 
ATOM     16  C6  <0> d          -2.188  -4.197  -1.485  0.00  0.00    -0.048 A 
ATOM     17  H11 <0> d          -4.220  -3.758  -0.953  0.00  0.00     0.115 H 
ATOM     18  C5  <0> d          -0.893  -3.704  -1.483  0.00  0.00     0.022 A 
ATOM     19  H10 <0> d          -2.405  -5.177  -1.884  0.00  0.00     0.087 H 
ATOM     20  N2  <0> d          -0.661  -2.500  -0.988  0.00  0.00    -0.075 NA
ATOM     21  H9  <0> d          -0.082  -4.297  -1.881  0.00  0.00     0.115 H 
ENDBRANCH   1  13
TORSDOF 4
