REMARK  0 active torsions:
REMARK  status: ('A' for Active; 'I' for Inactive)
ROOT
ATOM      1  C1  <0> d           0.002  -0.004   0.002  0.00  0.00    -0.054 A 
ATOM      2  C2  <0> d          -0.016   1.359   0.009  0.00  0.00     0.003 A 
ATOM      3  N1  <0> d           1.098   2.076   0.003  0.00  0.00    -0.272 NA
ATOM      4  C3  <0> d           2.294   1.533  -0.012  0.00  0.00     0.013 A 
ATOM      5  C4  <0> d           2.423   0.137  -0.020  0.00  0.00    -0.006 A 
ATOM      6  C5  <0> d           1.245  -0.658  -0.013  0.00  0.00    -0.006 A 
ATOM      7  C6  <0> d           1.374  -2.054  -0.023  0.00  0.00     0.013 A 
ATOM      8  N2  <0> d           2.569  -2.598  -0.037  0.00  0.00    -0.272 NA
ATOM      9  C7  <0> d           3.684  -1.880  -0.043  0.00  0.00     0.003 A 
ATOM     10  C8  <0> d           3.665  -0.517  -0.036  0.00  0.00    -0.054 A 
ATOM     11  H1  <0> d          -0.919  -0.569   0.008  0.00  0.00     0.087 H 
ATOM     12  H2  <0> d          -0.968   1.870   0.017  0.00  0.00     0.114 H 
ATOM     13  H3  <0> d           3.174   2.159  -0.017  0.00  0.00     0.116 H 
ATOM     14  H4  <0> d           0.493  -2.680  -0.017  0.00  0.00     0.116 H 
ATOM     15  H5  <0> d           4.635  -2.391  -0.056  0.00  0.00     0.114 H 
ATOM     16  H6  <0> d           4.586   0.047  -0.042  0.00  0.00     0.087 H 
ENDROOT
TORSDOF 0
