REMARK  0 active torsions:
REMARK  status: ('A' for Active; 'I' for Inactive)
ROOT
ATOM      1  C1  <0> d           1.300   2.080   0.001  0.00  0.00    -0.053 A 
ATOM      2  C2  <0> d          -0.022   1.781   0.012  0.00  0.00    -0.042 A 
ATOM      3  S1  <0> d           0.002  -0.004   0.002  0.00  0.00    -0.088 SA
ATOM      4  C3  <0> d           1.773  -0.232  -0.016  0.00  0.00     0.096 A 
ATOM      5  C4  <0> d           2.221   1.048  -0.013  0.00  0.00     0.063 A 
ATOM      6 Cl1  <0> d           3.924   1.387  -0.029  0.00  0.00    -0.082 Cl
ATOM      7 Cl2  <0> d           2.684  -1.710  -0.033  0.00  0.00    -0.074 Cl
ATOM      8  H1  <0> d           1.629   3.109   0.003  0.00  0.00     0.086 H 
ATOM      9  H2  <0> d          -0.870   2.449   0.020  0.00  0.00     0.095 H 
ENDROOT
TORSDOF 0
