REMARK  4 active torsions:
REMARK  status: ('A' for Active; 'I' for Inactive)
REMARK    1  A    between atoms: C1_1  and  C2_2 
REMARK    2  A    between atoms: C3_5  and  S1_8 
REMARK    3  A    between atoms: N3_6  and  C4_7 
REMARK    4  A    between atoms: S1_8  and  C5_9 
ROOT
ATOM      1  C2  <0> d           0.563   3.856   0.017  0.00  0.00     0.126 A 
ATOM      2  N1  <0> d          -0.737   3.760   0.029  0.00  0.00    -0.134 NA
ATOM      3  N2  <0> d          -1.088   2.524   0.020  0.00  0.00    -0.123 NA
ATOM      4  C3  <0> d          -0.022   1.758   0.012  0.00  0.00     0.190 A 
ATOM      5  N3  <0> d           1.065   2.584   0.006  0.00  0.00    -0.316 N 
ENDROOT
BRANCH   4   6
ATOM      6  S1  <0> d           0.002  -0.004   0.002  0.00  0.00    -0.095 SA
BRANCH   6   7
ATOM      7  C5  <0> d          -1.776  -0.343   0.017  0.00  0.00    -0.027 C 
ATOM      8  H7  <0> d          -1.941  -1.420   0.013  0.00  0.00     0.042 H 
ATOM      9  H8  <0> d          -2.220   0.089   0.914  0.00  0.00     0.042 H 
ATOM     10  H9  <0> d          -2.237   0.099  -0.866  0.00  0.00     0.042 H 
ENDBRANCH   6   7
ENDBRANCH   4   6
BRANCH   5  11
ATOM     11  C4  <0> d           2.476   2.191  -0.009  0.00  0.00    -0.011 C 
ATOM     12  H4  <0> d           2.817   2.098  -1.040  0.00  0.00     0.057 H 
ATOM     13  H5  <0> d           3.070   2.947   0.503  0.00  0.00     0.057 H 
ATOM     14  H6  <0> d           2.591   1.233   0.499  0.00  0.00     0.057 H 
ENDBRANCH   5  11
BRANCH   1  15
ATOM     15  C1  <0> d           1.364   5.133   0.015  0.00  0.00    -0.019 C 
ATOM     16  H1  <0> d           1.547   5.446  -1.012  0.00  0.00     0.037 H 
ATOM     17  H2  <0> d           0.808   5.911   0.538  0.00  0.00     0.037 H 
ATOM     18  H3  <0> d           2.316   4.965   0.519  0.00  0.00     0.037 H 
ENDBRANCH   1  15
TORSDOF 4
