REMARK  3 active torsions:
REMARK  status: ('A' for Active; 'I' for Inactive)
REMARK    1  A    between atoms: N1_3  and  C4_7 
REMARK    2  A    between atoms: C3_5  and  N3_6 
REMARK    3  A    between atoms: C4_7  and  C5_8 
ROOT
ATOM      1  C4  <0> d           1.472   4.362   0.011  0.00  0.00     0.020 C 
ATOM      2  H5  <0> d           1.334   4.904   0.947  0.00  0.00     0.068 H 
ATOM      3  H6  <0> d           2.518   4.073  -0.090  0.00  0.00     0.068 H 
ENDROOT
BRANCH   1   4
ATOM      4  N1  <0> d           0.631   3.163   0.013  0.00  0.00    -0.279 N 
ATOM      5  C2  <0> d           1.070   1.887   0.002  0.00  0.00     0.002 A 
ATOM      6  C1  <0> d          -0.013   1.076   0.008  0.00  0.00    -0.021 A 
ATOM      7  H2  <0> d           2.102   1.570  -0.010  0.00  0.00     0.114 H 
ATOM      8  C3  <0> d          -1.159   1.887   0.017  0.00  0.00     0.142 A 
ATOM      9  H1  <0> d           0.002  -0.004   0.002  0.00  0.00     0.091 H 
ATOM     10  N2  <0> d          -0.770   3.140   0.026  0.00  0.00    -0.155 NA
BRANCH   8  11
ATOM     11  N3  <0> d          -2.485   1.438   0.019  0.00  0.00    -0.383 N 
ATOM     12  H3  <0> d          -2.674   0.486   0.015  0.00  0.00     0.157 HD
ATOM     13  H4  <0> d          -3.213   2.077   0.026  0.00  0.00     0.157 HD
ENDBRANCH   8  11
ENDBRANCH   1   4
BRANCH   1  14
ATOM     14  C5  <0> d           1.076   5.261  -1.162  0.00  0.00    -0.037 A 
ATOM     15  C7  <0> d           1.763   6.624  -1.271  0.00  0.00    -0.060 A 
ATOM     16  C6  <0> d           2.123   5.504  -2.251  0.00  0.00    -0.060 A 
ATOM     17  H10 <0> d           1.172   7.456  -1.654  0.00  0.00     0.033 H 
ATOM     18  H11 <0> d           2.497   6.880  -0.508  0.00  0.00     0.033 H 
ATOM     19  H8  <0> d           3.094   5.024  -2.132  0.00  0.00     0.033 H 
ATOM     20  H9  <0> d           1.768   5.600  -3.277  0.00  0.00     0.033 H 
ATOM     21  H7  <0> d           0.033   5.197  -1.472  0.00  0.00     0.042 H 
ENDBRANCH   1  14
TORSDOF 3
