REMARK  3 active torsions:
REMARK  status: ('A' for Active; 'I' for Inactive)
REMARK    1  A    between atoms: C5_6  and  C6_7 
REMARK    2  A    between atoms: C6_7  and  C7_8 
REMARK    3  A    between atoms: C7_8  and  O2_9 
ROOT
ATOM      1  C1  <0> d          -0.632   3.106   1.346  0.00  0.00    -0.042 C 
ATOM      2  C2  <0> d          -1.282   3.584   2.647  0.00  0.00     0.020 C 
ATOM      3  O1  <0> d          -0.638   2.957   3.758  0.00  0.00    -0.391 OA
ATOM      4  C3  <0> d          -0.736   1.532   3.762  0.00  0.00     0.020 C 
ATOM      5  C4  <0> d          -0.064   0.972   2.506  0.00  0.00    -0.042 C 
ATOM      6  C5  <0> d          -0.729   1.579   1.267  0.00  0.00    -0.049 C 
ATOM      7  H1  <0> d           0.415   3.406   1.331  0.00  0.00     0.036 H 
ATOM      8  H2  <0> d          -1.151   3.548   0.496  0.00  0.00     0.036 H 
ATOM      9  H3  <0> d          -2.340   3.319   2.644  0.00  0.00     0.074 H 
ATOM     10  H4  <0> d          -1.179   4.666   2.729  0.00  0.00     0.074 H 
ATOM     11  H5  <0> d          -1.786   1.240   3.774  0.00  0.00     0.074 H 
ATOM     12  H6  <0> d          -0.239   1.135   4.648  0.00  0.00     0.074 H 
ATOM     13  H7  <0> d          -0.177  -0.112   2.485  0.00  0.00     0.036 H 
ATOM     14  H8  <0> d           0.995   1.228   2.514  0.00  0.00     0.036 H 
ATOM     15  H9  <0> d          -1.776   1.280   1.231  0.00  0.00     0.040 H 
ENDROOT
BRANCH   6  16
ATOM     16  C6  <0> d          -0.013   1.086   0.008  0.00  0.00    -0.042 C 
ATOM     17  H10 <0> d           0.002  -0.004   0.002  0.00  0.00     0.036 H 
ATOM     18  H11 <0> d           1.010   1.463   0.000  0.00  0.00     0.036 H 
BRANCH  16  19
ATOM     19  C7  <0> d          -0.753   1.593  -1.232  0.00  0.00     0.017 C 
ATOM     20  H12 <0> d          -1.775   1.215  -1.224  0.00  0.00     0.073 H 
ATOM     21  H13 <0> d          -0.767   2.683  -1.226  0.00  0.00     0.073 H 
BRANCH  19  22
ATOM     22  O2  <0> d          -0.084   1.132  -2.407  0.00  0.00    -0.401 OA
ATOM     23  H14 <0> d          -0.499   1.416  -3.233  0.00  0.00     0.209 HD
ENDBRANCH  19  22
ENDBRANCH  16  19
ENDBRANCH   6  16
TORSDOF 3
