REMARK  2 active torsions:
REMARK  status: ('A' for Active; 'I' for Inactive)
REMARK    1  A    between atoms: C1_1  and  C2_2 
REMARK    2  A    between atoms: C2_2  and  C3_4 
ROOT
ATOM      1  C3  <0> d          -1.307   2.224   0.020  0.00  0.00     0.152 A 
ATOM      2  C4  <0> d          -1.519   3.687   0.035  0.00  0.00     0.103 A 
ATOM      3  C5  <0> d          -2.886   3.798   0.037  0.00  0.00     0.066 A 
ATOM      4  O2  <0> d          -3.369   2.552   0.033  0.00  0.00    -0.224 OA
ATOM      5  N1  <0> d          -2.510   1.705   0.024  0.00  0.00    -0.124 NA
ATOM      6  C6  <0> d          -0.539   4.731   0.043  0.00  0.00     0.104 C 
ATOM      7  N2  <0> d           0.239   5.559   0.050  0.00  0.00    -0.191 NA
ATOM      8  H4  <0> d          -3.459   4.713   0.045  0.00  0.00     0.129 H 
ENDROOT
BRANCH   1   9
ATOM      9  C2  <0> d          -0.018   1.503   0.010  0.00  0.00     0.177 C 
ATOM     10  O1  <0> d           1.020   2.121   0.004  0.00  0.00    -0.291 OA
BRANCH   9  11
ATOM     11  C1  <0> d           0.002  -0.004   0.002  0.00  0.00    -0.015 C 
ATOM     12  H1  <0> d           0.949  -0.325  -0.009  0.00  0.00     0.038 H 
ATOM     13  H2  <0> d          -0.498  -0.379   0.895  0.00  0.00     0.038 H 
ATOM     14  H3  <0> d          -0.515  -0.370  -0.885  0.00  0.00     0.038 H 
ENDBRANCH   9  11
ENDBRANCH   1   9
TORSDOF 2
