REMARK  3 active torsions:
REMARK  status: ('A' for Active; 'I' for Inactive)
REMARK    1  A    between atoms: C1_1  and  C2_2 
REMARK    2  A    between atoms: C2_2  and  C3_4 
REMARK    3  A    between atoms: C2_2  and  O1_10 
ROOT
ATOM      1  C3  <0> d           0.731  -0.503   1.223  0.00  0.00     0.037 A 
ATOM      2  C4  <0> d           2.066  -0.654   1.340  0.00  0.00    -0.057 A 
ATOM      3  C5  <0> d           2.323  -1.142   2.636  0.00  0.00    -0.066 A 
ATOM      4  C6  <0> d           1.135  -1.271   3.262  0.00  0.00    -0.023 A 
ATOM      5  N1  <0> d           0.155  -0.875   2.401  0.00  0.00    -0.367 N 
ATOM      6  H2  <0> d          -0.796  -0.862   2.595  0.00  0.00     0.165 HD
ATOM      7  H6  <0> d           2.803  -0.440   0.580  0.00  0.00     0.086 H 
ATOM      8  H7  <0> d           3.293  -1.371   3.053  0.00  0.00     0.085 H 
ATOM      9  H8  <0> d           0.987  -1.623   4.272  0.00  0.00     0.111 H 
ENDROOT
BRANCH   1  10
ATOM     10  C2  <0> d           0.002  -0.004   0.002  0.00  0.00     0.072 C 
ATOM     11  H1  <0> d           0.512  -0.356  -0.895  0.00  0.00     0.092 H 
BRANCH  10  12
ATOM     12  C1  <0> d          -0.019   1.526   0.010  0.00  0.00    -0.047 C 
ATOM     13  H3  <0> d           1.004   1.903   0.003  0.00  0.00     0.031 H 
ATOM     14  H4  <0> d          -0.546   1.887  -0.873  0.00  0.00     0.031 H 
ATOM     15  H5  <0> d          -0.529   1.877   0.907  0.00  0.00     0.031 H 
ENDBRANCH  10  12
BRANCH  10  16
ATOM     16  O1  <0> d          -1.339  -0.499   0.012  0.00  0.00    -0.390 OA
ATOM     17  H9  <0> d          -1.868  -0.216  -0.746  0.00  0.00     0.210 HD
ENDBRANCH  10  16
ENDBRANCH   1  10
TORSDOF 3
