REMARK  1 active torsions:
REMARK  status: ('A' for Active; 'I' for Inactive)
REMARK    1  A    between atoms: C1_1  and  C2_2 
ROOT
ATOM      1  C2  <0> d           1.174   1.780   0.000  0.00  0.00    -0.041 A 
ATOM      2  C3  <0> d          -0.013   1.076   0.008  0.00  0.00    -0.074 A 
ATOM      3  C4  <0> d          -1.221   1.749   0.017  0.00  0.00    -0.061 A 
ATOM      4  C5  <0> d          -1.248   3.134   0.030  0.00  0.00     0.035 A 
ATOM      5  C6  <0> d          -0.069   3.851   0.022  0.00  0.00    -0.041 A 
ATOM      6  C7  <0> d           1.154   3.176   0.008  0.00  0.00     0.052 A 
ATOM      7  C8  <0> d           2.382   3.913   0.000  0.00  0.00     0.100 C 
ATOM      8  N1  <0> d           3.356   4.497  -0.005  0.00  0.00    -0.191 NA
ATOM      9 Cl1  <0> d          -2.770   3.970   0.048  0.00  0.00    -0.084 Cl
ATOM     10  H4  <0> d           0.002  -0.004   0.002  0.00  0.00     0.084 H 
ATOM     11  H5  <0> d          -2.146   1.193   0.019  0.00  0.00     0.086 H 
ATOM     12  H6  <0> d          -0.091   4.931   0.028  0.00  0.00     0.088 H 
ENDROOT
BRANCH   1  13
ATOM     13  C1  <0> d           2.489   1.044  -0.016  0.00  0.00    -0.050 C 
ATOM     14  H1  <0> d           2.796   0.872  -1.048  0.00  0.00     0.033 H 
ATOM     15  H2  <0> d           3.245   1.640   0.494  0.00  0.00     0.033 H 
ATOM     16  H3  <0> d           2.376   0.087   0.494  0.00  0.00     0.033 H 
ENDBRANCH   1  13
TORSDOF 1
