REMARK  0 active torsions:
REMARK  status: ('A' for Active; 'I' for Inactive)
ROOT
ATOM      1  C1  <0> d          -0.635  -2.307  -0.004  0.00  0.00    -0.082 A 
ATOM      2  C2  <0> d           0.703  -2.678  -0.018  0.00  0.00    -0.081 A 
ATOM      3  C3  <0> d           1.696  -1.725  -0.023  0.00  0.00    -0.056 A 
ATOM      4  C4  <0> d           1.359  -0.375  -0.013  0.00  0.00     0.044 A 
ATOM      5  C5  <0> d           0.002  -0.004   0.002  0.00  0.00     0.014 A 
ATOM      6  C6  <0> d          -0.989  -0.988   0.006  0.00  0.00    -0.069 A 
ATOM      7  C7  <0> d          -0.018   1.461   0.010  0.00  0.00     0.061 A 
ATOM      8  C8  <0> d           1.261   1.871   0.000  0.00  0.00    -0.001 A 
ATOM      9  N1  <0> d           2.098   0.787  -0.014  0.00  0.00    -0.364 N 
ATOM     10  H1  <0> d           3.067   0.831  -0.023  0.00  0.00     0.165 HD
ATOM     11 Cl1  <0> d          -1.427   2.475   0.023  0.00  0.00    -0.082 Cl
ATOM     12  H2  <0> d          -1.402  -3.068   0.000  0.00  0.00     0.083 H 
ATOM     13  H3  <0> d           0.967  -3.726  -0.026  0.00  0.00     0.083 H 
ATOM     14  H4  <0> d           2.734  -2.024  -0.034  0.00  0.00     0.086 H 
ATOM     15  H5  <0> d          -2.032  -0.706   0.018  0.00  0.00     0.085 H 
ATOM     16  H6  <0> d           1.582   2.902   0.003  0.00  0.00     0.114 H 
ENDROOT
TORSDOF 0
