REMARK  2 active torsions:
REMARK  status: ('A' for Active; 'I' for Inactive)
REMARK    1  A    between atoms: C1_1  and  C2_2 
REMARK    2  A    between atoms: C4_5  and  C5_7 
ROOT
ATOM      1  C5  <0> d           0.109  -2.031   1.653  0.00  0.00     0.018 C 
ATOM      2  C6  <0> d           0.843  -2.489   2.844  0.00  0.00     0.059 C 
ATOM      3  N1  <0> d           1.408  -2.843   3.763  0.00  0.00    -0.197 NA
ATOM      4  H8  <0> d          -0.941  -1.887   1.906  0.00  0.00     0.055 H 
ATOM      5  H9  <0> d           0.194  -2.779   0.864  0.00  0.00     0.055 H 
ENDROOT
BRANCH   1   6
ATOM      6  C4  <0> d           0.703  -0.708   1.166  0.00  0.00    -0.039 A 
ATOM      7  C2  <0> d           0.002  -0.004   0.002  0.00  0.00    -0.053 A 
ATOM      8  H1  <0> d          -0.882  -0.484  -0.417  0.00  0.00     0.040 H 
ATOM      9  C3  <0> d           1.351  -0.691  -0.221  0.00  0.00    -0.057 A 
ATOM     10  H6  <0> d           1.354  -1.623  -0.786  0.00  0.00     0.034 H 
ATOM     11  H7  <0> d           2.223  -0.053  -0.362  0.00  0.00     0.034 H 
ATOM     12  H2  <0> d           1.150  -0.080   1.938  0.00  0.00     0.042 H 
BRANCH   7  13
ATOM     13  C1  <0> d          -0.019   1.526   0.010  0.00  0.00    -0.072 C 
ATOM     14  H3  <0> d           1.004   1.903   0.003  0.00  0.00     0.028 H 
ATOM     15  H4  <0> d          -0.546   1.887  -0.873  0.00  0.00     0.028 H 
ATOM     16  H5  <0> d          -0.529   1.877   0.907  0.00  0.00     0.028 H 
ENDBRANCH   7  13
ENDBRANCH   1   6
TORSDOF 2
