REMARK  2 active torsions:
REMARK  status: ('A' for Active; 'I' for Inactive)
REMARK    1  A    between atoms: C1_1  and  C2_2 
REMARK    2  A    between atoms: C7_10  and  N4_11 
ROOT
ATOM      1  C2  <0> d           1.146   3.168   0.008  0.00  0.00    -0.057 A 
ATOM      2  C3  <0> d           1.148   1.761   0.001  0.00  0.00    -0.061 A 
ATOM      3  C4  <0> d          -0.013   1.076   0.008  0.00  0.00     0.005 A 
ATOM      4  N1  <0> d          -1.208   1.738   0.017  0.00  0.00    -0.137 N 
ATOM      5  C5  <0> d          -1.242   3.117   0.030  0.00  0.00     0.173 A 
ATOM      6  C6  <0> d          -0.034   3.843   0.023  0.00  0.00    -0.030 A 
ATOM      7  N2  <0> d          -2.514   3.469   0.043  0.00  0.00    -0.115 NA
ATOM      8  N3  <0> d          -3.255   2.417   0.030  0.00  0.00     0.044 NA
ATOM      9  C7  <0> d          -2.510   1.335   0.021  0.00  0.00     0.724 A 
ATOM     10  H4  <0> d           2.087   1.226  -0.011  0.00  0.00     0.086 H 
ATOM     11  H5  <0> d           0.002  -0.004   0.002  0.00  0.00     0.113 H 
ATOM     12  H6  <0> d          -0.046   4.923   0.029  0.00  0.00     0.090 H 
ENDROOT
BRANCH   1  13
ATOM     13  C1  <0> d           2.449   3.926   0.001  0.00  0.00    -0.051 C 
ATOM     14  H1  <0> d           3.287   3.214  -0.011  0.00  0.00     0.033 H 
ATOM     15  H2  <0> d           2.513   4.553   0.902  0.00  0.00     0.033 H 
ATOM     16  H3  <0> d           2.497   4.564  -0.894  0.00  0.00     0.033 H 
ENDBRANCH   1  13
BRANCH   9  17
ATOM     17  N4  <0> d          -2.966   0.021   0.016  0.00  0.00    -0.231 N 
ATOM     18  H7  <0> d          -4.046  -0.187   0.019  0.00  0.00     0.174 HD
ATOM     19  H8  <0> d          -2.246  -0.811   0.008  0.00  0.00     0.174 HD
ENDBRANCH   9  17
TORSDOF 2
