REMARK  1 active torsions:
REMARK  status: ('A' for Active; 'I' for Inactive)
REMARK    1  A    between atoms: C1_1  and  C2_2 
ROOT
ATOM      1  C2  <0> d           1.468   1.857  -0.002  0.00  0.00     0.059 C 
ATOM      2  H1  <0> d           1.798   2.081  -1.017  0.00  0.00     0.086 H 
ATOM      3  C3  <0> d          -0.017   1.435   0.010  0.00  0.00     0.047 C 
ATOM      4  O1  <0> d           0.002  -0.004   0.002  0.00  0.00    -0.353 OA
ATOM      5  C4  <0> d           1.379  -0.405  -0.046  0.00  0.00     0.164 C 
ATOM      6  O2  <0> d           2.144   0.682   0.508  0.00  0.00    -0.348 OA
ATOM      7  C5  <0> d           1.803  -0.651  -1.492  0.00  0.00    -0.013 C 
ATOM      8  C6  <0> d           0.980  -1.802  -2.077  0.00  0.00    -0.060 C 
ATOM      9  C7  <0> d           1.208  -3.065  -1.244  0.00  0.00    -0.065 C 
ATOM     10  C8  <0> d           0.765  -2.812   0.199  0.00  0.00    -0.060 C 
ATOM     11  C9  <0> d           1.587  -1.665   0.790  0.00  0.00    -0.013 C 
ATOM     12  H5  <0> d          -0.525   1.812  -0.878  0.00  0.00     0.078 H 
ATOM     13  H6  <0> d          -0.508   1.802   0.911  0.00  0.00     0.078 H 
ATOM     14  H7  <0> d           1.633   0.252  -2.079  0.00  0.00     0.041 H 
ATOM     15  H8  <0> d           2.861  -0.909  -1.521  0.00  0.00     0.041 H 
ATOM     16  H9  <0> d           1.291  -1.984  -3.106  0.00  0.00     0.033 H 
ATOM     17  H10 <0> d          -0.077  -1.539  -2.058  0.00  0.00     0.033 H 
ATOM     18  H11 <0> d           2.266  -3.324  -1.259  0.00  0.00     0.033 H 
ATOM     19  H12 <0> d           0.626  -3.886  -1.664  0.00  0.00     0.033 H 
ATOM     20  H13 <0> d           0.923  -3.715   0.790  0.00  0.00     0.033 H 
ATOM     21  H14 <0> d          -0.292  -2.548   0.214  0.00  0.00     0.033 H 
ATOM     22  H15 <0> d           2.644  -1.934   0.784  0.00  0.00     0.041 H 
ATOM     23  H16 <0> d           1.266  -1.478   1.815  0.00  0.00     0.041 H 
ENDROOT
BRANCH   1  24
ATOM     24  C1  <0> d           1.698   3.057   0.920  0.00  0.00    -0.050 C 
ATOM     25  H2  <0> d           1.416   2.791   1.939  0.00  0.00     0.031 H 
ATOM     26  H3  <0> d           2.751   3.337   0.896  0.00  0.00     0.031 H 
ATOM     27  H4  <0> d           1.091   3.896   0.582  0.00  0.00     0.031 H 
ENDBRANCH   1  24
TORSDOF 1
