REMARK  7 active torsions:
REMARK  status: ('A' for Active; 'I' for Inactive)
REMARK    1  A    between atoms: C1_1  and  C2_2 
REMARK    2  A    between atoms: C2_2  and  N1_3 
REMARK       I    between atoms: N1_3  and  C3_4 
REMARK    3  A    between atoms: C3_4  and  C4_6 
REMARK    4  A    between atoms: C4_6  and  C5_8 
REMARK    5  A    between atoms: C4_6  and  O2_9 
REMARK    6  A    between atoms: O2_9  and  C6_10 
REMARK    7  A    between atoms: C6_10  and  C7_11 
ROOT
ATOM      1  C4  <0> d          -3.014  -2.361   0.018  0.00  0.00     0.111 C 
ATOM      2  H1  <0> d          -3.551  -1.938   0.867  0.00  0.00     0.097 H 
ENDROOT
BRANCH   1   3
ATOM      3  C3  <0> d          -1.601  -1.839   0.007  0.00  0.00     0.246 C 
ATOM      4  N1  <0> d          -1.372  -0.511   0.012  0.00  0.00    -0.359 N 
ATOM      5  H7  <0> d          -2.118   0.109   0.023  0.00  0.00     0.162 HD
ATOM      6  O1  <0> d          -0.668  -2.615  -0.006  0.00  0.00    -0.271 OA
BRANCH   4   7
ATOM      7  C2  <0> d           0.002  -0.004   0.002  0.00  0.00    -0.008 C 
ATOM      8  H5  <0> d           0.512  -0.356  -0.895  0.00  0.00     0.063 H 
ATOM      9  H6  <0> d           0.529  -0.365   0.885  0.00  0.00     0.063 H 
BRANCH   7  10
ATOM     10  C1  <0> d          -0.019   1.526   0.010  0.00  0.00    -0.061 C 
ATOM     11  H2  <0> d           1.004   1.903   0.003  0.00  0.00     0.029 H 
ATOM     12  H3  <0> d          -0.546   1.887  -0.873  0.00  0.00     0.029 H 
ATOM     13  H4  <0> d          -0.529   1.877   0.907  0.00  0.00     0.029 H 
ENDBRANCH   7  10
ENDBRANCH   4   7
ENDBRANCH   1   3
BRANCH   1  14
ATOM     14  C5  <0> d          -3.716  -1.959  -1.280  0.00  0.00    -0.044 C 
ATOM     15  H8  <0> d          -3.179  -2.381  -2.130  0.00  0.00     0.031 H 
ATOM     16  H9  <0> d          -4.739  -2.336  -1.273  0.00  0.00     0.031 H 
ATOM     17  H10 <0> d          -3.731  -0.872  -1.364  0.00  0.00     0.031 H 
ENDBRANCH   1  14
BRANCH   1  18
ATOM     18  O2  <0> d          -2.996  -3.786   0.128  0.00  0.00    -0.377 OA
BRANCH  18  19
ATOM     19  C6  <0> d          -4.132  -4.332   0.801  0.00  0.00     0.017 C 
ATOM     20  H11 <0> d          -4.181  -3.932   1.814  0.00  0.00     0.073 H 
ATOM     21  H12 <0> d          -5.039  -4.063   0.260  0.00  0.00     0.073 H 
BRANCH  19  22
ATOM     22  C7  <0> d          -4.006  -5.856   0.860  0.00  0.00    -0.056 C 
ATOM     23  H13 <0> d          -3.099  -6.125   1.401  0.00  0.00     0.030 H 
ATOM     24  H14 <0> d          -4.872  -6.272   1.373  0.00  0.00     0.030 H 
ATOM     25  H15 <0> d          -3.957  -6.255  -0.153  0.00  0.00     0.030 H 
ENDBRANCH  19  22
ENDBRANCH  18  19
ENDBRANCH   1  18
TORSDOF 7
