REMARK  3 active torsions:
REMARK  status: ('A' for Active; 'I' for Inactive)
REMARK    1  A    between atoms: C1_1  and  C2_2 
REMARK    2  A    between atoms: C3_3  and  C8_12 
REMARK    3  A    between atoms: C4_4  and  C7_9 
REMARK       I    between atoms: C7_9  and  N1_11 
ROOT
ATOM      1  C2  <0> d          -0.000  -0.002   0.002  0.00  0.00    -0.057 C 
ATOM      2  C3  <0> d          -1.133  -0.640   0.001  0.00  0.00    -0.065 C 
ATOM      3  C4  <0> d          -1.215  -2.141  -0.016  0.00  0.00     0.065 C 
ATOM      4  H1  <0> d          -1.478  -2.479  -1.019  0.00  0.00     0.065 H 
ATOM      5  C5  <0> d           0.140  -2.734   0.382  0.00  0.00     0.035 C 
ATOM      6  O1  <0> d           1.162  -2.072  -0.372  0.00  0.00    -0.386 OA
ATOM      7  C6  <0> d           1.329  -0.701  -0.010  0.00  0.00     0.040 C 
ATOM      8  H5  <0> d           0.310  -2.577   1.448  0.00  0.00     0.076 H 
ATOM      9  H6  <0> d           0.153  -3.801   0.161  0.00  0.00     0.076 H 
ATOM     10  H7  <0> d           1.988  -0.213  -0.728  0.00  0.00     0.081 H 
ATOM     11  H8  <0> d           1.776  -0.645   0.983  0.00  0.00     0.081 H 
ENDROOT
BRANCH   3  12
ATOM     12  C7  <0> d          -2.268  -2.597   0.960  0.00  0.00     0.225 C 
ATOM     13  O2  <0> d          -1.988  -2.744   2.131  0.00  0.00    -0.273 OA
ATOM     14  N1  <0> d          -3.523  -2.842   0.532  0.00  0.00    -0.369 N 
ATOM     15  H9  <0> d          -3.748  -2.724  -0.404  0.00  0.00     0.159 HD
ATOM     16  H10 <0> d          -4.201  -3.135   1.160  0.00  0.00     0.159 HD
ENDBRANCH   3  12
BRANCH   2  17
ATOM     17  C8  <0> d          -2.413   0.156   0.017  0.00  0.00    -0.053 C 
ATOM     18  H11 <0> d          -2.180   1.216   0.115  0.00  0.00     0.033 H 
ATOM     19  H12 <0> d          -2.957  -0.013  -0.913  0.00  0.00     0.033 H 
ATOM     20  H13 <0> d          -3.027  -0.161   0.860  0.00  0.00     0.033 H 
ENDBRANCH   2  17
BRANCH   1  21
ATOM     21  C1  <0> d          -0.022   1.505   0.011  0.00  0.00    -0.052 C 
ATOM     22  H2  <0> d           1.000   1.883   0.006  0.00  0.00     0.033 H 
ATOM     23  H3  <0> d          -0.547   1.866  -0.874  0.00  0.00     0.033 H 
ATOM     24  H4  <0> d          -0.535   1.856   0.906  0.00  0.00     0.033 H 
ENDBRANCH   1  21
TORSDOF 3
