REMARK  1 active torsions:
REMARK  status: ('A' for Active; 'I' for Inactive)
REMARK    1  A    between atoms: C3_4  and  C5_7 
ROOT
ATOM      1  C1  <0> d          -0.017   1.383   0.010  0.00  0.00    -0.049 A 
ATOM      2  C2  <0> d           1.193   2.063   0.002  0.00  0.00     0.006 A 
ATOM      3  N1  <0> d           2.320   1.373  -0.013  0.00  0.00    -0.238 NA
ATOM      4  C3  <0> d           2.303   0.047  -0.020  0.00  0.00     0.201 A 
ATOM      5  N2  <0> d           1.164  -0.633  -0.013  0.00  0.00    -0.238 NA
ATOM      6  C4  <0> d           0.002  -0.004   0.002  0.00  0.00     0.006 A 
ATOM      7  H1  <0> d          -0.953   1.922   0.026  0.00  0.00     0.087 H 
ATOM      8  H2  <0> d           1.213   3.143   0.007  0.00  0.00     0.114 H 
ATOM      9  H3  <0> d          -0.922  -0.563   0.008  0.00  0.00     0.114 H 
ENDROOT
BRANCH   4  10
ATOM     10  C5  <0> d           3.587  -0.693  -0.036  0.00  0.00     0.243 A 
ATOM     11  N6  <0> d           3.745  -2.017  -0.044  0.00  0.00    -0.103 NA
ATOM     12  N5  <0> d           5.011  -2.256  -0.061  0.00  0.00    -0.021 NA
ATOM     13  N4  <0> d           5.654  -1.141  -0.055  0.00  0.00    -0.021 NA
ATOM     14  N3  <0> d           4.811  -0.165  -0.039  0.00  0.00    -0.103 NA
ENDBRANCH   4  10
TORSDOF 1
