REMARK  3 active torsions:
REMARK  status: ('A' for Active; 'I' for Inactive)
REMARK    1  A    between atoms: C1_1  and  C2_2 
REMARK    2  A    between atoms: C2_2  and  C3_3 
REMARK    3  A    between atoms: C2_2  and  N1_4 
REMARK       I    between atoms: N1_4  and  C4_5 
REMARK       I    between atoms: C4_5  and  N2_7 
ROOT
ATOM      1  C2  <0> d           1.248   1.716  -0.001  0.00  0.00     0.007 C 
ATOM      2  H4  <0> d           1.123   2.628  -0.584  0.00  0.00     0.071 H 
ENDROOT
BRANCH   1   3
ATOM      3  C1  <0> d           1.635   2.077   1.435  0.00  0.00    -0.058 C 
ATOM      4  H1  <0> d           0.851   2.689   1.880  0.00  0.00     0.030 H 
ATOM      5  H2  <0> d           1.759   1.165   2.018  0.00  0.00     0.030 H 
ATOM      6  H3  <0> d           2.571   2.635   1.429  0.00  0.00     0.030 H 
ENDBRANCH   1   3
BRANCH   1   7
ATOM      7  C3  <0> d           2.349   0.857  -0.625  0.00  0.00    -0.058 C 
ATOM      8  H5  <0> d           2.073   0.599  -1.648  0.00  0.00     0.030 H 
ATOM      9  H6  <0> d           3.285   1.414  -0.631  0.00  0.00     0.030 H 
ATOM     10  H7  <0> d           2.473  -0.056  -0.042  0.00  0.00     0.030 H 
ENDBRANCH   1   7
BRANCH   1  11
ATOM     11  N1  <0> d          -0.011   0.966   0.007  0.00  0.00    -0.339 N 
ATOM     12  C4  <0> d          -1.187   1.624   0.017  0.00  0.00     0.314 C 
ATOM     13  O1  <0> d          -1.204   2.840   0.023  0.00  0.00    -0.248 OA
ATOM     14  N2  <0> d          -2.345   0.934   0.018  0.00  0.00    -0.352 N 
ATOM     15  H9  <0> d          -2.332  -0.036   0.013  0.00  0.00     0.160 HD
ATOM     16  H10 <0> d          -3.192   1.408   0.025  0.00  0.00     0.160 HD
ATOM     17  H8  <0> d           0.002  -0.004   0.002  0.00  0.00     0.164 HD
ENDBRANCH   1  11
TORSDOF 3
