REMARK  1 active torsions:
REMARK  status: ('A' for Active; 'I' for Inactive)
REMARK    1  A    between atoms: C1_1  and  C2_2 
ROOT
ATOM      1  C2  <0> d          -0.018   1.503   0.010  0.00  0.00     0.020 A 
ATOM      2  C3  <0> d          -1.190   2.171   0.019  0.00  0.00     0.019 A 
ATOM      3  C4  <0> d          -1.199   3.580   0.020  0.00  0.00     0.177 A 
ATOM      4  N1  <0> d          -0.036   4.224   0.022  0.00  0.00    -0.169 NA
ATOM      5  C5  <0> d           1.115   3.556   0.017  0.00  0.00     0.348 A 
ATOM      6  O1  <0> d           2.165   4.177   0.025  0.00  0.00    -0.245 OA
ATOM      7  N2  <0> d           1.147   2.211   0.003  0.00  0.00    -0.310 N 
ATOM      8  H1  <0> d           2.112   1.682  -0.014  0.00  0.00     0.170 HD
ATOM      9  O2  <0> d          -2.466   4.054   0.008  0.00  0.00    -0.334 OA
ATOM     10  C6  <0> d          -3.365   3.027   0.459  0.00  0.00     0.032 C 
ATOM     11  C7  <0> d          -2.636   1.723   0.057  0.00  0.00    -0.015 C 
ATOM     12  H5  <0> d          -3.506   3.114   1.546  0.00  0.00     0.075 H 
ATOM     13  H6  <0> d          -4.335   3.142  -0.046  0.00  0.00     0.075 H 
ATOM     14  H7  <0> d          -2.931   1.353  -0.936  0.00  0.00     0.043 H 
ATOM     15  H8  <0> d          -2.751   0.918   0.797  0.00  0.00     0.043 H 
ENDROOT
BRANCH   1  16
ATOM     16  C1  <0> d           0.002  -0.004   0.002  0.00  0.00    -0.037 C 
ATOM     17  H2  <0> d          -1.030  -0.385   0.010  0.00  0.00     0.035 H 
ATOM     18  H3  <0> d           0.534  -0.368   0.893  0.00  0.00     0.035 H 
ATOM     19  H4  <0> d           0.517  -0.359  -0.903  0.00  0.00     0.035 H 
ENDBRANCH   1  16
TORSDOF 1
