REMARK  3 active torsions:
REMARK  status: ('A' for Active; 'I' for Inactive)
REMARK    1  A    between atoms: C1_1  and  C2_2 
REMARK    2  A    between atoms: C2_2  and  C3_3 
REMARK    3  A    between atoms: C2_2  and  C4_4 
ROOT
ATOM      1  C4  <0> d          -1.412  -0.526   0.013  0.00  0.00     0.039 A 
ATOM      2  C5  <0> d          -2.079  -0.665   1.218  0.00  0.00    -0.059 A 
ATOM      3  C6  <0> d          -3.380  -1.144   1.224  0.00  0.00    -0.078 A 
ATOM      4  C7  <0> d          -3.970  -1.470   0.014  0.00  0.00    -0.045 A 
ATOM      5  C8  <0> d          -3.239  -1.305  -1.162  0.00  0.00     0.137 A 
ATOM      6  N1  <0> d          -1.997  -0.838  -1.124  0.00  0.00    -0.242 NA
ATOM      7  C9  <0> d          -3.835  -1.638  -2.421  0.00  0.00     0.119 C 
ATOM      8  N2  <0> d          -4.307  -1.902  -3.420  0.00  0.00    -0.190 NA
ATOM      9  H8  <0> d          -1.591  -0.402   2.145  0.00  0.00     0.086 H 
ATOM     10  H9  <0> d          -3.921  -1.262   2.151  0.00  0.00     0.083 H 
ATOM     11  H10 <0> d          -4.982  -1.847  -0.018  0.00  0.00     0.088 H 
ENDROOT
BRANCH   1  12
ATOM     12  C2  <0> d           0.002  -0.004   0.002  0.00  0.00    -0.019 C 
ATOM     13  H4  <0> d           0.512  -0.356  -0.895  0.00  0.00     0.048 H 
BRANCH  12  14
ATOM     14  C1  <0> d          -0.019   1.526   0.010  0.00  0.00    -0.068 C 
ATOM     15  H1  <0> d           1.004   1.903   0.003  0.00  0.00     0.028 H 
ATOM     16  H2  <0> d          -0.546   1.887  -0.873  0.00  0.00     0.028 H 
ATOM     17  H3  <0> d          -0.529   1.877   0.907  0.00  0.00     0.028 H 
ENDBRANCH  12  14
BRANCH  12  18
ATOM     18  C3  <0> d           0.742  -0.511   1.242  0.00  0.00    -0.068 C 
ATOM     19  H5  <0> d           0.232  -0.159   2.138  0.00  0.00     0.028 H 
ATOM     20  H6  <0> d           0.757  -1.601   1.236  0.00  0.00     0.028 H 
ATOM     21  H7  <0> d           1.765  -0.134   1.234  0.00  0.00     0.028 H 
ENDBRANCH  12  18
ENDBRANCH   1  12
TORSDOF 3
