REMARK  3 active torsions:
REMARK  status: ('A' for Active; 'I' for Inactive)
REMARK    1  A    between atoms: C1_1  and  N1_2 
REMARK    2  A    between atoms: C3_4  and  C5_7 
REMARK    3  A    between atoms: C5_7  and  C6_8 
ROOT
ATOM      1  N1  <0> d          -0.018   1.461   0.010  0.00  0.00    -0.354 N 
ATOM      2  C2  <0> d          -1.131   2.258   0.019  0.00  0.00     0.004 A 
ATOM      3  C3  <0> d          -0.696   3.533   0.028  0.00  0.00     0.061 A 
ATOM      4  N2  <0> d           0.645   3.514   0.015  0.00  0.00    -0.246 NA
ATOM      5  C4  <0> d           1.058   2.277   0.004  0.00  0.00     0.066 A 
ATOM      6  H4  <0> d          -2.159   1.928   0.021  0.00  0.00     0.114 H 
ATOM      7  H5  <0> d           2.090   1.958  -0.008  0.00  0.00     0.143 H 
ENDROOT
BRANCH   3   8
ATOM      8  C5  <0> d          -1.565   4.764   0.042  0.00  0.00     0.057 C 
ATOM      9  H6  <0> d          -1.428   5.316  -0.888  0.00  0.00     0.058 H 
ATOM     10  H7  <0> d          -2.610   4.470   0.140  0.00  0.00     0.058 H 
BRANCH   8  11
ATOM     11  C6  <0> d          -1.178   5.638   1.207  0.00  0.00     0.178 C 
ATOM     12  O1  <0> d          -0.288   5.297   1.949  0.00  0.00    -0.648 OA
ATOM     13  O2  <0> d          -1.822   6.797   1.419  0.00  0.00    -0.648 OA
ENDBRANCH   8  11
ENDBRANCH   3   8
BRANCH   1  14
ATOM     14  C1  <0> d           0.002  -0.004   0.002  0.00  0.00    -0.014 C 
ATOM     15  H1  <0> d           0.016  -0.373   1.028  0.00  0.00     0.057 H 
ATOM     16  H2  <0> d          -0.887  -0.377  -0.506  0.00  0.00     0.057 H 
ATOM     17  H3  <0> d           0.892  -0.352  -0.522  0.00  0.00     0.057 H 
ENDBRANCH   1  14
TORSDOF 3
