REMARK  1 active torsions:
REMARK  status: ('A' for Active; 'I' for Inactive)
REMARK    1  A    between atoms: C7_7  and  O2_12 
ROOT
ATOM      1  C1  <0> d          -1.298   3.533   0.030  0.00  0.00    -0.082 A 
ATOM      2  C2  <0> d          -0.129   4.272   0.020  0.00  0.00    -0.080 A 
ATOM      3  C3  <0> d           1.092   3.631   0.006  0.00  0.00    -0.050 A 
ATOM      4  C4  <0> d           1.153   2.241   0.003  0.00  0.00     0.077 A 
ATOM      5  C5  <0> d          -0.018   1.504   0.010  0.00  0.00     0.004 A 
ATOM      6  C6  <0> d          -1.242   2.153   0.020  0.00  0.00    -0.072 A 
ATOM      7  C7  <0> d           0.002  -0.004   0.002  0.00  0.00     0.065 C 
ATOM      8  H1  <0> d          -0.222  -0.364  -1.002  0.00  0.00     0.090 H 
ATOM      9  C8  <0> d           1.386  -0.503   0.425  0.00  0.00    -0.017 C 
ATOM     10  C9  <0> d           2.442   0.268  -0.378  0.00  0.00     0.029 C 
ATOM     11  O1  <0> d           2.373   1.645  -0.005  0.00  0.00    -0.350 OA
ATOM     12  H2  <0> d          -2.254   4.035   0.042  0.00  0.00     0.083 H 
ATOM     13  H3  <0> d          -0.172   5.352   0.022  0.00  0.00     0.083 H 
ATOM     14  H4  <0> d           2.004   4.209  -0.002  0.00  0.00     0.087 H 
ATOM     15  H5  <0> d          -2.156   1.578   0.023  0.00  0.00     0.084 H 
ATOM     16  H6  <0> d           1.532  -0.325   1.490  0.00  0.00     0.040 H 
ATOM     17  H7  <0> d           1.472  -1.569   0.215  0.00  0.00     0.040 H 
ATOM     18  H8  <0> d           3.433  -0.125  -0.152  0.00  0.00     0.075 H 
ATOM     19  H9  <0> d           2.240   0.166  -1.444  0.00  0.00     0.075 H 
ENDROOT
BRANCH   7  20
ATOM     20  O2  <0> d          -0.981  -0.498   0.914  0.00  0.00    -0.391 OA
ATOM     21  H10 <0> d          -1.884  -0.223   0.706  0.00  0.00     0.210 HD
ENDBRANCH   7  20
TORSDOF 1
