REMARK  4 active torsions:
REMARK  status: ('A' for Active; 'I' for Inactive)
REMARK    1  A    between atoms: C1_1  and  C2_2 
REMARK    2  A    between atoms: C1_1  and  O4_14 
REMARK    3  A    between atoms: C4_6  and  O3_12 
REMARK    4  A    between atoms: C5_8  and  O2_11 
ROOT
ATOM      1  C2  <0> d          -0.013   1.086   0.008  0.00  0.00     0.094 C 
ATOM      2  H1  <0> d           0.002  -0.004   0.002  0.00  0.00     0.091 H 
ATOM      3  C3  <0> d          -0.804   1.620  -1.206  0.00  0.00     0.135 C 
ATOM      4  H2  <0> d          -0.816   0.882  -2.009  0.00  0.00     0.100 H 
ATOM      5  C4  <0> d          -2.230   1.847  -0.655  0.00  0.00     0.114 C 
ATOM      6  H3  <0> d          -2.508   2.898  -0.736  0.00  0.00     0.095 H 
ATOM      7  C5  <0> d          -2.131   1.423   0.827  0.00  0.00     0.156 C 
ATOM      8  H4  <0> d          -2.442   0.386   0.947  0.00  0.00     0.133 H 
ATOM      9  O1  <0> d          -0.731   1.573   1.163  0.00  0.00    -0.348 OA
ATOM     10  F1  <0> d          -0.256   2.825  -1.658  0.00  0.00    -0.244 F 
ENDROOT
BRANCH   1  11
ATOM     11  C1  <0> d           1.415   1.637  -0.003  0.00  0.00     0.043 C 
ATOM     12  H5  <0> d           1.897   1.378  -0.945  0.00  0.00     0.078 H 
ATOM     13  H6  <0> d           1.386   2.721   0.105  0.00  0.00     0.078 H 
BRANCH  11  14
ATOM     14  O4  <0> d           2.152   1.069   1.081  0.00  0.00    -0.398 OA
ATOM     15  H9  <0> d           3.068   1.375   1.136  0.00  0.00     0.209 HD
ENDBRANCH  11  14
ENDBRANCH   1  11
BRANCH   7  16
ATOM     16  O2  <0> d          -2.931   2.280   1.644  0.00  0.00    -0.369 OA
ATOM     17  H7  <0> d          -2.907   2.061   2.586  0.00  0.00     0.212 HD
ENDBRANCH   7  16
BRANCH   5  18
ATOM     18  O3  <0> d          -3.172   1.026  -1.348  0.00  0.00    -0.388 OA
ATOM     19  H8  <0> d          -4.083   1.128  -1.042  0.00  0.00     0.210 HD
ENDBRANCH   5  18
TORSDOF 4
