REMARK  2 active torsions:
REMARK  status: ('A' for Active; 'I' for Inactive)
REMARK    1  A    between atoms: C1_1  and  C2_2 
REMARK    2  A    between atoms: C2_2  and  S1_3 
ROOT
ATOM      1  C2  <0> d          -0.742   1.938   1.620  0.00  0.00     0.039 C 
ATOM      2  H4  <0> d          -1.743   1.513   1.690  0.00  0.00     0.057 H 
ATOM      3  H5  <0> d          -0.118   1.531   2.416  0.00  0.00     0.057 H 
ENDROOT
BRANCH   1   4
ATOM      4  C1  <0> d          -0.822   3.459   1.762  0.00  0.00    -0.063 C 
ATOM      5  H1  <0> d           0.180   3.884   1.691  0.00  0.00     0.028 H 
ATOM      6  H2  <0> d          -1.446   3.866   0.966  0.00  0.00     0.028 H 
ATOM      7  H3  <0> d          -1.256   3.712   2.729  0.00  0.00     0.028 H 
ENDBRANCH   1   4
BRANCH   1   8
ATOM      8  S1  <0> d          -0.019   1.518   0.010  0.00  0.00     0.250 S 
ATOM      9  O1  <0> d           1.355   1.880  -0.001  0.00  0.00    -0.212 OA
ATOM     10  O2  <0> d           0.002  -0.004   0.002  0.00  0.00    -0.212 OA
ENDBRANCH   1   8
TORSDOF 2
