REMARK  8 active torsions:
REMARK  status: ('A' for Active; 'I' for Inactive)
REMARK    1  A    between atoms: C1_1  and  C2_2 
REMARK    2  A    between atoms: C2_2  and  C3_4 
REMARK    3  A    between atoms: C2_2  and  O2_6 
REMARK    4  A    between atoms: C3_4  and  O1_5 
REMARK    5  A    between atoms: O2_6  and  C4_7 
REMARK    6  A    between atoms: C4_7  and  C5_8 
REMARK    7  A    between atoms: C5_8  and  C6_10 
REMARK    8  A    between atoms: C5_8  and  O3_11 
ROOT
ATOM      1  O2  <0> d          -0.704   1.559  -1.150  0.00  0.00    -0.382 OA
ENDROOT
BRANCH   1   2
ATOM      2  C2  <0> d          -0.114   1.152  -2.386  0.00  0.00     0.055 C 
ATOM      3  H1  <0> d           0.962   1.037  -2.254  0.00  0.00     0.086 H 
BRANCH   2   4
ATOM      4  C1  <0> d          -0.720  -0.182  -2.826  0.00  0.00    -0.050 C 
ATOM      5  H3  <0> d          -0.526  -0.938  -2.064  0.00  0.00     0.031 H 
ATOM      6  H4  <0> d          -1.796  -0.067  -2.957  0.00  0.00     0.031 H 
ATOM      7  H5  <0> d          -0.270  -0.492  -3.768  0.00  0.00     0.031 H 
ENDBRANCH   2   4
BRANCH   2   8
ATOM      8  C3  <0> d          -0.386   2.213  -3.454  0.00  0.00     0.040 C 
ATOM      9  H6  <0> d          -0.033   3.182  -3.103  0.00  0.00     0.077 H 
ATOM     10  H7  <0> d           0.138   1.947  -4.372  0.00  0.00     0.077 H 
BRANCH   8  11
ATOM     11  O1  <0> d          -1.790   2.282  -3.711  0.00  0.00    -0.398 OA
ATOM     12  H8  <0> d          -2.036   2.935  -4.380  0.00  0.00     0.209 HD
ENDBRANCH   8  11
ENDBRANCH   2   8
ENDBRANCH   1   2
BRANCH   1  13
ATOM     13  C4  <0> d          -0.013   1.086   0.008  0.00  0.00     0.043 C 
ATOM     14  H9  <0> d           0.002  -0.004   0.002  0.00  0.00     0.078 H 
ATOM     15  H10 <0> d           1.010   1.463   0.000  0.00  0.00     0.078 H 
BRANCH  13  16
ATOM     16  C5  <0> d          -0.729   1.579   1.267  0.00  0.00     0.052 C 
ATOM     17  H2  <0> d          -0.154   1.294   2.148  0.00  0.00     0.085 H 
BRANCH  16  18
ATOM     18  C6  <0> d          -0.860   3.103   1.215  0.00  0.00    -0.051 C 
ATOM     19  H11 <0> d          -1.370   3.454   2.112  0.00  0.00     0.031 H 
ATOM     20  H12 <0> d           0.132   3.551   1.162  0.00  0.00     0.031 H 
ATOM     21  H13 <0> d          -1.435   3.388   0.334  0.00  0.00     0.031 H 
ENDBRANCH  16  18
BRANCH  16  22
ATOM     22  O3  <0> d          -2.030   0.991   1.336  0.00  0.00    -0.394 OA
ATOM     23  H14 <0> d          -2.542   1.260   2.111  0.00  0.00     0.210 HD
ENDBRANCH  16  22
ENDBRANCH  13  16
ENDBRANCH   1  13
TORSDOF 8
