REMARK  5 active torsions:
REMARK  status: ('A' for Active; 'I' for Inactive)
REMARK    1  A    between atoms: C1_1  and  C2_2 
REMARK    2  A    between atoms: C2_2  and  N1_3 
REMARK    3  A    between atoms: N1_3  and  C3_4 
REMARK    4  A    between atoms: C5_6  and  C10_11 
REMARK    5  A    between atoms: C8_9  and  C9_10 
ROOT
ATOM      1  C3  <0> d           1.155   3.171   0.008  0.00  0.00     0.034 A 
ATOM      2  C4  <0> d          -0.060   3.845   0.023  0.00  0.00    -0.051 A 
ATOM      3  C5  <0> d          -1.243   3.133   0.031  0.00  0.00    -0.060 A 
ATOM      4  C6  <0> d          -1.220   1.750   0.017  0.00  0.00    -0.077 A 
ATOM      5  C7  <0> d          -0.013   1.076   0.008  0.00  0.00    -0.075 A 
ATOM      6  C8  <0> d           1.175   1.782   0.000  0.00  0.00    -0.036 A 
ATOM      7  H7  <0> d          -0.079   4.925   0.029  0.00  0.00     0.087 H 
ATOM      8  H8  <0> d          -2.147   1.196   0.018  0.00  0.00     0.084 H 
ATOM      9  H9  <0> d           0.002  -0.004   0.002  0.00  0.00     0.084 H 
ENDROOT
BRANCH   1  10
ATOM     10  N1  <0> d           2.353   3.888   0.000  0.00  0.00    -0.390 N 
ATOM     11  H6  <0> d           3.314   3.353  -0.013  0.00  0.00     0.159 HD
BRANCH  10  12
ATOM     12  C2  <0> d           2.331   5.353   0.008  0.00  0.00    -0.011 C 
ATOM     13  H4  <0> d           1.815   5.706   0.913  0.00  0.00     0.063 H 
ATOM     14  H5  <0> d           1.798   5.716  -0.883  0.00  0.00     0.063 H 
BRANCH  12  15
ATOM     15  C1  <0> d           3.765   5.885  -0.003  0.00  0.00    -0.061 C 
ATOM     16  H1  <0> d           3.748   6.985   0.003  0.00  0.00     0.029 H 
ATOM     17  H2  <0> d           4.280   5.531  -0.908  0.00  0.00     0.029 H 
ATOM     18  H3  <0> d           4.298   5.521   0.888  0.00  0.00     0.029 H 
ENDBRANCH  12  15
ENDBRANCH  10  12
ENDBRANCH   1  10
BRANCH   6  19
ATOM     19  C9  <0> d           2.490   1.046  -0.017  0.00  0.00    -0.049 C 
ATOM     20  H10 <0> d           2.303  -0.038  -0.021  0.00  0.00     0.033 H 
ATOM     21  H11 <0> d           3.072   1.315   0.877  0.00  0.00     0.033 H 
ATOM     22  H12 <0> d           3.054   1.325  -0.919  0.00  0.00     0.033 H 
ENDBRANCH   6  19
BRANCH   3  23
ATOM     23  C10 <0> d          -2.561   3.863   0.047  0.00  0.00    -0.051 C 
ATOM     24  H13 <0> d          -3.384   3.134   0.051  0.00  0.00     0.033 H 
ATOM     25  H14 <0> d          -2.639   4.499  -0.847  0.00  0.00     0.033 H 
ATOM     26  H15 <0> d          -2.622   4.490   0.949  0.00  0.00     0.033 H 
ENDBRANCH   3  23
TORSDOF 5
