REMARK  4 active torsions:
REMARK  status: ('A' for Active; 'I' for Inactive)
REMARK    1  A    between atoms: C1_1  and  C2_2 
REMARK    2  A    between atoms: C2_2  and  C3_4 
REMARK    3  A    between atoms: C3_4  and  C4_6 
REMARK    4  A    between atoms: C3_4  and  O2_12 
ROOT
ATOM      1  C4  <0> d          -2.004  -0.766   1.245  0.00  0.00    -0.022 C 
ATOM      2  C5  <0> d          -2.449   0.667   1.543  0.00  0.00    -0.059 C 
ATOM      3  C6  <0> d          -3.181   0.705   2.886  0.00  0.00    -0.065 C 
ATOM      4  C7  <0> d          -4.408  -0.207   2.823  0.00  0.00    -0.065 C 
ATOM      5  C8  <0> d          -3.963  -1.640   2.525  0.00  0.00    -0.065 C 
ATOM      6  C9  <0> d          -3.231  -1.678   1.182  0.00  0.00    -0.059 C 
ATOM      7  H5  <0> d          -1.335  -1.111   2.034  0.00  0.00     0.044 H 
ATOM      8  H6  <0> d          -1.575   1.317   1.588  0.00  0.00     0.033 H 
ATOM      9  H7  <0> d          -3.117   1.012   0.754  0.00  0.00     0.033 H 
ATOM     10  H8  <0> d          -2.512   0.360   3.674  0.00  0.00     0.033 H 
ATOM     11  H9  <0> d          -3.498   1.726   3.098  0.00  0.00     0.033 H 
ATOM     12  H10 <0> d          -4.930  -0.180   3.780  0.00  0.00     0.033 H 
ATOM     13  H11 <0> d          -5.077   0.137   2.034  0.00  0.00     0.033 H 
ATOM     14  H12 <0> d          -3.295  -1.985   3.313  0.00  0.00     0.033 H 
ATOM     15  H13 <0> d          -4.837  -2.290   2.480  0.00  0.00     0.033 H 
ATOM     16  H14 <0> d          -3.900  -1.334   0.394  0.00  0.00     0.033 H 
ATOM     17  H15 <0> d          -2.914  -2.699   0.970  0.00  0.00     0.033 H 
ENDROOT
BRANCH   1  18
ATOM     18  C3  <0> d          -1.271  -0.804  -0.098  0.00  0.00     0.096 C 
ATOM     19  H1  <0> d          -1.907  -0.371  -0.871  0.00  0.00     0.095 H 
BRANCH  18  20
ATOM     20  C2  <0> d           0.006  -0.011   0.004  0.00  0.00     0.151 C 
ATOM     21  O1  <0> d           0.032   1.141  -0.357  0.00  0.00    -0.296 OA
BRANCH  20  22
ATOM     22  C1  <0> d           1.251  -0.655   0.557  0.00  0.00    -0.018 C 
ATOM     23  H2  <0> d           2.087   0.039   0.474  0.00  0.00     0.037 H 
ATOM     24  H3  <0> d           1.093  -0.911   1.605  0.00  0.00     0.037 H 
ATOM     25  H4  <0> d           1.473  -1.561  -0.008  0.00  0.00     0.037 H 
ENDBRANCH  20  22
ENDBRANCH  18  20
BRANCH  18  26
ATOM     26  O2  <0> d          -0.965  -2.158  -0.436  0.00  0.00    -0.388 OA
ATOM     27  H16 <0> d          -0.402  -2.607   0.210  0.00  0.00     0.210 HD
ENDBRANCH  18  26
ENDBRANCH   1  18
TORSDOF 4
