REMARK  8 active torsions:
REMARK  status: ('A' for Active; 'I' for Inactive)
REMARK    1  A    between atoms: C1_1  and  C2_2 
REMARK    2  A    between atoms: C2_2  and  C3_3 
REMARK    3  A    between atoms: C2_2  and  C4_4 
REMARK    4  A    between atoms: C4_4  and  C5_5 
REMARK    5  A    between atoms: C5_5  and  C6_7 
REMARK    6  A    between atoms: C6_7  and  C7_8 
REMARK    7  A    between atoms: C6_7  and  C8_9 
REMARK    8  A    between atoms: C6_7  and  C9_10 
ROOT
ATOM      1  C5  <0> d          -0.014   1.203   0.009  0.00  0.00     0.134 C 
ATOM      2  O1  <0> d           0.002  -0.004   0.002  0.00  0.00    -0.297 OA
ENDROOT
BRANCH   1   3
ATOM      3  C4  <0> d          -1.329   1.939   0.019  0.00  0.00    -0.006 C 
ATOM      4  H8  <0> d          -1.386   2.509   0.839  0.00  0.00     0.044 H 
ATOM      5  H9  <0> d          -1.400   2.570  -0.867  0.00  0.00     0.044 H 
BRANCH   3   6
ATOM      6  C2  <0> d          -2.479   0.929   0.019  0.00  0.00    -0.055 C 
ATOM      7  H4  <0> d          -2.359   0.242   0.856  0.00  0.00     0.039 H 
BRANCH   6   8
ATOM      8  C1  <0> d          -3.810   1.671   0.155  0.00  0.00    -0.073 C 
ATOM      9  H1  <0> d          -3.930   2.358  -0.683  0.00  0.00     0.028 H 
ATOM     10  H2  <0> d          -4.629   0.952   0.155  0.00  0.00     0.028 H 
ATOM     11  H3  <0> d          -3.819   2.232   1.089  0.00  0.00     0.028 H 
ENDBRANCH   6   8
BRANCH   6  12
ATOM     12  C3  <0> d          -2.466   0.142  -1.293  0.00  0.00    -0.073 C 
ATOM     13  H5  <0> d          -2.586   0.829  -2.130  0.00  0.00     0.028 H 
ATOM     14  H6  <0> d          -1.518  -0.387  -1.390  0.00  0.00     0.028 H 
ATOM     15  H7  <0> d          -3.284  -0.578  -1.293  0.00  0.00     0.028 H 
ENDBRANCH   6  12
ENDBRANCH   3   6
ENDBRANCH   1   3
BRANCH   1  16
ATOM     16  C6  <0> d           1.280   1.975   0.000  0.00  0.00     0.009 C 
BRANCH  16  17
ATOM     17  C7  <0> d           2.457   0.996  -0.016  0.00  0.00    -0.063 C 
ATOM     18  H10 <0> d           2.399   0.374  -0.909  0.00  0.00     0.029 H 
ATOM     19  H11 <0> d           3.393   1.554  -0.022  0.00  0.00     0.029 H 
ATOM     20  H12 <0> d           2.416   0.364   0.871  0.00  0.00     0.029 H 
ENDBRANCH  16  17
BRANCH  16  21
ATOM     21  C8  <0> d           1.338   2.862  -1.245  0.00  0.00    -0.063 C 
ATOM     22  H13 <0> d           0.500   3.559  -1.233  0.00  0.00     0.029 H 
ATOM     23  H14 <0> d           2.274   3.420  -1.251  0.00  0.00     0.029 H 
ATOM     24  H15 <0> d           1.280   2.239  -2.138  0.00  0.00     0.029 H 
ENDBRANCH  16  21
BRANCH  16  25
ATOM     25  C9  <0> d           1.361   2.849   1.254  0.00  0.00    -0.063 C 
ATOM     26  H16 <0> d           1.321   2.216   2.141  0.00  0.00     0.029 H 
ATOM     27  H17 <0> d           2.298   3.406   1.248  0.00  0.00     0.029 H 
ATOM     28  H18 <0> d           0.523   3.546   1.265  0.00  0.00     0.029 H 
ENDBRANCH  16  25
ENDBRANCH   1  16
TORSDOF 8
