REMARK  4 active torsions:
REMARK  status: ('A' for Active; 'I' for Inactive)
REMARK    1  A    between atoms: C1_1  and  C2_2 
REMARK    2  A    between atoms: C2_2  and  C3_4 
REMARK    3  A    between atoms: C2_2  and  O1_10 
REMARK    4  A    between atoms: C3_4  and  N1_5 
ROOT
ATOM      1  C3  <0> d          -2.164   1.050   1.278  0.00  0.00     0.040 C 
ATOM      2  H5  <0> d          -2.717   1.481   0.443  0.00  0.00     0.071 H 
ATOM      3  H6  <0> d          -2.152  -0.036   1.182  0.00  0.00     0.071 H 
ENDROOT
BRANCH   1   4
ATOM      4  C2  <0> d          -0.729   1.579   1.267  0.00  0.00     0.049 C 
ATOM      5  H1  <0> d          -0.202   1.218   2.150  0.00  0.00     0.085 H 
BRANCH   4   6
ATOM      6  C1  <0> d          -0.013   1.086   0.008  0.00  0.00    -0.051 C 
ATOM      7  H2  <0> d           0.002  -0.004   0.002  0.00  0.00     0.030 H 
ATOM      8  H3  <0> d           1.010   1.463   0.000  0.00  0.00     0.030 H 
ATOM      9  H4  <0> d          -0.540   1.447  -0.875  0.00  0.00     0.030 H 
ENDBRANCH   4   6
BRANCH   4  10
ATOM     10  O1  <0> d          -0.748   3.008   1.275  0.00  0.00    -0.394 OA
ATOM     11  H10 <0> d           0.130   3.413   1.268  0.00  0.00     0.210 HD
ENDBRANCH   4  10
ENDBRANCH   1   4
BRANCH   1  12
ATOM     12  N1  <0> d          -2.812   1.421   2.538  0.00  0.00    -0.279 N 
ATOM     13  N2  <0> d          -2.337   1.137   3.824  0.00  0.00    -0.185 NA
ATOM     14  C6  <0> d          -3.185   1.628   4.691  0.00  0.00     0.023 A 
ATOM     15  C5  <0> d          -4.226   2.240   3.986  0.00  0.00    -0.048 A 
ATOM     16  H9  <0> d          -3.097   1.570   5.766  0.00  0.00     0.117 H 
ATOM     17  C4  <0> d          -3.970   2.104   2.664  0.00  0.00    -0.000 A 
ATOM     18  H8  <0> d          -5.082   2.737   4.419  0.00  0.00     0.087 H 
ATOM     19  H7  <0> d          -4.583   2.473   1.855  0.00  0.00     0.114 H 
ENDBRANCH   1  12
TORSDOF 4
