REMARK  5 active torsions:
REMARK  status: ('A' for Active; 'I' for Inactive)
REMARK    1  A    between atoms: C1_1  and  C2_2 
REMARK    2  A    between atoms: C2_2  and  C3_3 
REMARK    3  A    between atoms: C4_4  and  C8_11 
REMARK    4  A    between atoms: C5_5  and  C6_9 
REMARK    5  A    between atoms: C6_9  and  C7_10 
ROOT
ATOM      1  C3  <0> d          -2.109   1.662   2.982  0.00  0.00     0.035 A 
ATOM      2  C4  <0> d          -1.744   0.902   1.924  0.00  0.00    -0.012 A 
ATOM      3  C5  <0> d          -0.718   1.572   1.248  0.00  0.00     0.062 A 
ATOM      4  N1  <0> d          -0.473   2.690   1.881  0.00  0.00    -0.179 NA
ATOM      5  N2  <0> d          -1.343   2.772   2.977  0.00  0.00    -0.282 N 
ATOM      6  H1  <0> d          -1.388   3.522   3.637  0.00  0.00     0.189 HD
ENDROOT
BRANCH   1   7
ATOM      7  C2  <0> d          -3.182   1.327   3.987  0.00  0.00    -0.028 C 
ATOM      8  H5  <0> d          -3.563   2.247   4.431  0.00  0.00     0.041 H 
ATOM      9  H6  <0> d          -3.995   0.800   3.489  0.00  0.00     0.041 H 
BRANCH   7  10
ATOM     10  C1  <0> d          -2.593   0.437   5.084  0.00  0.00    -0.071 C 
ATOM     11  H2  <0> d          -3.369   0.196   5.811  0.00  0.00     0.028 H 
ATOM     12  H3  <0> d          -2.212  -0.482   4.640  0.00  0.00     0.028 H 
ATOM     13  H4  <0> d          -1.780   0.965   5.582  0.00  0.00     0.028 H 
ENDBRANCH   7  10
ENDBRANCH   1   7
BRANCH   2  14
ATOM     14  C8  <0> d          -2.336  -0.429   1.541  0.00  0.00    -0.047 C 
ATOM     15  H12 <0> d          -1.781  -1.229   2.033  0.00  0.00     0.033 H 
ATOM     16  H13 <0> d          -3.379  -0.466   1.853  0.00  0.00     0.033 H 
ATOM     17  H14 <0> d          -2.275  -0.557   0.460  0.00  0.00     0.033 H 
ENDBRANCH   2  14
BRANCH   3  18
ATOM     18  C6  <0> d          -0.013   1.086   0.008  0.00  0.00    -0.026 C 
ATOM     19  H7  <0> d           0.002  -0.004   0.002  0.00  0.00     0.041 H 
ATOM     20  H8  <0> d           1.010   1.463   0.000  0.00  0.00     0.041 H 
BRANCH  18  21
ATOM     21  C7  <0> d          -0.753   1.593  -1.232  0.00  0.00    -0.071 C 
ATOM     22  H9  <0> d          -0.767   2.683  -1.226  0.00  0.00     0.028 H 
ATOM     23  H10 <0> d          -0.242   1.241  -2.128  0.00  0.00     0.028 H 
ATOM     24  H11 <0> d          -1.775   1.215  -1.224  0.00  0.00     0.028 H 
ENDBRANCH  18  21
ENDBRANCH   3  18
TORSDOF 5
