REMARK  2 active torsions:
REMARK  status: ('A' for Active; 'I' for Inactive)
REMARK    1  A    between atoms: C3_5  and  C6_9 
REMARK    2  A    between atoms: C4_6  and  C5_7 
ROOT
ATOM      1  C1  <0> d           1.079   1.874   0.002  0.00  0.00    -0.049 A 
ATOM      2  C2  <0> d          -0.013   1.076   0.008  0.00  0.00    -0.021 A 
ATOM      3  N1  <0> d          -1.128   1.846   0.017  0.00  0.00    -0.360 N 
ATOM      4  H1  <0> d          -2.040   1.515   0.019  0.00  0.00     0.165 HD
ATOM      5  C3  <0> d          -0.764   3.163   0.025  0.00  0.00     0.126 A 
ATOM      6  C4  <0> d           0.629   3.211   0.012  0.00  0.00     0.075 A 
ATOM      7  H2  <0> d           2.108   1.547  -0.009  0.00  0.00     0.087 H 
ATOM      8  H3  <0> d           0.002  -0.004   0.002  0.00  0.00     0.111 H 
ENDROOT
BRANCH   5   9
ATOM      9  C6  <0> d          -1.674   4.317   0.040  0.00  0.00     0.228 C 
ATOM     10  O2  <0> d          -1.224   5.446   0.042  0.00  0.00    -0.643 OA
ATOM     11  O4  <0> d          -3.008   4.123   0.051  0.00  0.00    -0.643 OA
ENDBRANCH   5   9
BRANCH   6  12
ATOM     12  C5  <0> d           1.469   4.425   0.011  0.00  0.00     0.212 C 
ATOM     13  O1  <0> d           0.950   5.523   0.022  0.00  0.00    -0.644 OA
ATOM     14  O3  <0> d           2.812   4.314  -0.001  0.00  0.00    -0.644 OA
ENDBRANCH   6  12
TORSDOF 2
