REMARK  7 active torsions:
REMARK  status: ('A' for Active; 'I' for Inactive)
REMARK    1  A    between atoms: C1_1  and  C2_2 
REMARK    2  A    between atoms: C2_2  and  O2_4 
REMARK    3  A    between atoms: O2_4  and  C3_5 
REMARK    4  A    between atoms: C4_6  and  C5_7 
REMARK    5  A    between atoms: C5_7  and  C6_8 
REMARK    6  A    between atoms: C6_8  and  O4_10 
REMARK    7  A    between atoms: O4_10  and  C7_11 
ROOT
ATOM      1  C3  <0> d           1.119   1.750   0.001  0.00  0.00     0.019 C 
ATOM      2  C4  <0> d          -0.013   1.076   0.008  0.00  0.00    -0.072 C 
ATOM      3  H4  <0> d           1.104   2.830   0.007  0.00  0.00     0.123 H 
ATOM      4  H5  <0> d           0.002  -0.004   0.002  0.00  0.00     0.080 H 
ENDROOT
BRANCH   2   5
ATOM      5  C5  <0> d          -1.328   1.812   0.018  0.00  0.00     0.033 C 
ATOM      6  H6  <0> d          -1.853   1.605   0.951  0.00  0.00     0.054 H 
ATOM      7  H7  <0> d          -1.145   2.883  -0.066  0.00  0.00     0.054 H 
BRANCH   5   8
ATOM      8  C6  <0> d          -2.170   1.352  -1.144  0.00  0.00     0.261 C 
ATOM      9  O3  <0> d          -1.745   0.513  -1.903  0.00  0.00    -0.265 OA
BRANCH   8  10
ATOM     10  O4  <0> d          -3.391   1.874  -1.337  0.00  0.00    -0.326 OA
BRANCH  10  11
ATOM     11  C7  <0> d          -4.146   1.385  -2.476  0.00  0.00     0.013 C 
ATOM     12  H8  <0> d          -3.592   1.588  -3.393  0.00  0.00     0.067 H 
ATOM     13  H9  <0> d          -4.299   0.310  -2.376  0.00  0.00     0.067 H 
ATOM     14  H10 <0> d          -5.112   1.888  -2.516  0.00  0.00     0.067 H 
ENDBRANCH  10  11
ENDBRANCH   8  10
ENDBRANCH   5   8
ENDBRANCH   2   5
BRANCH   1  15
ATOM     15  O2  <0> d           2.303   1.087  -0.014  0.00  0.00    -0.292 OA
BRANCH  15  16
ATOM     16  C2  <0> d           3.419   1.834  -0.021  0.00  0.00     0.259 C 
ATOM     17  O1  <0> d           3.340   3.039  -0.013  0.00  0.00    -0.265 OA
BRANCH  16  18
ATOM     18  C1  <0> d           4.771   1.168  -0.037  0.00  0.00     0.004 C 
ATOM     19  H1  <0> d           4.861   0.551  -0.931  0.00  0.00     0.041 H 
ATOM     20  H2  <0> d           5.551   1.929  -0.041  0.00  0.00     0.041 H 
ATOM     21  H3  <0> d           4.878   0.542   0.848  0.00  0.00     0.041 H 
ENDBRANCH  16  18
ENDBRANCH  15  16
ENDBRANCH   1  15
TORSDOF 7
