REMARK  1 active torsions:
REMARK  status: ('A' for Active; 'I' for Inactive)
REMARK    1  A    between atoms: C4_4  and  C7_7 
ROOT
ATOM      1  C1  <0> d           0.040  -2.773  -0.014  0.00  0.00    -0.083 A 
ATOM      2  C2  <0> d          -1.169  -2.100   0.002  0.00  0.00    -0.082 A 
ATOM      3  C3  <0> d          -1.195  -0.721   0.010  0.00  0.00    -0.069 A 
ATOM      4  C4  <0> d           0.002  -0.004   0.002  0.00  0.00     0.016 A 
ATOM      5  C5  <0> d           1.218  -0.688  -0.019  0.00  0.00    -0.069 A 
ATOM      6  C6  <0> d           1.230  -2.068  -0.021  0.00  0.00    -0.082 A 
ATOM      7  H1  <0> d           0.054  -3.853  -0.019  0.00  0.00     0.083 H 
ATOM      8  H2  <0> d          -2.095  -2.656   0.007  0.00  0.00     0.083 H 
ATOM      9  H3  <0> d          -2.139  -0.197   0.022  0.00  0.00     0.085 H 
ATOM     10  H4  <0> d           2.147  -0.139  -0.029  0.00  0.00     0.085 H 
ATOM     11  H5  <0> d           2.171  -2.598  -0.034  0.00  0.00     0.083 H 
ENDROOT
BRANCH   4  12
ATOM     12  C7  <0> d          -0.018   1.476   0.010  0.00  0.00     0.170 C 
ATOM     13  O1  <0> d           1.103   2.228   0.004  0.00  0.00    -0.332 OA
ATOM     14  C9  <0> d           0.739   3.559   0.422  0.00  0.00     0.044 C 
ATOM     15  C8  <0> d          -0.760   3.601   0.038  0.00  0.00     0.038 C 
ATOM     16  H8  <0> d           0.871   3.681   1.498  0.00  0.00     0.077 H 
ATOM     17  H9  <0> d           1.306   4.311  -0.127  0.00  0.00     0.077 H 
ATOM     18  N1  <0> d          -1.114   2.168   0.019  0.00  0.00    -0.264 NA
ATOM     19  H6  <0> d          -1.339   4.138   0.790  0.00  0.00     0.070 H 
ATOM     20  H7  <0> d          -0.897   4.046  -0.947  0.00  0.00     0.070 H 
ENDBRANCH   4  12
TORSDOF 1
