REMARK  0 active torsions:
REMARK  status: ('A' for Active; 'I' for Inactive)
ROOT
ATOM      1  C1  <0> d           0.580   4.020   0.018  0.00  0.00    -0.058 A 
ATOM      2  C2  <0> d           1.058   2.689   0.006  0.00  0.00    -0.041 A 
ATOM      3  C3  <0> d          -0.024   1.887   0.012  0.00  0.00     0.121 A 
ATOM      4  O1  <0> d          -1.123   2.658   0.021  0.00  0.00    -0.315 OA
ATOM      5  C4  <0> d          -0.763   3.952   0.031  0.00  0.00     0.020 A 
ATOM      6 Br1  <0> d           0.002  -0.004   0.002  0.00  0.00    -0.023 Br
ATOM      7  H1  <0> d           1.179   4.918   0.018  0.00  0.00     0.086 H 
ATOM      8  H2  <0> d           2.091   2.376  -0.005  0.00  0.00     0.088 H 
ATOM      9  H3  <0> d          -1.438   4.795   0.041  0.00  0.00     0.123 H 
ENDROOT
TORSDOF 0
