REMARK  5 active torsions:
REMARK  status: ('A' for Active; 'I' for Inactive)
REMARK    1  A    between atoms: C1_1  and  C2_2 
REMARK    2  A    between atoms: C2_2  and  C3_3 
REMARK    3  A    between atoms: C3_3  and  C4_4 
REMARK    4  A    between atoms: C4_4  and  C5_5 
REMARK    5  A    between atoms: C5_5  and  C6_6 
ROOT
ATOM      1  C5  <0> d          -0.754   1.592   1.247  0.00  0.00    -0.055 C 
ATOM      2  H11 <0> d          -0.194   1.321   2.142  0.00  0.00     0.034 H 
ATOM      3  H12 <0> d          -0.853   2.676   1.194  0.00  0.00     0.034 H 
ENDROOT
BRANCH   1   4
ATOM      4  C4  <0> d          -2.145   0.955   1.304  0.00  0.00    -0.064 C 
ATOM      5  H9  <0> d          -2.705   1.226   0.409  0.00  0.00     0.033 H 
ATOM      6  H10 <0> d          -2.046  -0.129   1.357  0.00  0.00     0.033 H 
BRANCH   4   7
ATOM      7  C3  <0> d          -2.886   1.461   2.543  0.00  0.00    -0.065 C 
ATOM      8  H7  <0> d          -2.326   1.190   3.438  0.00  0.00     0.033 H 
ATOM      9  H8  <0> d          -2.985   2.545   2.490  0.00  0.00     0.033 H 
BRANCH   7  10
ATOM     10  C2  <0> d          -4.277   0.825   2.600  0.00  0.00    -0.069 C 
ATOM     11  H5  <0> d          -4.837   1.096   1.706  0.00  0.00     0.032 H 
ATOM     12  H6  <0> d          -4.178  -0.259   2.653  0.00  0.00     0.032 H 
BRANCH  10  13
ATOM     13  C1  <0> d          -5.018   1.331   3.839  0.00  0.00    -0.077 C 
ATOM     14  H2  <0> d          -4.458   1.060   4.734  0.00  0.00     0.027 H 
ATOM     15  H3  <0> d          -5.117   2.415   3.786  0.00  0.00     0.027 H 
ATOM     16  H4  <0> d          -6.009   0.877   3.880  0.00  0.00     0.027 H 
ENDBRANCH  10  13
ENDBRANCH   7  10
ENDBRANCH   4   7
ENDBRANCH   1   4
BRANCH   1  17
ATOM     17  C6  <0> d          -0.013   1.086   0.008  0.00  0.00     0.004 C 
ATOM     18  H1  <0> d          -0.004   0.086   0.010  0.00  0.00     0.051 H 
ATOM     19  C10 <0> d          -0.687   1.601  -1.246  0.00  0.00     0.131 C 
ATOM     20  C9  <0> d           0.330   2.449  -1.990  0.00  0.00    -0.009 C 
ATOM     21  O1  <0> d          -1.823   1.379  -1.591  0.00  0.00    -0.298 OA
ATOM     22  C8  <0> d           1.702   1.924  -1.500  0.00  0.00    -0.058 C 
ATOM     23  H17 <0> d           0.248   3.421  -1.774  0.00  0.00     0.044 H 
ATOM     24  H18 <0> d           0.230   2.306  -3.066  0.00  0.00     0.044 H 
ATOM     25  C7  <0> d           1.430   1.633  -0.003  0.00  0.00    -0.055 C 
ATOM     26  H15 <0> d           2.472   2.688  -1.613  0.00  0.00     0.033 H 
ATOM     27  H16 <0> d           1.979   1.012  -2.029  0.00  0.00     0.033 H 
ATOM     28  H13 <0> d           1.496   2.549   0.584  0.00  0.00     0.034 H 
ATOM     29  H14 <0> d           2.126   0.885   0.377  0.00  0.00     0.034 H 
ENDBRANCH   1  17
TORSDOF 5
