REMARK  3 active torsions:
REMARK  status: ('A' for Active; 'I' for Inactive)
REMARK    1  A    between atoms: C1_1  and  N1_2 
REMARK    2  A    between atoms: N1_2  and  C2_3 
REMARK    3  A    between atoms: C6_7  and  C8_9 
ROOT
ATOM      1  C8  <0> d          -2.462   1.026   0.019  0.00  0.00    -0.078 C 
ATOM      2  C9  <0> d          -3.472   0.427   0.020  0.00  0.00    -0.149 C 
ATOM      3  H9  <0> d          -4.418  -0.134   0.021  0.00  0.00     0.166 H 
ENDROOT
BRANCH   1   4
ATOM      4  C6  <0> d          -1.230   1.757   0.017  0.00  0.00     0.019 A 
ATOM      5  C5  <0> d          -0.013   1.076   0.008  0.00  0.00    -0.065 A 
ATOM      6  C4  <0> d           1.173   1.782   0.000  0.00  0.00    -0.079 A 
ATOM      7  H7  <0> d           0.002  -0.004   0.002  0.00  0.00     0.085 H 
ATOM      8  C3  <0> d           1.160   3.164   0.008  0.00  0.00    -0.058 A 
ATOM      9  H6  <0> d           2.115   1.253  -0.012  0.00  0.00     0.083 H 
ATOM     10  C2  <0> d          -0.048   3.852   0.023  0.00  0.00     0.029 A 
ATOM     11  H5  <0> d           2.091   3.711   0.002  0.00  0.00     0.086 H 
ATOM     12  C7  <0> d          -1.244   3.151   0.030  0.00  0.00    -0.040 A 
ATOM     13  H8  <0> d          -2.184   3.684   0.042  0.00  0.00     0.089 H 
BRANCH  10  14
ATOM     14  N1  <0> d          -0.056   5.249   0.030  0.00  0.00    -0.394 N 
ATOM     15  H4  <0> d          -1.012   5.793   0.042  0.00  0.00     0.159 HD
BRANCH  14  16
ATOM     16  C1  <0> d           1.208   5.989   0.023  0.00  0.00    -0.021 C 
ATOM     17  H1  <0> d           1.000   7.069   0.030  0.00  0.00     0.056 H 
ATOM     18  H2  <0> d           1.778   5.732  -0.882  0.00  0.00     0.056 H 
ATOM     19  H3  <0> d           1.794   5.722   0.914  0.00  0.00     0.056 H 
ENDBRANCH  14  16
ENDBRANCH  10  14
ENDBRANCH   1   4
TORSDOF 3
