REMARK  1 active torsions:
REMARK  status: ('A' for Active; 'I' for Inactive)
REMARK    1  A    between atoms: C1_1  and  C2_2 
ROOT
ATOM      1  C2  <0> d           0.002  -0.004   0.002  0.00  0.00     0.127 C 
ATOM      2  O1  <0> d          -1.345  -0.505   0.027  0.00  0.00    -0.360 OA
ATOM      3  C3  <0> d          -1.279  -1.703   0.839  0.00  0.00     0.042 C 
ATOM      4  C4  <0> d          -0.230  -1.303   1.906  0.00  0.00     0.042 C 
ATOM      5  O2  <0> d           0.695  -0.483   1.162  0.00  0.00    -0.360 OA
ATOM      6  H4  <0> d           0.506  -0.358  -0.897  0.00  0.00     0.128 H 
ATOM      7  H5  <0> d          -0.934  -2.554   0.252  0.00  0.00     0.077 H 
ATOM      8  H6  <0> d          -2.244  -1.915   1.300  0.00  0.00     0.077 H 
ATOM      9  H7  <0> d           0.272  -2.185   2.303  0.00  0.00     0.077 H 
ATOM     10  H8  <0> d          -0.695  -0.729   2.707  0.00  0.00     0.077 H 
ENDROOT
BRANCH   1  11
ATOM     11  C1  <0> d          -0.019   1.526   0.010  0.00  0.00    -0.031 C 
ATOM     12  H1  <0> d           1.004   1.903   0.003  0.00  0.00     0.034 H 
ATOM     13  H2  <0> d          -0.546   1.887  -0.873  0.00  0.00     0.034 H 
ATOM     14  H3  <0> d          -0.529   1.877   0.907  0.00  0.00     0.034 H 
ENDBRANCH   1  11
TORSDOF 1
