REMARK  0 active torsions:
REMARK  status: ('A' for Active; 'I' for Inactive)
ROOT
ATOM      1  C1  <0> d          -2.017   2.746   2.625  0.00  0.00    -0.060 A 
ATOM      2  C2  <0> d          -1.395   1.789   3.348  0.00  0.00    -0.022 A 
ATOM      3  N1  <0> d          -0.601   1.066   2.506  0.00  0.00    -0.369 N 
ATOM      4  H1  <0> d          -0.043   0.314   2.762  0.00  0.00     0.165 HD
ATOM      5  C3  <0> d          -0.720   1.573   1.248  0.00  0.00     0.016 A 
ATOM      6  C4  <0> d          -1.591   2.604   1.295  0.00  0.00    -0.027 A 
ATOM      7  C5  <0> d          -2.007   3.431   0.103  0.00  0.00     0.016 C 
ATOM      8  C6  <0> d          -1.084   3.059  -1.042  0.00  0.00     0.131 C 
ATOM      9  O1  <0> d          -0.628   3.903  -1.777  0.00  0.00    -0.298 OA
ATOM     10  C7  <0> d          -0.755   1.594  -1.233  0.00  0.00    -0.004 C 
ATOM     11  C8  <0> d          -0.013   1.086   0.008  0.00  0.00    -0.020 C 
ATOM     12  H2  <0> d          -2.712   3.482   3.000  0.00  0.00     0.086 H 
ATOM     13  H3  <0> d          -1.507   1.625   4.410  0.00  0.00     0.111 H 
ATOM     14  H4  <0> d          -1.925   4.402   0.326  0.00  0.00     0.051 H 
ATOM     15  H5  <0> d          -3.040   3.205  -0.164  0.00  0.00     0.051 H 
ATOM     16  H6  <0> d          -0.177   1.485  -2.042  0.00  0.00     0.044 H 
ATOM     17  H7  <0> d          -1.675   1.026  -1.366  0.00  0.00     0.044 H 
ATOM     18  H8  <0> d           0.002  -0.004   0.002  0.00  0.00     0.042 H 
ATOM     19  H9  <0> d           1.010   1.463   0.000  0.00  0.00     0.042 H 
ENDROOT
TORSDOF 0
