REMARK  2 active torsions:
REMARK  status: ('A' for Active; 'I' for Inactive)
REMARK    1  A    between atoms: C1_1  and  C2_2 
REMARK    2  A    between atoms: C2_2  and  C3_3 
ROOT
ATOM      1  C3  <0> d           0.002  -0.004   0.002  0.00  0.00     0.032 C 
ATOM      2  H1  <0> d           0.607  -0.362   0.835  0.00  0.00     0.075 H 
ATOM      3  C4  <0> d          -1.426  -0.532   0.150  0.00  0.00     0.039 C 
ATOM      4  O1  <0> d          -1.423  -1.942  -0.109  0.00  0.00    -0.380 OA
ATOM      5  C5  <0> d          -1.147  -2.257  -1.476  0.00  0.00     0.093 C 
ATOM      6  C6  <0> d           0.077  -1.514  -1.933  0.00  0.00     0.241 C 
ATOM      7  O2  <0> d           0.630  -1.869  -2.953  0.00  0.00    -0.271 OA
ATOM      8  N1  <0> d           0.579  -0.474  -1.255  0.00  0.00    -0.353 N 
ATOM      9  H7  <0> d          -1.781  -0.348   1.164  0.00  0.00     0.077 H 
ATOM     10  H8  <0> d          -2.078  -0.030  -0.565  0.00  0.00     0.077 H 
ATOM     11  H9  <0> d          -1.998  -1.968  -2.093  0.00  0.00     0.089 H 
ATOM     12  H10 <0> d          -0.978  -3.329  -1.572  0.00  0.00     0.089 H 
ATOM     13  H11 <0> d           1.356  -0.016  -1.612  0.00  0.00     0.163 HD
ENDROOT
BRANCH   1  14
ATOM     14  C2  <0> d          -0.019   1.526   0.010  0.00  0.00    -0.048 C 
ATOM     15  H5  <0> d          -0.546   1.887  -0.873  0.00  0.00     0.035 H 
ATOM     16  H6  <0> d          -0.529   1.877   0.907  0.00  0.00     0.035 H 
BRANCH  14  17
ATOM     17  C1  <0> d           1.417   2.055  -0.000  0.00  0.00    -0.075 C 
ATOM     18  H2  <0> d           1.944   1.694   0.883  0.00  0.00     0.027 H 
ATOM     19  H3  <0> d           1.927   1.704  -0.897  0.00  0.00     0.027 H 
ATOM     20  H4  <0> d           1.402   3.145   0.006  0.00  0.00     0.027 H 
ENDBRANCH  14  17
ENDBRANCH   1  14
TORSDOF 2
