REMARK  4 active torsions:
REMARK  status: ('A' for Active; 'I' for Inactive)
REMARK    1  A    between atoms: C3_4  and  C6_12 
REMARK    2  A    between atoms: C4_6  and  O3_11 
REMARK    3  A    between atoms: C5_8  and  O2_10 
REMARK    4  A    between atoms: C6_12  and  O4_13 
ROOT
ATOM      1  C1  <0> d           2.027   1.135  -1.240  0.00  0.00    -0.052 C 
ATOM      2  C2  <0> d           2.740   1.966  -1.953  0.00  0.00     0.012 C 
ATOM      3  O1  <0> d           2.871   3.278  -1.655  0.00  0.00    -0.353 OA
ATOM      4  C3  <0> d           2.511   3.697  -0.335  0.00  0.00     0.091 C 
ATOM      5  H1  <0> d           3.259   3.348   0.378  0.00  0.00     0.091 H 
ATOM      6  C4  <0> d           1.145   3.088   0.007  0.00  0.00     0.091 C 
ATOM      7  H2  <0> d           0.830   3.422   0.996  0.00  0.00     0.091 H 
ATOM      8  C5  <0> d           1.286   1.562  -0.002  0.00  0.00     0.081 C 
ATOM      9  H3  <0> d           1.840   1.243   0.881  0.00  0.00     0.093 H 
ATOM     10  H4  <0> d           1.968   0.102  -1.551  0.00  0.00     0.083 H 
ATOM     11  H5  <0> d           3.249   1.586  -2.826  0.00  0.00     0.122 H 
ENDROOT
BRANCH   4  12
ATOM     12  C6  <0> d           2.423   5.224  -0.284  0.00  0.00     0.044 C 
ATOM     13  H8  <0> d           1.749   5.575  -1.065  0.00  0.00     0.078 H 
ATOM     14  H9  <0> d           2.044   5.533   0.690  0.00  0.00     0.078 H 
BRANCH  12  15
ATOM     15  O4  <0> d           3.722   5.783  -0.488  0.00  0.00    -0.398 OA
ATOM     16  H10 <0> d           3.742   6.750  -0.469  0.00  0.00     0.209 HD
ENDBRANCH  12  15
ENDBRANCH   4  12
BRANCH   6  17
ATOM     17  O3  <0> d           0.180   3.489  -0.968  0.00  0.00    -0.390 OA
ATOM     18  H7  <0> d          -0.703   3.122  -0.822  0.00  0.00     0.210 HD
ENDBRANCH   6  17
BRANCH   8  19
ATOM     19  O2  <0> d          -0.011   0.963   0.007  0.00  0.00    -0.389 OA
ATOM     20  H6  <0> d           0.002  -0.004   0.002  0.00  0.00     0.210 HD
ENDBRANCH   8  19
TORSDOF 4
