REMARK  4 active torsions:
REMARK  status: ('A' for Active; 'I' for Inactive)
REMARK    1  A    between atoms: C1_1  and  O1_2 
REMARK    2  A    between atoms: O1_2  and  C2_3 
REMARK    3  A    between atoms: C2_3  and  C3_5 
REMARK    4  A    between atoms: C3_5  and  C4_6 
ROOT
ATOM      1  C4  <0> d           1.106   3.179   0.008  0.00  0.00    -0.031 A 
ATOM      2  C5  <0> d           1.173   1.794   0.001  0.00  0.00    -0.074 A 
ATOM      3  C6  <0> d          -0.013   1.076   0.008  0.00  0.00    -0.066 A 
ATOM      4  C7  <0> d          -1.214   1.759   0.017  0.00  0.00     0.002 A 
ATOM      5  N1  <0> d          -1.240   3.078   0.030  0.00  0.00    -0.273 NA
ATOM      6  C8  <0> d          -0.132   3.793   0.023  0.00  0.00     0.008 A 
ATOM      7  H6  <0> d           2.127   1.287  -0.011  0.00  0.00     0.084 H 
ATOM      8  H7  <0> d           0.002  -0.004   0.002  0.00  0.00     0.085 H 
ATOM      9  H8  <0> d          -2.142   1.207   0.019  0.00  0.00     0.114 H 
ATOM     10  H9  <0> d          -0.193   4.871   0.029  0.00  0.00     0.115 H 
ENDROOT
BRANCH   1  11
ATOM     11  C3  <0> d           2.367   4.004   0.001  0.00  0.00     0.041 C 
ATOM     12  H4  <0> d           2.188   4.945   0.521  0.00  0.00     0.055 H 
ATOM     13  H5  <0> d           3.163   3.456   0.505  0.00  0.00     0.055 H 
BRANCH  11  14
ATOM     14  C2  <0> d           2.775   4.286  -1.422  0.00  0.00     0.262 C 
ATOM     15  O2  <0> d           2.110   3.861  -2.337  0.00  0.00    -0.265 OA
BRANCH  14  16
ATOM     16  O1  <0> d           3.877   5.010  -1.674  0.00  0.00    -0.326 OA
BRANCH  16  17
ATOM     17  C1  <0> d           4.209   5.242  -3.068  0.00  0.00     0.013 C 
ATOM     18  H1  <0> d           4.365   4.287  -3.568  0.00  0.00     0.067 H 
ATOM     19  H2  <0> d           3.391   5.776  -3.552  0.00  0.00     0.067 H 
ATOM     20  H3  <0> d           5.119   5.839  -3.130  0.00  0.00     0.067 H 
ENDBRANCH  16  17
ENDBRANCH  14  16
ENDBRANCH  11  14
ENDBRANCH   1  11
TORSDOF 4
