REMARK  1 active torsions:
REMARK  status: ('A' for Active; 'I' for Inactive)
REMARK    1  A    between atoms: C3_5  and  N6_10 
ROOT
ATOM      1  C1  <0> d          -0.016   1.306   0.009  0.00  0.00     0.040 A 
ATOM      2  C2  <0> d           1.178   2.047   0.002  0.00  0.00     0.041 A 
ATOM      3  N1  <0> d           2.333   1.430  -0.013  0.00  0.00    -0.148 NA
ATOM      4  N2  <0> d           2.353   0.033  -0.020  0.00  0.00     0.121 N 
ATOM      5  C3  <0> d           3.339  -0.903  -0.035  0.00  0.00     0.755 A 
ATOM      6  N3  <0> d           2.759  -2.082  -0.036  0.00  0.00     0.060 NA
ATOM      7  N4  <0> d           1.479  -1.951  -0.023  0.00  0.00     0.062 NA
ATOM      8  C4  <0> d           1.163  -0.669  -0.013  0.00  0.00     0.783 A 
ATOM      9  N5  <0> d           0.002  -0.004   0.002  0.00  0.00    -0.070 NA
ATOM     10  H1  <0> d          -0.963   1.825   0.026  0.00  0.00     0.118 H 
ATOM     11  H2  <0> d           1.143   3.127   0.007  0.00  0.00     0.119 H 
ENDROOT
BRANCH   5  12
ATOM     12  N6  <0> d           4.709  -0.657  -0.048  0.00  0.00    -0.229 N 
ATOM     13  H3  <0> d           5.038   0.255  -0.046  0.00  0.00     0.174 HD
ATOM     14  H4  <0> d           5.335  -1.399  -0.058  0.00  0.00     0.174 HD
ENDBRANCH   5  12
TORSDOF 1
