REMARK  2 active torsions:
REMARK  status: ('A' for Active; 'I' for Inactive)
REMARK    1  A    between atoms: N1_3  and  C6_9 
REMARK    2  A    between atoms: C3_4  and  C4_6 
ROOT
ATOM      1  C4  <0> d           1.685  -1.857  -0.024  0.00  0.00     0.069 C 
ATOM      2  C5  <0> d           1.843  -2.334   1.360  0.00  0.00     0.066 C 
ATOM      3  N3  <0> d           1.965  -2.701   2.428  0.00  0.00    -0.197 NA
ATOM      4  H3  <0> d           0.937  -2.465  -0.534  0.00  0.00     0.066 H 
ATOM      5  H4  <0> d           2.637  -1.939  -0.547  0.00  0.00     0.066 H 
ENDROOT
BRANCH   1   6
ATOM      6  C3  <0> d           1.240  -0.418  -0.012  0.00  0.00     0.123 A 
ATOM      7  N1  <0> d           2.056   0.658  -0.014  0.00  0.00    -0.286 N 
ATOM      8  C2  <0> d           1.259   1.771  -0.000  0.00  0.00     0.003 A 
ATOM      9  C1  <0> d          -0.016   1.337   0.009  0.00  0.00     0.019 A 
ATOM     10  H2  <0> d           1.589   2.799   0.002  0.00  0.00     0.114 H 
ATOM     11  N2  <0> d           0.002  -0.004   0.002  0.00  0.00    -0.245 NA
ATOM     12  H1  <0> d          -0.898   1.960   0.025  0.00  0.00     0.117 H 
BRANCH   7  13
ATOM     13  C6  <0> d           3.521   0.638  -0.028  0.00  0.00     0.283 C 
ATOM     14  F1  <0> d           4.009   1.770   0.633  0.00  0.00    -0.191 F 
ATOM     15  F2  <0> d           3.978  -0.514   0.620  0.00  0.00    -0.191 F 
ATOM     16  H5  <0> d           3.874   0.639  -1.059  0.00  0.00     0.183 H 
ENDBRANCH   7  13
ENDBRANCH   1   6
TORSDOF 2
