REMARK  1 active torsions:
REMARK  status: ('A' for Active; 'I' for Inactive)
REMARK    1  A    between atoms: C5_7  and  C6_8 
ROOT
ATOM      1  C1  <0> d           2.491   3.731  -0.002  0.00  0.00    -0.059 A 
ATOM      2  C2  <0> d           2.510   5.090   0.005  0.00  0.00    -0.009 A 
ATOM      3  C3  <0> d           1.292   5.798   0.020  0.00  0.00     0.287 A 
ATOM      4  O1  <0> d           1.301   7.016   0.026  0.00  0.00    -0.260 OA
ATOM      5  O2  <0> d           0.121   5.139   0.028  0.00  0.00    -0.287 OA
ATOM      6  C4  <0> d           0.077   3.803   0.016  0.00  0.00     0.039 A 
ATOM      7  C5  <0> d           1.238   3.064   0.007  0.00  0.00     0.063 A 
ATOM      8  H1  <0> d           3.413   3.168  -0.013  0.00  0.00     0.085 H 
ATOM      9  H2  <0> d           3.450   5.622  -0.002  0.00  0.00     0.092 H 
ATOM     10  H3  <0> d          -0.878   3.299   0.018  0.00  0.00     0.125 H 
ENDROOT
BRANCH   7  11
ATOM     11  C6  <0> d           1.181   1.591  -0.001  0.00  0.00     0.211 C 
ATOM     12  O3  <0> d           2.209   0.943  -0.014  0.00  0.00    -0.644 OA
ATOM     13  O4  <0> d          -0.011   0.963   0.007  0.00  0.00    -0.644 OA
ENDBRANCH   7  11
TORSDOF 1
