REMARK  4 active torsions:
REMARK  status: ('A' for Active; 'I' for Inactive)
REMARK    1  A    between atoms: C1_1  and  C2_2 
REMARK    2  A    between atoms: C6_9  and  C7_10 
REMARK    3  A    between atoms: C6_9  and  C8_11 
REMARK    4  A    between atoms: C10_13  and  O1_15 
ROOT
ATOM      1  C2  <0> d           1.988   1.665   1.407  0.00  0.00    -0.045 C 
ATOM      2  H1  <0> d           2.202   2.612   1.942  0.00  0.00     0.041 H 
ATOM      3  C3  <0> d           0.807   0.956   2.113  0.00  0.00    -0.025 C 
ATOM      4  H2  <0> d           0.850   0.928   3.207  0.00  0.00     0.044 H 
ATOM      5  C4  <0> d          -0.386   1.809   1.522  0.00  0.00    -0.055 C 
ATOM      6  C5  <0> d          -0.019   1.551   0.011  0.00  0.00    -0.044 C 
ATOM      7  H3  <0> d          -0.679   2.024  -0.720  0.00  0.00     0.041 H 
ATOM      8  C6  <0> d           1.461   2.025  -0.001  0.00  0.00    -0.040 C 
ATOM      9  C9  <0> d           0.002  -0.004   0.002  0.00  0.00    -0.037 C 
ATOM     10  C10 <0> d           0.503  -0.391   1.412  0.00  0.00     0.040 C 
ATOM     11  H4  <0> d          -0.333  -0.886   1.947  0.00  0.00     0.083 H 
ATOM     12  H8  <0> d          -0.311   2.855   1.797  0.00  0.00     0.034 H 
ATOM     13  H9  <0> d          -1.350   1.376   1.782  0.00  0.00     0.034 H 
ATOM     14  H16 <0> d          -1.028  -0.378  -0.124  0.00  0.00     0.037 H 
ATOM     15  H17 <0> d           0.615  -0.433  -0.774  0.00  0.00     0.037 H 
ENDROOT
BRANCH   8  16
ATOM     16  C7  <0> d           2.290   1.348  -1.088  0.00  0.00    -0.069 C 
ATOM     17  H10 <0> d           1.861   1.571  -2.065  0.00  0.00     0.028 H 
ATOM     18  H11 <0> d           3.315   1.718  -1.048  0.00  0.00     0.028 H 
ATOM     19  H12 <0> d           2.287   0.269  -0.928  0.00  0.00     0.028 H 
ENDBRANCH   8  16
BRANCH   8  20
ATOM     20  C8  <0> d           1.518   3.549  -0.197  0.00  0.00    -0.069 C 
ATOM     21  H13 <0> d           0.989   4.040   0.620  0.00  0.00     0.028 H 
ATOM     22  H14 <0> d           2.558   3.876  -0.204  0.00  0.00     0.028 H 
ATOM     23  H15 <0> d           1.049   3.812  -1.145  0.00  0.00     0.028 H 
ENDBRANCH   8  20
BRANCH   1  24
ATOM     24  C1  <0> d           3.271   0.853   1.345  0.00  0.00    -0.072 C 
ATOM     25  H5  <0> d           3.082  -0.085   0.823  0.00  0.00     0.028 H 
ATOM     26  H6  <0> d           4.034   1.419   0.811  0.00  0.00     0.028 H 
ATOM     27  H7  <0> d           3.616   0.642   2.357  0.00  0.00     0.028 H 
ENDBRANCH   1  24
BRANCH  10  28
ATOM     28  O1  <0> d           1.592  -1.297   1.362  0.00  0.00    -0.395 OA
ATOM     29  H18 <0> d           1.383  -2.141   0.939  0.00  0.00     0.210 HD
ENDBRANCH  10  28
TORSDOF 4
