REMARK  1 active torsions:
REMARK  status: ('A' for Active; 'I' for Inactive)
REMARK    1  A    between atoms: C4_4  and  C8_11 
ROOT
ATOM      1  C1  <0> d          -0.565   1.811  -1.275  0.00  0.00    -0.055 C 
ATOM      2  C2  <0> d          -0.013   1.086   0.008  0.00  0.00    -0.045 C 
ATOM      3  C3  <0> d           1.373   1.831  -0.001  0.00  0.00    -0.055 C 
ATOM      4  C4  <0> d           0.807   3.279   0.185  0.00  0.00    -0.022 C 
ATOM      5  H1  <0> d           1.494   4.120   0.090  0.00  0.00     0.044 H 
ATOM      6  C5  <0> d          -0.513   3.272  -0.707  0.00  0.00    -0.022 C 
ATOM      7  H2  <0> d          -0.686   4.110  -1.382  0.00  0.00     0.044 H 
ATOM      8  C6  <0> d          -1.532   2.992   0.480  0.00  0.00     0.049 C 
ATOM      9  H3  <0> d          -2.590   2.910   0.229  0.00  0.00     0.084 H 
ATOM     10  C7  <0> d          -0.773   1.777   1.189  0.00  0.00     0.000 C 
ATOM     11  C8  <0> d           0.097   3.014   1.577  0.00  0.00     0.049 C 
ATOM     12  H4  <0> d           0.731   2.968   2.463  0.00  0.00     0.084 H 
ATOM     13  O1  <0> d          -1.151   3.778   1.623  0.00  0.00    -0.379 OA
ATOM     14  H5  <0> d           0.103   1.694  -2.128  0.00  0.00     0.034 H 
ATOM     15  H6  <0> d          -1.582   1.498  -1.514  0.00  0.00     0.034 H 
ATOM     16  H7  <0> d           0.002  -0.004   0.002  0.00  0.00     0.041 H 
ATOM     17  H8  <0> d           2.002   1.529   0.836  0.00  0.00     0.034 H 
ATOM     18  H9  <0> d           1.891   1.715  -0.954  0.00  0.00     0.034 H 
ATOM     19  H10 <0> d          -1.259   1.149   1.935  0.00  0.00     0.048 H 
ENDROOT
TORSDOF 1
