REMARK  5 active torsions:
REMARK  status: ('A' for Active; 'I' for Inactive)
REMARK    1  A    between atoms: C1_1  and  C2_2 
REMARK    2  A    between atoms: C2_2  and  O1_3 
REMARK    3  A    between atoms: O1_3  and  C3_4 
REMARK    4  A    between atoms: C8_9  and  N1_10 
REMARK    5  A    between atoms: N1_10  and  C9_11 
ROOT
ATOM      1  C3  <0> d           0.002  -0.004   0.002  0.00  0.00     0.095 A 
ATOM      2  C4  <0> d           1.210  -0.682  -0.019  0.00  0.00    -0.049 A 
ATOM      3  C5  <0> d           1.227  -2.065  -0.021  0.00  0.00    -0.080 A 
ATOM      4  C6  <0> d           0.041  -2.775  -0.013  0.00  0.00    -0.081 A 
ATOM      5  C7  <0> d          -1.169  -2.106   0.002  0.00  0.00    -0.055 A 
ATOM      6  C8  <0> d          -1.194  -0.719   0.010  0.00  0.00     0.061 A 
ATOM      7  H6  <0> d           2.138  -0.130  -0.029  0.00  0.00     0.087 H 
ATOM      8  H7  <0> d           2.170  -2.591  -0.034  0.00  0.00     0.083 H 
ATOM      9  H8  <0> d           0.059  -3.854  -0.019  0.00  0.00     0.083 H 
ATOM     10  H9  <0> d          -2.094  -2.663   0.007  0.00  0.00     0.087 H 
ENDROOT
BRANCH   1  11
ATOM     11  O1  <0> d          -0.016   1.356   0.009  0.00  0.00    -0.349 OA
BRANCH  11  12
ATOM     12  C2  <0> d           1.248   2.022   0.001  0.00  0.00     0.023 C 
ATOM     13  H4  <0> d           1.805   1.739  -0.904  0.00  0.00     0.074 H 
ATOM     14  H5  <0> d           1.823   1.729   0.892  0.00  0.00     0.074 H 
BRANCH  12  15
ATOM     15  C1  <0> d           1.027   3.536   0.011  0.00  0.00    -0.056 C 
ATOM     16  H1  <0> d           2.000   4.048   0.005  0.00  0.00     0.030 H 
ATOM     17  H2  <0> d           0.469   3.819   0.916  0.00  0.00     0.030 H 
ATOM     18  H3  <0> d           0.452   3.829  -0.880  0.00  0.00     0.030 H 
ENDBRANCH  12  15
ENDBRANCH  11  12
ENDBRANCH   1  11
BRANCH   6  19
ATOM     19  N1  <0> d          -2.417  -0.039   0.024  0.00  0.00    -0.392 N 
ATOM     20  H10 <0> d          -2.436   1.061   0.030  0.00  0.00     0.159 HD
BRANCH  19  21
ATOM     21  C9  <0> d          -3.674  -0.792   0.032  0.00  0.00    -0.021 C 
ATOM     22  H11 <0> d          -4.521  -0.091   0.044  0.00  0.00     0.056 H 
ATOM     23  H12 <0> d          -3.713  -1.430   0.928  0.00  0.00     0.056 H 
ATOM     24  H13 <0> d          -3.730  -1.421  -0.868  0.00  0.00     0.056 H 
ENDBRANCH  19  21
ENDBRANCH   6  19
TORSDOF 5
