REMARK  3 active torsions:
REMARK  status: ('A' for Active; 'I' for Inactive)
REMARK    1  A    between atoms: C1_1  and  O1_2 
REMARK    2  A    between atoms: O1_2  and  C2_3 
REMARK    3  A    between atoms: C7_8  and  C8_9 
ROOT
ATOM      1  C8  <0> d           0.080  -2.800  -0.085  0.00  0.00    -0.075 C 
ATOM      2  C9  <0> d          -0.395  -3.452   0.768  0.00  0.00    -0.149 C 
ATOM      3  H7  <0> d          -0.821  -4.035   1.531  0.00  0.00     0.166 H 
ENDROOT
BRANCH   1   4
ATOM      4  C7  <0> d           0.660  -2.005  -1.125  0.00  0.00     0.051 A 
ATOM      5  C2  <0> d           0.605  -0.606  -1.054  0.00  0.00     0.086 A 
ATOM      6  C3  <0> d           1.172   0.163  -2.060  0.00  0.00    -0.048 A 
ATOM      7  C4  <0> d           1.785  -0.442  -3.135  0.00  0.00    -0.060 A 
ATOM      8  H4  <0> d           1.132   1.241  -2.001  0.00  0.00     0.087 H 
ATOM      9  C5  <0> d           1.841  -1.837  -3.219  0.00  0.00     0.046 A 
ATOM     10  H5  <0> d           2.224   0.162  -3.915  0.00  0.00     0.086 H 
ATOM     11  C6  <0> d           1.274  -2.619  -2.212  0.00  0.00    -0.042 A 
ATOM     12  C10 <0> d           2.478  -2.463  -4.338  0.00  0.00     0.099 C 
ATOM     13  H6  <0> d           1.315  -3.696  -2.275  0.00  0.00     0.088 H 
ATOM     14  N1  <0> d           2.984  -2.959  -5.226  0.00  0.00    -0.191 NA
BRANCH   5  15
ATOM     15  O1  <0> d           0.002  -0.004   0.002  0.00  0.00    -0.354 OA
BRANCH  15  16
ATOM     16  C1  <0> d          -0.017   1.425   0.010  0.00  0.00     0.010 C 
ATOM     17  H1  <0> d           1.005   1.802   0.002  0.00  0.00     0.066 H 
ATOM     18  H2  <0> d          -0.544   1.786  -0.873  0.00  0.00     0.066 H 
ATOM     19  H3  <0> d          -0.527   1.776   0.907  0.00  0.00     0.066 H 
ENDBRANCH  15  16
ENDBRANCH   5  15
ENDBRANCH   1   4
TORSDOF 3
