REMARK  3 active torsions:
REMARK  status: ('A' for Active; 'I' for Inactive)
REMARK    1  A    between atoms: C1_1  and  C2_2 
REMARK    2  A    between atoms: C3_3  and  C7_11 
REMARK    3  A    between atoms: C5_7  and  C6_8 
ROOT
ATOM      1  C2  <0> d           0.002  -0.004   0.002  0.00  0.00    -0.021 A 
ATOM      2  C3  <0> d           0.008  -0.803  -1.078  0.00  0.00     0.012 A 
ATOM      3  N1  <0> d           0.028  -2.106  -0.670  0.00  0.00    -0.368 N 
ATOM      4  H1  <0> d           0.036  -2.872  -1.265  0.00  0.00     0.165 HD
ATOM      5  C4  <0> d           0.035  -2.177   0.673  0.00  0.00    -0.006 A 
ATOM      6  C5  <0> d           0.026  -0.890   1.172  0.00  0.00     0.064 A 
ATOM      7  H5  <0> d           0.050  -3.084   1.259  0.00  0.00     0.113 H 
ENDROOT
BRANCH   1   8
ATOM      8  C1  <0> d          -0.018   1.503   0.010  0.00  0.00    -0.048 C 
ATOM      9  H2  <0> d           1.004   1.880   0.003  0.00  0.00     0.033 H 
ATOM     10  H3  <0> d          -0.545   1.864  -0.873  0.00  0.00     0.033 H 
ATOM     11  H4  <0> d          -0.529   1.854   0.907  0.00  0.00     0.033 H 
ENDBRANCH   1   8
BRANCH   6  12
ATOM     12  C6  <0> d           0.035  -0.490   2.585  0.00  0.00     0.211 C 
ATOM     13  O1  <0> d           0.055  -1.343   3.463  0.00  0.00    -0.644 OA
ATOM     14  O2  <0> d           0.023   0.697   2.885  0.00  0.00    -0.644 OA
ENDBRANCH   6  12
BRANCH   2  15
ATOM     15  C7  <0> d          -0.005  -0.337  -2.511  0.00  0.00    -0.037 C 
ATOM     16  H6  <0> d           1.019  -0.210  -2.861  0.00  0.00     0.035 H 
ATOM     17  H7  <0> d          -0.511  -1.077  -3.130  0.00  0.00     0.035 H 
ATOM     18  H8  <0> d          -0.532   0.615  -2.578  0.00  0.00     0.035 H 
ENDBRANCH   2  15
TORSDOF 3
