REMARK  4 active torsions:
REMARK  status: ('A' for Active; 'I' for Inactive)
REMARK    1  A    between atoms: C1_1  and  C2_2 
REMARK    2  A    between atoms: C2_2  and  N1_3 
REMARK    3  A    between atoms: N1_3  and  C3_4 
REMARK    4  A    between atoms: C7_8  and  C9_10 
ROOT
ATOM      1  C3  <0> d          -0.205   1.221   2.475  0.00  0.00     0.028 A 
ATOM      2  C4  <0> d           0.933   0.432   2.590  0.00  0.00    -0.058 A 
ATOM      3  C5  <0> d           1.421   0.103   3.839  0.00  0.00    -0.080 A 
ATOM      4  C6  <0> d           0.773   0.550   4.976  0.00  0.00    -0.077 A 
ATOM      5  C7  <0> d          -0.363   1.331   4.866  0.00  0.00    -0.060 A 
ATOM      6  C8  <0> d          -0.854   1.668   3.619  0.00  0.00    -0.052 A 
ATOM      7  H7  <0> d           1.438   0.079   1.702  0.00  0.00     0.086 H 
ATOM      8  H8  <0> d           2.308  -0.507   3.928  0.00  0.00     0.083 H 
ATOM      9  H9  <0> d           1.154   0.288   5.952  0.00  0.00     0.084 H 
ATOM     10  H10 <0> d          -1.740   2.278   3.534  0.00  0.00     0.087 H 
ENDROOT
BRANCH   1  11
ATOM     11  N1  <0> d          -0.698   1.558   1.213  0.00  0.00    -0.390 N 
ATOM     12  H6  <0> d          -1.495   2.106   1.135  0.00  0.00     0.159 HD
BRANCH  11  13
ATOM     13  C2  <0> d          -0.013   1.086   0.008  0.00  0.00    -0.011 C 
ATOM     14  H4  <0> d           0.002  -0.004   0.002  0.00  0.00     0.063 H 
ATOM     15  H5  <0> d           1.010   1.463   0.000  0.00  0.00     0.063 H 
BRANCH  13  16
ATOM     16  C1  <0> d          -0.753   1.593  -1.232  0.00  0.00    -0.061 C 
ATOM     17  H1  <0> d          -0.767   2.683  -1.226  0.00  0.00     0.029 H 
ATOM     18  H2  <0> d          -0.242   1.241  -2.128  0.00  0.00     0.029 H 
ATOM     19  H3  <0> d          -1.775   1.215  -1.224  0.00  0.00     0.029 H 
ENDBRANCH  13  16
ENDBRANCH  11  13
ENDBRANCH   1  11
BRANCH   5  20
ATOM     20  C9  <0> d          -1.066   1.816   6.107  0.00  0.00    -0.051 C 
ATOM     21  H11 <0> d          -1.818   1.086   6.407  0.00  0.00     0.033 H 
ATOM     22  H12 <0> d          -0.340   1.941   6.911  0.00  0.00     0.033 H 
ATOM     23  H13 <0> d          -1.549   2.771   5.902  0.00  0.00     0.033 H 
ENDBRANCH   5  20
TORSDOF 4
