REMARK  0 active torsions:
REMARK  status: ('A' for Active; 'I' for Inactive)
ROOT
ATOM      1  C1  <0> d          -0.019   1.522   0.010  0.00  0.00    -0.057 C 
ATOM      2  C2  <0> d           1.394   2.090  -0.000  0.00  0.00    -0.062 C 
ATOM      3  C3  <0> d           2.160   1.832   1.281  0.00  0.00    -0.042 C 
ATOM      4  C4  <0> d           2.389   0.329   1.469  0.00  0.00     0.033 A 
ATOM      5  C5  <0> d           3.804  -0.147   1.787  0.00  0.00    -0.039 A 
ATOM      6  C6  <0> d           3.198  -0.411   0.406  0.00  0.00    -0.039 A 
ATOM      7  N1  <0> d           1.267  -0.380   2.098  0.00  0.00    -0.352 N 
ATOM      8  C7  <0> d           0.116  -0.509   1.426  0.00  0.00     0.218 C 
ATOM      9  O1  <0> d          -0.840  -1.033   1.960  0.00  0.00    -0.274 OA
ATOM     10  C8  <0> d           0.002  -0.004   0.002  0.00  0.00     0.009 C 
ATOM     11  H1  <0> d          -0.536   1.868   0.905  0.00  0.00     0.033 H 
ATOM     12  H2  <0> d          -0.553   1.877  -0.871  0.00  0.00     0.033 H 
ATOM     13  H3  <0> d           1.943   1.645  -0.830  0.00  0.00     0.033 H 
ATOM     14  H4  <0> d           1.336   3.166  -0.161  0.00  0.00     0.033 H 
ATOM     15  H5  <0> d           3.122   2.341   1.235  0.00  0.00     0.036 H 
ATOM     16  H6  <0> d           1.590   2.218   2.126  0.00  0.00     0.036 H 
ATOM     17  H7  <0> d           4.586   0.609   1.857  0.00  0.00     0.036 H 
ATOM     18  H8  <0> d           3.909  -0.997   2.461  0.00  0.00     0.036 H 
ATOM     19  H9  <0> d           2.905  -1.435   0.172  0.00  0.00     0.036 H 
ATOM     20  H10 <0> d           3.581   0.172  -0.432  0.00  0.00     0.036 H 
ATOM     21  H11 <0> d           1.358  -0.750   2.990  0.00  0.00     0.163 HD
ATOM     22  H12 <0> d          -0.919  -0.378  -0.445  0.00  0.00     0.047 H 
ATOM     23  H13 <0> d           0.857  -0.353  -0.578  0.00  0.00     0.047 H 
ENDROOT
TORSDOF 0
