REMARK  1 active torsions:
REMARK  status: ('A' for Active; 'I' for Inactive)
REMARK    1  A    between atoms: C4_4  and  C7_7 
ROOT
ATOM      1  C1  <0> d          -0.017   1.382   0.010  0.00  0.00    -0.083 A 
ATOM      2  C2  <0> d           1.169   2.100   0.002  0.00  0.00    -0.082 A 
ATOM      3  C3  <0> d           2.378   1.440  -0.013  0.00  0.00    -0.071 A 
ATOM      4  C4  <0> d           2.407   0.037  -0.021  0.00  0.00    -0.006 A 
ATOM      5  C5  <0> d           1.201  -0.681  -0.013  0.00  0.00    -0.071 A 
ATOM      6  C6  <0> d           0.002  -0.004   0.002  0.00  0.00    -0.082 A 
ATOM      7  H1  <0> d          -0.961   1.905   0.026  0.00  0.00     0.083 H 
ATOM      8  H2  <0> d           1.145   3.179   0.008  0.00  0.00     0.083 H 
ATOM      9  H3  <0> d           3.301   2.001  -0.019  0.00  0.00     0.084 H 
ATOM     10  H4  <0> d           1.214  -1.760  -0.019  0.00  0.00     0.084 H 
ATOM     11  H5  <0> d          -0.927  -0.555   0.008  0.00  0.00     0.083 H 
ENDROOT
BRANCH   4  12
ATOM     12  C7  <0> d           3.692  -0.675  -0.037  0.00  0.00     0.090 A 
ATOM     13  C9  <0> d           3.903  -2.155  -0.047  0.00  0.00     0.036 A 
ATOM     14  N2  <0> d           5.191  -2.334  -0.065  0.00  0.00    -0.203 NA
ATOM     15  H6  <0> d           3.141  -2.921  -0.043  0.00  0.00     0.118 H 
ATOM     16  C8  <0> d           5.801  -1.138  -0.057  0.00  0.00     0.368 A 
ATOM     17  N1  <0> d           4.898  -0.142  -0.041  0.00  0.00    -0.191 NA
ATOM     18  O1  <0> d           7.005  -0.977  -0.064  0.00  0.00    -0.243 OA
ENDBRANCH   4  12
TORSDOF 1
