REMARK  4 active torsions:
REMARK  status: ('A' for Active; 'I' for Inactive)
REMARK    1  A    between atoms: C1_1  and  O1_2 
REMARK    2  A    between atoms: O1_2  and  C2_3 
REMARK    3  A    between atoms: C2_3  and  O3_9 
REMARK    4  A    between atoms: O3_9  and  C7_10 
ROOT
ATOM      1  C2  <0> d           0.710  -0.477  -1.126  0.00  0.00     0.166 C 
ATOM      2  C3  <0> d          -0.025   0.187  -2.295  0.00  0.00     0.007 C 
ATOM      3  C4  <0> d           0.629  -0.244  -3.610  0.00  0.00     0.024 C 
ATOM      4  O2  <0> d           0.599  -1.670  -3.711  0.00  0.00    -0.391 OA
ATOM      5  C5  <0> d           1.310  -2.343  -2.670  0.00  0.00     0.024 C 
ATOM      6  C6  <0> d           0.684  -1.996  -1.317  0.00  0.00     0.007 C 
ATOM      7  H4  <0> d          -1.070  -0.121  -2.290  0.00  0.00     0.044 H 
ATOM      8  H5  <0> d           0.037   1.271  -2.196  0.00  0.00     0.044 H 
ATOM      9  H6  <0> d           1.664   0.099  -3.631  0.00  0.00     0.074 H 
ATOM     10  H7  <0> d           0.084   0.191  -4.447  0.00  0.00     0.074 H 
ATOM     11  H8  <0> d           2.354  -2.027  -2.679  0.00  0.00     0.074 H 
ATOM     12  H9  <0> d           1.256  -3.420  -2.831  0.00  0.00     0.074 H 
ATOM     13  H10 <0> d           1.252  -2.474  -0.519  0.00  0.00     0.044 H 
ATOM     14  H11 <0> d          -0.348  -2.349  -1.293  0.00  0.00     0.044 H 
ENDROOT
BRANCH   1  15
ATOM     15  O1  <0> d           0.061  -0.138   0.101  0.00  0.00    -0.360 OA
BRANCH  15  16
ATOM     16  C1  <0> d           0.702  -0.667   1.263  0.00  0.00     0.007 C 
ATOM     17  H1  <0> d           0.637  -1.755   1.251  0.00  0.00     0.066 H 
ATOM     18  H2  <0> d           1.750  -0.366   1.269  0.00  0.00     0.066 H 
ATOM     19  H3  <0> d           0.209  -0.284   2.156  0.00  0.00     0.066 H 
ENDBRANCH  15  16
ENDBRANCH   1  15
BRANCH   1  20
ATOM     20  O3  <0> d           2.065  -0.023  -1.091  0.00  0.00    -0.360 OA
BRANCH  20  21
ATOM     21  C7  <0> d           2.203   1.376  -0.836  0.00  0.00     0.007 C 
ATOM     22  H12 <0> d           1.787   1.941  -1.670  0.00  0.00     0.066 H 
ATOM     23  H13 <0> d           1.667   1.633   0.079  0.00  0.00     0.066 H 
ATOM     24  H14 <0> d           3.258   1.622  -0.720  0.00  0.00     0.066 H 
ENDBRANCH  20  21
ENDBRANCH   1  20
TORSDOF 4
