REMARK  1 active torsions:
REMARK  status: ('A' for Active; 'I' for Inactive)
REMARK    1  A    between atoms: C1_1  and  C2_2 
ROOT
ATOM      1  C2  <0> d           0.002  -0.004   0.002  0.00  0.00     0.028 A 
ATOM      2  C3  <0> d          -1.095  -0.761   0.003  0.00  0.00    -0.063 A 
ATOM      3  C4  <0> d          -0.593  -2.180  -0.067  0.00  0.00     0.060 A 
ATOM      4  H1  <0> d          -0.895  -2.672  -0.991  0.00  0.00     0.067 H 
ATOM      5  C5  <0> d           0.920  -1.999   0.020  0.00  0.00     0.027 A 
ATOM      6  N1  <0> d           1.140  -0.745  -0.013  0.00  0.00    -0.262 NA
ATOM      7  C6  <0> d           1.844  -3.170   0.242  0.00  0.00    -0.027 C 
ATOM      8  C7  <0> d           1.361  -3.881   1.517  0.00  0.00    -0.054 C 
ATOM      9  C8  <0> d          -0.122  -4.232   1.417  0.00  0.00    -0.008 C 
ATOM     10  C9  <0> d          -0.967  -2.995   1.151  0.00  0.00     0.140 C 
ATOM     11  O1  <0> d          -1.877  -2.674   1.877  0.00  0.00    -0.297 OA
ATOM     12  H5  <0> d          -2.122  -0.429   0.045  0.00  0.00     0.081 H 
ATOM     13  H6  <0> d           1.792  -3.852  -0.607  0.00  0.00     0.042 H 
ATOM     14  H7  <0> d           2.866  -2.817   0.377  0.00  0.00     0.042 H 
ATOM     15  H8  <0> d           1.937  -4.795   1.658  0.00  0.00     0.034 H 
ATOM     16  H9  <0> d           1.516  -3.225   2.374  0.00  0.00     0.034 H 
ATOM     17  H10 <0> d          -0.268  -4.939   0.599  0.00  0.00     0.044 H 
ATOM     18  H11 <0> d          -0.446  -4.693   2.350  0.00  0.00     0.044 H 
ENDROOT
BRANCH   1  19
ATOM     19  C1  <0> d          -0.018   1.503   0.010  0.00  0.00    -0.036 C 
ATOM     20  H2  <0> d           1.004   1.880   0.003  0.00  0.00     0.035 H 
ATOM     21  H3  <0> d          -0.545   1.864  -0.873  0.00  0.00     0.035 H 
ATOM     22  H4  <0> d          -0.529   1.854   0.907  0.00  0.00     0.035 H 
ENDBRANCH   1  19
TORSDOF 1
