REMARK  5 active torsions:
REMARK  status: ('A' for Active; 'I' for Inactive)
REMARK    1  A    between atoms: C1_1  and  C2_2 
REMARK    2  A    between atoms: C2_2  and  C3_3 
REMARK    3  A    between atoms: C2_2  and  C4_4 
REMARK    4  A    between atoms: C2_2  and  O2_7 
REMARK    5  A    between atoms: C4_4  and  C5_5 
ROOT
ATOM      1  C2  <0> d           2.696   3.548  -0.005  0.00  0.00     0.060 C 
ENDROOT
BRANCH   1   2
ATOM      2  C1  <0> d           3.385   3.017  -1.263  0.00  0.00    -0.048 C 
ATOM      3  H1  <0> d           2.877   3.405  -2.147  0.00  0.00     0.031 H 
ATOM      4  H2  <0> d           4.426   3.340  -1.272  0.00  0.00     0.031 H 
ATOM      5  H3  <0> d           3.343   1.928  -1.269  0.00  0.00     0.031 H 
ENDBRANCH   1   2
BRANCH   1   6
ATOM      6  C3  <0> d           2.755   5.077   0.003  0.00  0.00    -0.048 C 
ATOM      7  H4  <0> d           2.265   5.455   0.900  0.00  0.00     0.031 H 
ATOM      8  H5  <0> d           3.796   5.400  -0.005  0.00  0.00     0.031 H 
ATOM      9  H6  <0> d           2.248   5.465  -0.880  0.00  0.00     0.031 H 
ENDBRANCH   1   6
BRANCH   1  10
ATOM     10  C4  <0> d           1.235   3.094   0.007  0.00  0.00     0.043 C 
ATOM     11  H7  <0> d           0.727   3.482  -0.876  0.00  0.00     0.053 H 
ATOM     12  H8  <0> d           0.744   3.473   0.904  0.00  0.00     0.053 H 
BRANCH  10  13
ATOM     13  C5  <0> d           1.177   1.588  -0.001  0.00  0.00     0.175 C 
ATOM     14  O1  <0> d           2.199   0.944  -0.014  0.00  0.00    -0.648 OA
ATOM     15  O3  <0> d          -0.011   0.963   0.007  0.00  0.00    -0.648 OA
ENDBRANCH  10  13
ENDBRANCH   1  10
BRANCH   1  16
ATOM     16  O2  <0> d           3.362   3.040   1.153  0.00  0.00    -0.390 OA
ATOM     17  H9  <0> d           2.978   3.336   1.990  0.00  0.00     0.210 HD
ENDBRANCH   1  16
TORSDOF 5
