REMARK  4 active torsions:
REMARK  status: ('A' for Active; 'I' for Inactive)
REMARK    1  A    between atoms: C1_1  and  C2_2 
REMARK    2  A    between atoms: C2_2  and  C3_3 
REMARK    3  A    between atoms: C2_2  and  C5_5 
REMARK    4  A    between atoms: C2_2  and  O1_9 
ROOT
ATOM      1  C3  <0> d          -2.110   1.070   1.277  0.00  0.00    -0.079 C 
ATOM      2  C4  <0> d          -3.211   0.663   1.286  0.00  0.00    -0.151 C 
ATOM      3  H4  <0> d          -4.196   0.300   1.293  0.00  0.00     0.166 H 
ENDROOT
BRANCH   1   4
ATOM      4  C2  <0> d          -0.729   1.579   1.267  0.00  0.00     0.120 C 
BRANCH   4   5
ATOM      5  C1  <0> d          -0.013   1.086   0.008  0.00  0.00    -0.037 C 
ATOM      6  H1  <0> d           0.002  -0.004   0.002  0.00  0.00     0.033 H 
ATOM      7  H2  <0> d           1.010   1.463   0.000  0.00  0.00     0.033 H 
ATOM      8  H3  <0> d          -0.540   1.447  -0.875  0.00  0.00     0.033 H 
ENDBRANCH   4   5
BRANCH   4   9
ATOM      9  C5  <0> d           0.011   1.072   2.506  0.00  0.00    -0.014 C 
ATOM     10  C8  <0> d          -0.697   1.412   3.828  0.00  0.00    -0.058 C 
ATOM     11  C7  <0> d          -0.303   0.005   4.309  0.00  0.00    -0.064 C 
ATOM     12  H10 <0> d          -0.217   2.215   4.387  0.00  0.00     0.033 H 
ATOM     13  H11 <0> d          -1.773   1.552   3.724  0.00  0.00     0.033 H 
ATOM     14  C6  <0> d          -0.266  -0.406   2.828  0.00  0.00    -0.058 C 
ATOM     15  H8  <0> d           0.671  -0.032   4.797  0.00  0.00     0.033 H 
ATOM     16  H9  <0> d          -1.083  -0.495   4.883  0.00  0.00     0.033 H 
ATOM     17  H6  <0> d          -1.224  -0.762   2.450  0.00  0.00     0.033 H 
ATOM     18  H7  <0> d           0.562  -1.069   2.579  0.00  0.00     0.033 H 
ATOM     19  H5  <0> d           1.071   1.328   2.501  0.00  0.00     0.046 H 
ENDBRANCH   4   9
BRANCH   4  20
ATOM     20  O1  <0> d          -0.748   3.008   1.275  0.00  0.00    -0.378 OA
ATOM     21  H12 <0> d          -1.188   3.391   2.046  0.00  0.00     0.211 HD
ENDBRANCH   4  20
ENDBRANCH   1   4
TORSDOF 4
