REMARK  3 active torsions:
REMARK  status: ('A' for Active; 'I' for Inactive)
REMARK    1  A    between atoms: C1_1  and  C2_2 
REMARK    2  A    between atoms: C2_2  and  C3_3 
REMARK    3  A    between atoms: C4_6  and  N3_8 
ROOT
ATOM      1  C3  <0> d          -0.749   3.086   1.275  0.00  0.00     0.170 A 
ATOM      2  N1  <0> d          -1.671   3.845   0.758  0.00  0.00    -0.125 NA
ATOM      3  N2  <0> d          -1.369   5.081   0.952  0.00  0.00    -0.104 NA
ATOM      4  C4  <0> d          -0.230   5.153   1.596  0.00  0.00     0.265 A 
ATOM      5  O1  <0> d           0.186   3.892   1.814  0.00  0.00    -0.260 OA
ENDROOT
BRANCH   1   6
ATOM      6  C2  <0> d          -0.729   1.579   1.267  0.00  0.00    -0.005 C 
ATOM      7  H4  <0> d          -1.751   1.202   1.275  0.00  0.00     0.044 H 
ATOM      8  H5  <0> d          -0.202   1.218   2.150  0.00  0.00     0.044 H 
BRANCH   6   9
ATOM      9  C1  <0> d          -0.013   1.086   0.008  0.00  0.00    -0.069 C 
ATOM     10  H1  <0> d           0.002  -0.004   0.002  0.00  0.00     0.028 H 
ATOM     11  H2  <0> d           1.010   1.463   0.000  0.00  0.00     0.028 H 
ATOM     12  H3  <0> d          -0.540   1.447  -0.875  0.00  0.00     0.028 H 
ENDBRANCH   6   9
ENDBRANCH   1   6
BRANCH   4  13
ATOM     13  N3  <0> d           0.423   6.310   1.980  0.00  0.00    -0.362 N 
ATOM     14  H6  <0> d           1.266   6.256   2.456  0.00  0.00     0.159 HD
ATOM     15  H7  <0> d           0.037   7.176   1.773  0.00  0.00     0.159 HD
ENDBRANCH   4  13
TORSDOF 3
