REMARK  1 active torsions:
REMARK  status: ('A' for Active; 'I' for Inactive)
REMARK    1  A    between atoms: C2_2  and  N2_11 
ROOT
ATOM      1  C1  <0> d          -0.017   1.381   0.010  0.00  0.00    -0.046 A 
ATOM      2  C2  <0> d           1.197   2.065   0.002  0.00  0.00     0.044 A 
ATOM      3  C3  <0> d           2.377   1.336  -0.014  0.00  0.00     0.030 A 
ATOM      4  N1  <0> d           2.354   0.019  -0.023  0.00  0.00    -0.234 NA
ATOM      5  C4  <0> d           1.218  -0.667  -0.017  0.00  0.00     0.170 A 
ATOM      6  C5  <0> d           0.002  -0.004   0.002  0.00  0.00    -0.003 A 
ATOM      7  C6  <0> d          -1.306  -0.751   0.020  0.00  0.00    -0.035 C 
ATOM      8  C7  <0> d          -1.079  -2.198  -0.424  0.00  0.00    -0.041 C 
ATOM      9  C8  <0> d           0.122  -2.756   0.350  0.00  0.00     0.028 C 
ATOM     10  O1  <0> d           1.287  -2.024  -0.034  0.00  0.00    -0.334 OA
ATOM     11  H1  <0> d          -0.953   1.920   0.026  0.00  0.00     0.088 H 
ATOM     12  H2  <0> d           3.325   1.854  -0.019  0.00  0.00     0.118 H 
ATOM     13  H3  <0> d          -1.715  -0.742   1.030  0.00  0.00     0.040 H 
ATOM     14  H4  <0> d          -2.009  -0.269  -0.659  0.00  0.00     0.040 H 
ATOM     15  H5  <0> d          -1.966  -2.793  -0.206  0.00  0.00     0.036 H 
ATOM     16  H6  <0> d          -0.871  -2.226  -1.494  0.00  0.00     0.036 H 
ATOM     17  H7  <0> d          -0.047  -2.641   1.421  0.00  0.00     0.075 H 
ATOM     18  H8  <0> d           0.256  -3.811   0.109  0.00  0.00     0.075 H 
ENDROOT
BRANCH   2  19
ATOM     19  N2  <0> d           1.225   3.464   0.009  0.00  0.00    -0.398 N 
ATOM     20  H9  <0> d           0.395   3.966   0.019  0.00  0.00     0.156 HD
ATOM     21  H10 <0> d           2.075   3.932   0.003  0.00  0.00     0.156 HD
ENDBRANCH   2  19
TORSDOF 1
