REMARK  5 active torsions:
REMARK  status: ('A' for Active; 'I' for Inactive)
REMARK    1  A    between atoms: C1_1  and  C2_2 
REMARK    2  A    between atoms: C2_2  and  C3_3 
REMARK    3  A    between atoms: C3_3  and  C4_5 
REMARK    4  A    between atoms: C5_6  and  C9_11 
REMARK    5  A    between atoms: C7_8  and  C8_10 
ROOT
ATOM      1  C4  <0> d           1.281  -0.436  -0.013  0.00  0.00     0.127 A 
ATOM      2  C5  <0> d           2.101   0.675  -0.014  0.00  0.00    -0.022 A 
ATOM      3  C6  <0> d           1.256   1.793  -0.000  0.00  0.00    -0.046 A 
ATOM      4  C7  <0> d          -0.016   1.334   0.009  0.00  0.00     0.050 A 
ATOM      5  O2  <0> d           0.002  -0.004   0.002  0.00  0.00    -0.311 OA
ATOM      6  H6  <0> d           1.564   2.829   0.002  0.00  0.00     0.088 H 
ENDROOT
BRANCH   1   7
ATOM      7  C3  <0> d           1.705  -1.784  -0.024  0.00  0.00     0.183 C 
ATOM      8  O1  <0> d           2.891  -2.047  -0.037  0.00  0.00    -0.290 OA
BRANCH   7   9
ATOM      9  C2  <0> d           0.687  -2.894  -0.020  0.00  0.00    -0.006 C 
ATOM     10  H4  <0> d           0.122  -2.826   0.802  0.00  0.00     0.044 H 
ATOM     11  H5  <0> d           0.054  -2.810  -0.904  0.00  0.00     0.044 H 
BRANCH   9  12
ATOM     12  C1  <0> d           1.405  -4.245  -0.035  0.00  0.00    -0.070 C 
ATOM     13  H1  <0> d           0.668  -5.048  -0.032  0.00  0.00     0.028 H 
ATOM     14  H2  <0> d           2.020  -4.320  -0.931  0.00  0.00     0.028 H 
ATOM     15  H3  <0> d           2.038  -4.330   0.848  0.00  0.00     0.028 H 
ENDBRANCH   9  12
ENDBRANCH   7   9
ENDBRANCH   1   7
BRANCH   2  16
ATOM     16  C9  <0> d           3.608   0.684  -0.028  0.00  0.00    -0.048 C 
ATOM     17  H10 <0> d           3.962   0.691  -1.059  0.00  0.00     0.033 H 
ATOM     18  H11 <0> d           3.971   1.573   0.487  0.00  0.00     0.033 H 
ATOM     19  H12 <0> d           3.981  -0.207   0.477  0.00  0.00     0.033 H 
ENDBRANCH   2  16
BRANCH   4  20
ATOM     20  C8  <0> d          -1.255   2.192   0.020  0.00  0.00    -0.031 C 
ATOM     21  H7  <0> d          -2.139   1.554   0.021  0.00  0.00     0.036 H 
ATOM     22  H8  <0> d          -1.257   2.817   0.913  0.00  0.00     0.036 H 
ATOM     23  H9  <0> d          -1.266   2.826  -0.867  0.00  0.00     0.036 H 
ENDBRANCH   4  20
TORSDOF 5
