REMARK  1 active torsions:
REMARK  status: ('A' for Active; 'I' for Inactive)
REMARK    1  A    between atoms: C1_1  and  C2_2 
ROOT
ATOM      1  C2  <0> d           0.002  -0.004   0.002  0.00  0.00    -0.059 A 
ATOM      2  C3  <0> d           0.006  -0.688  -1.200  0.00  0.00    -0.074 A 
ATOM      3  C4  <0> d           0.025  -2.070  -1.210  0.00  0.00    -0.042 A 
ATOM      4  C5  <0> d           0.040  -2.771  -0.016  0.00  0.00     0.154 A 
ATOM      5  C6  <0> d           0.037  -2.085   1.189  0.00  0.00     0.155 A 
ATOM      6  C7  <0> d           0.023  -0.701   1.196  0.00  0.00    -0.037 A 
ATOM      7  F1  <0> d           0.051  -2.767   2.355  0.00  0.00    -0.203 F 
ATOM      8  F2  <0> d           0.058  -4.122  -0.025  0.00  0.00    -0.203 F 
ATOM      9  H4  <0> d          -0.006  -0.142  -2.131  0.00  0.00     0.084 H 
ATOM     10  H5  <0> d           0.027  -2.603  -2.149  0.00  0.00     0.088 H 
ATOM     11  H6  <0> d           0.024  -0.165   2.133  0.00  0.00     0.089 H 
ENDROOT
BRANCH   1  12
ATOM     12  C1  <0> d          -0.018   1.503   0.010  0.00  0.00    -0.051 C 
ATOM     13  H1  <0> d           1.004   1.880   0.003  0.00  0.00     0.033 H 
ATOM     14  H2  <0> d          -0.545   1.864  -0.873  0.00  0.00     0.033 H 
ATOM     15  H3  <0> d          -0.529   1.854   0.907  0.00  0.00     0.033 H 
ENDBRANCH   1  12
TORSDOF 1
