REMARK  5 active torsions:
REMARK  status: ('A' for Active; 'I' for Inactive)
REMARK    1  A    between atoms: C1_1  and  C2_2 
REMARK    2  A    between atoms: C2_2  and  O1_3 
REMARK    3  A    between atoms: O1_3  and  C3_4 
REMARK    4  A    between atoms: C3_4  and  C4_5 
REMARK    5  A    between atoms: C9_10  and  C10_11 
ROOT
ATOM      1  C4  <0> d          -2.883  -2.333   0.017  0.00  0.00    -0.029 A 
ATOM      2  C5  <0> d          -3.872  -1.368   0.026  0.00  0.00    -0.074 A 
ATOM      3  C6  <0> d          -5.203  -1.742   0.037  0.00  0.00    -0.082 A 
ATOM      4  C7  <0> d          -5.544  -3.082   0.038  0.00  0.00    -0.082 A 
ATOM      5  C8  <0> d          -4.554  -4.047   0.028  0.00  0.00    -0.077 A 
ATOM      6  C9  <0> d          -3.224  -3.672   0.013  0.00  0.00    -0.054 A 
ATOM      7  H8  <0> d          -3.606  -0.321   0.025  0.00  0.00     0.084 H 
ATOM      8  H9  <0> d          -5.976  -0.988   0.044  0.00  0.00     0.083 H 
ATOM      9  H10 <0> d          -6.583  -3.375   0.047  0.00  0.00     0.083 H 
ATOM     10  H11 <0> d          -4.821  -5.094   0.029  0.00  0.00     0.084 H 
ENDROOT
BRANCH   1  11
ATOM     11  C3  <0> d          -1.432  -1.925   0.005  0.00  0.00     0.044 C 
ATOM     12  H6  <0> d          -0.952  -2.316  -0.891  0.00  0.00     0.081 H 
ATOM     13  H7  <0> d          -0.935  -2.325   0.888  0.00  0.00     0.081 H 
BRANCH  11  14
ATOM     14  O1  <0> d          -1.339  -0.499   0.012  0.00  0.00    -0.387 OA
BRANCH  14  15
ATOM     15  C2  <0> d           0.002  -0.004   0.002  0.00  0.00     0.017 C 
ATOM     16  H4  <0> d           0.512  -0.356  -0.895  0.00  0.00     0.073 H 
ATOM     17  H5  <0> d           0.529  -0.365   0.885  0.00  0.00     0.073 H 
BRANCH  15  18
ATOM     18  C1  <0> d          -0.019   1.526   0.010  0.00  0.00    -0.056 C 
ATOM     19  H1  <0> d           1.004   1.903   0.003  0.00  0.00     0.030 H 
ATOM     20  H2  <0> d          -0.546   1.887  -0.873  0.00  0.00     0.030 H 
ATOM     21  H3  <0> d          -0.529   1.877   0.907  0.00  0.00     0.030 H 
ENDBRANCH  15  18
ENDBRANCH  14  15
ENDBRANCH  11  14
ENDBRANCH   1  11
BRANCH   6  22
ATOM     22  C10 <0> d          -2.145  -4.724  -0.003  0.00  0.00    -0.051 C 
ATOM     23  H12 <0> d          -1.875  -4.984   1.021  0.00  0.00     0.033 H 
ATOM     24  H13 <0> d          -2.511  -5.613  -0.518  0.00  0.00     0.033 H 
ATOM     25  H14 <0> d          -1.268  -4.338  -0.523  0.00  0.00     0.033 H 
ENDBRANCH   6  22
TORSDOF 5
