REMARK  1 active torsions:
REMARK  status: ('A' for Active; 'I' for Inactive)
REMARK    1  A    between atoms: C1_1  and  N1_2 
ROOT
ATOM      1  N1  <0> d           0.387   2.800  -1.955  0.00  0.00    -0.348 N 
ATOM      2  C2  <0> d          -0.643   2.004  -1.288  0.00  0.00     0.019 A 
ATOM      3  C3  <0> d          -0.018   1.468   0.010  0.00  0.00     0.112 A 
ATOM      4  H1  <0> d          -0.549   1.790   0.794  0.00  0.00     0.078 H 
ATOM      5  C4  <0> d           1.394   2.017  -0.000  0.00  0.00     0.235 A 
ATOM      6  O1  <0> d           2.245   1.841   0.839  0.00  0.00    -0.286 OA
ATOM      7  C5  <0> d           1.525   2.816  -1.251  0.00  0.00     0.290 A 
ATOM      8  O2  <0> d           2.533   3.404  -1.587  0.00  0.00    -0.264 OA
ATOM      9  C6  <0> d           0.002  -0.004   0.002  0.00  0.00     0.073 C 
ATOM     10  N2  <0> d           0.018  -1.140  -0.004  0.00  0.00    -0.196 NA
ATOM     11  H5  <0> d          -0.946   1.174  -1.926  0.00  0.00     0.067 H 
ATOM     12  H6  <0> d          -1.505   2.630  -1.055  0.00  0.00     0.067 H 
ENDROOT
BRANCH   1  13
ATOM     13  C1  <0> d           0.197   3.491  -3.233  0.00  0.00    -0.016 C 
ATOM     14  H2  <0> d           1.117   4.008  -3.506  0.00  0.00     0.056 H 
ATOM     15  H3  <0> d          -0.055   2.765  -4.005  0.00  0.00     0.056 H 
ATOM     16  H4  <0> d          -0.612   4.215  -3.137  0.00  0.00     0.056 H 
ENDBRANCH   1  13
TORSDOF 1
