REMARK  4 active torsions:
REMARK  status: ('A' for Active; 'I' for Inactive)
REMARK    1  A    between atoms: C2_2  and  O4_12 
REMARK    2  A    between atoms: C3_4  and  C5_10 
REMARK    3  A    between atoms: C4_7  and  O2_9 
REMARK    4  A    between atoms: C5_10  and  O3_11 
ROOT
ATOM      1  C1  <0> d           2.261   5.143   0.576  0.00  0.00     0.007 C 
ATOM      2  C2  <0> d           2.536   3.763  -0.073  0.00  0.00     0.067 C 
ATOM      3  H1  <0> d           2.855   3.875  -1.110  0.00  0.00     0.087 H 
ATOM      4  C3  <0> d           1.145   3.085   0.008  0.00  0.00     0.086 C 
ATOM      5  H2  <0> d           0.509   3.416  -0.813  0.00  0.00     0.090 H 
ATOM      6  O1  <0> d           0.619   3.539   1.273  0.00  0.00    -0.351 OA
ATOM      7  C4  <0> d           0.982   4.923   1.407  0.00  0.00     0.131 C 
ATOM      8  H3  <0> d           0.179   5.556   1.029  0.00  0.00     0.128 H 
ATOM      9  H4  <0> d           2.091   5.897  -0.193  0.00  0.00     0.044 H 
ATOM     10  H5  <0> d           3.089   5.437   1.221  0.00  0.00     0.044 H 
ENDROOT
BRANCH   4  11
ATOM     11  C5  <0> d           1.286   1.562  -0.002  0.00  0.00     0.043 C 
ATOM     12  H7  <0> d           1.840   1.243   0.881  0.00  0.00     0.078 H 
ATOM     13  H8  <0> d           1.823   1.252  -0.899  0.00  0.00     0.078 H 
BRANCH  11  14
ATOM     14  O3  <0> d          -0.011   0.963   0.007  0.00  0.00    -0.398 OA
ATOM     15  H9  <0> d           0.002  -0.004   0.002  0.00  0.00     0.209 HD
ENDBRANCH  11  14
ENDBRANCH   4  11
BRANCH   2  16
ATOM     16  O4  <0> d           3.505   3.031   0.680  0.00  0.00    -0.393 OA
ATOM     17  H10 <0> d           4.392   3.416   0.660  0.00  0.00     0.210 HD
ENDBRANCH   2  16
BRANCH   7  18
ATOM     18  O2  <0> d           1.236   5.229   2.780  0.00  0.00    -0.371 OA
ATOM     19  H6  <0> d           0.472   5.100   3.359  0.00  0.00     0.212 HD
ENDBRANCH   7  18
TORSDOF 4
