REMARK  0 active torsions:
REMARK  status: ('A' for Active; 'I' for Inactive)
ROOT
ATOM      1  C1  <0> d          -1.215   1.753   0.017  0.00  0.00    -0.079 A 
ATOM      2  C2  <0> d          -0.013   1.076   0.008  0.00  0.00    -0.062 A 
ATOM      3  C3  <0> d           1.185   1.794   0.000  0.00  0.00     0.053 A 
ATOM      4  C4  <0> d           1.158   3.189   0.008  0.00  0.00    -0.009 A 
ATOM      5  C5  <0> d          -0.049   3.865   0.022  0.00  0.00     0.035 A 
ATOM      6  C6  <0> d          -1.239   3.132   0.030  0.00  0.00    -0.057 A 
ATOM      7  N1  <0> d           0.136   5.250   0.028  0.00  0.00    -0.389 N 
ATOM      8  C7  <0> d           1.567   5.566   0.016  0.00  0.00    -0.004 A 
ATOM      9  C8  <0> d           2.279   4.203   0.002  0.00  0.00    -0.023 A 
ATOM     10  C9  <0> d           2.438   1.100  -0.015  0.00  0.00     0.100 C 
ATOM     11  N2  <0> d           3.431   0.550  -0.028  0.00  0.00    -0.191 NA
ATOM     12  H1  <0> d          -2.143   1.200   0.019  0.00  0.00     0.083 H 
ATOM     13  H2  <0> d           0.002  -0.004   0.002  0.00  0.00     0.085 H 
ATOM     14  H3  <0> d          -2.187   3.651   0.042  0.00  0.00     0.086 H 
ATOM     15  H4  <0> d          -0.578   5.906   0.037  0.00  0.00     0.159 HD
ATOM     16  H5  <0> d           1.838   6.125   0.911  0.00  0.00     0.064 H 
ATOM     17  H6  <0> d           1.823   6.135  -0.878  0.00  0.00     0.064 H 
ATOM     18  H7  <0> d           2.899   4.089   0.891  0.00  0.00     0.042 H 
ATOM     19  H8  <0> d           2.884   4.097  -0.898  0.00  0.00     0.042 H 
ENDROOT
TORSDOF 0
