REMARK  1 active torsions:
REMARK  status: ('A' for Active; 'I' for Inactive)
REMARK    1  A    between atoms: C1_1  and  C2_2 
ROOT
ATOM      1  C2  <0> d           2.318   1.380  -0.013  0.00  0.00     0.102 A 
ATOM      2  N1  <0> d           1.160   2.068   0.002  0.00  0.00    -0.312 N 
ATOM      3  H1  <0> d           1.174   3.168   0.008  0.00  0.00     0.170 HD
ATOM      4  C3  <0> d          -0.017   1.406   0.010  0.00  0.00     0.247 A 
ATOM      5  O1  <0> d          -1.074   2.015   0.018  0.00  0.00    -0.268 OA
ATOM      6  C4  <0> d           0.002  -0.004   0.002  0.00  0.00    -0.000 A 
ATOM      7  C5  <0> d           1.207  -0.640  -0.013  0.00  0.00     0.009 A 
ATOM      8  N2  <0> d           2.336   0.073  -0.020  0.00  0.00    -0.248 NA
ATOM      9  H5  <0> d          -0.919  -0.568   0.007  0.00  0.00     0.094 H 
ATOM     10  H6  <0> d           1.249  -1.719  -0.019  0.00  0.00     0.115 H 
ENDROOT
BRANCH   1  11
ATOM     11  C1  <0> d           3.623   2.134  -0.021  0.00  0.00    -0.021 C 
ATOM     12  H2  <0> d           3.421   3.215  -0.013  0.00  0.00     0.037 H 
ATOM     13  H3  <0> d           4.191   1.873  -0.926  0.00  0.00     0.037 H 
ATOM     14  H4  <0> d           4.208   1.864   0.870  0.00  0.00     0.037 H 
ENDBRANCH   1  11
TORSDOF 1
