REMARK  1 active torsions:
REMARK  status: ('A' for Active; 'I' for Inactive)
REMARK    1  A    between atoms: C5_5  and  N1_7 
ROOT
ATOM      1  C1  <0> d          -1.178  -2.094   0.005  0.00  0.00    -0.080 A 
ATOM      2  C2  <0> d           0.028  -2.772  -0.011  0.00  0.00    -0.074 A 
ATOM      3  C3  <0> d           1.216  -2.072  -0.024  0.00  0.00    -0.020 A 
ATOM      4  C4  <0> d           1.223  -0.685  -0.013  0.00  0.00     0.101 A 
ATOM      5  C5  <0> d           0.002  -0.004   0.002  0.00  0.00     0.060 A 
ATOM      6  C6  <0> d          -1.189  -0.712   0.015  0.00  0.00    -0.055 A 
ATOM      7  O1  <0> d           2.495  -0.198  -0.013  0.00  0.00    -0.348 OA
ATOM      8  C7  <0> d           3.396  -1.225  -0.461  0.00  0.00     0.030 C 
ATOM      9  C8  <0> d           2.663  -2.525  -0.053  0.00  0.00    -0.018 C 
ATOM     10  H1  <0> d          -2.108  -2.643   0.014  0.00  0.00     0.083 H 
ATOM     11  H2  <0> d           0.039  -3.852  -0.015  0.00  0.00     0.084 H 
ATOM     12  H3  <0> d          -2.130  -0.181   0.030  0.00  0.00     0.087 H 
ATOM     13  H6  <0> d           3.537  -1.141  -1.548  0.00  0.00     0.075 H 
ATOM     14  H7  <0> d           4.366  -1.109   0.044  0.00  0.00     0.075 H 
ATOM     15  H8  <0> d           2.953  -2.889   0.944  0.00  0.00     0.043 H 
ATOM     16  H9  <0> d           2.779  -3.335  -0.788  0.00  0.00     0.043 H 
ENDROOT
BRANCH   5  17
ATOM     17  N1  <0> d          -0.017   1.395   0.010  0.00  0.00    -0.397 N 
ATOM     18  H4  <0> d          -0.977   1.932   0.022  0.00  0.00     0.156 HD
ATOM     19  H5  <0> d           0.928   1.958   0.004  0.00  0.00     0.156 HD
ENDBRANCH   5  17
TORSDOF 1
