REMARK  2 active torsions:
REMARK  status: ('A' for Active; 'I' for Inactive)
REMARK    1  A    between atoms: C6_6  and  N1_7 
REMARK    2  A    between atoms: C7_11  and  O1_12 
ROOT
ATOM      1  C1  <0> d          -0.017   1.392   0.010  0.00  0.00    -0.057 A 
ATOM      2  C2  <0> d           1.148   2.101   0.002  0.00  0.00    -0.064 A 
ATOM      3  C3  <0> d           2.374   1.427  -0.013  0.00  0.00     0.046 A 
ATOM      4  C4  <0> d           2.401   0.019  -0.021  0.00  0.00     0.067 A 
ATOM      5  C5  <0> d           1.203  -0.690  -0.013  0.00  0.00    -0.030 A 
ATOM      6  C6  <0> d           0.002  -0.004   0.002  0.00  0.00     0.028 A 
ATOM      7  N2  <0> d           3.721  -0.352  -0.036  0.00  0.00    -0.275 N 
ATOM      8  H1  <0> d           4.058  -1.293  -0.044  0.00  0.00     0.189 HD
ATOM      9  N3  <0> d           4.520   0.796  -0.037  0.00  0.00    -0.148 NA
ATOM     10  C7  <0> d           3.770   1.864  -0.024  0.00  0.00     0.194 A 
ATOM     11  H2  <0> d          -0.962   1.914   0.017  0.00  0.00     0.086 H 
ATOM     12  H3  <0> d           1.124   3.180   0.008  0.00  0.00     0.085 H 
ATOM     13  H4  <0> d           1.212  -1.770  -0.019  0.00  0.00     0.090 H 
ENDROOT
BRANCH   6  14
ATOM     14  N1  <0> d          -1.201  -0.714   0.010  0.00  0.00    -0.399 N 
ATOM     15  H5  <0> d          -2.045  -0.236   0.021  0.00  0.00     0.156 HD
ATOM     16  H6  <0> d          -1.192  -1.683   0.005  0.00  0.00     0.156 HD
ENDBRANCH   6  14
BRANCH  10  17
ATOM     17  O1  <0> d           4.207   3.151  -0.021  0.00  0.00    -0.343 OA
ATOM     18  H7  <0> d           5.207   3.163  -0.031  0.00  0.00     0.219 HD
ENDBRANCH  10  17
TORSDOF 2
