REMARK  9 active torsions:
REMARK  status: ('A' for Active; 'I' for Inactive)
REMARK    1  A    between atoms: C1_1  and  C2_2 
REMARK    2  A    between atoms: C2_2  and  C3_3 
REMARK    3  A    between atoms: C3_3  and  C4_4 
REMARK    4  A    between atoms: C4_4  and  C5_5 
REMARK    5  A    between atoms: C5_5  and  C6_7 
REMARK    6  A    between atoms: C5_5  and  C8_9 
REMARK    7  A    between atoms: C6_7  and  C7_8 
REMARK    8  A    between atoms: C8_9  and  C9_11 
REMARK    9  A    between atoms: C8_9  and  O1_12 
ROOT
ATOM      1  C5  <0> d          -0.629   2.218   1.547  0.00  0.00    -0.030 C 
ATOM      2  H1  <0> d          -1.022   3.230   1.641  0.00  0.00     0.043 H 
ENDROOT
BRANCH   1   3
ATOM      3  C4  <0> d           0.166   1.860   2.804  0.00  0.00    -0.059 C 
ATOM      4  H10 <0> d           0.475   0.816   2.754  0.00  0.00     0.033 H 
ATOM      5  H11 <0> d           1.048   2.497   2.870  0.00  0.00     0.033 H 
BRANCH   3   6
ATOM      6  C3  <0> d          -0.711   2.074   4.040  0.00  0.00    -0.065 C 
ATOM      7  H8  <0> d          -1.079   3.100   4.052  0.00  0.00     0.033 H 
ATOM      8  H9  <0> d          -1.556   1.385   4.009  0.00  0.00     0.033 H 
BRANCH   6   9
ATOM      9  C2  <0> d           0.114   1.812   5.302  0.00  0.00    -0.069 C 
ATOM     10  H6  <0> d           0.481   0.786   5.290  0.00  0.00     0.032 H 
ATOM     11  H7  <0> d           0.959   2.501   5.332  0.00  0.00     0.032 H 
BRANCH   9  12
ATOM     12  C1  <0> d          -0.763   2.026   6.537  0.00  0.00    -0.077 C 
ATOM     13  H3  <0> d          -0.175   1.840   7.436  0.00  0.00     0.027 H 
ATOM     14  H4  <0> d          -1.130   3.052   6.549  0.00  0.00     0.027 H 
ATOM     15  H5  <0> d          -1.608   1.338   6.506  0.00  0.00     0.027 H 
ENDBRANCH   9  12
ENDBRANCH   6   9
ENDBRANCH   3   6
ENDBRANCH   1   3
BRANCH   1  16
ATOM     16  C6  <0> d           0.287   2.139   0.324  0.00  0.00    -0.063 C 
ATOM     17  H12 <0> d           0.467   1.093   0.072  0.00  0.00     0.033 H 
ATOM     18  H13 <0> d           1.236   2.626   0.549  0.00  0.00     0.033 H 
BRANCH  16  19
ATOM     19  C7  <0> d          -0.380   2.842  -0.860  0.00  0.00    -0.076 C 
ATOM     20  H14 <0> d          -0.761   3.811  -0.539  0.00  0.00     0.027 H 
ATOM     21  H15 <0> d           0.351   2.984  -1.656  0.00  0.00     0.027 H 
ATOM     22  H16 <0> d          -1.204   2.231  -1.228  0.00  0.00     0.027 H 
ENDBRANCH  16  19
ENDBRANCH   1  16
BRANCH   1  23
ATOM     23  C8  <0> d          -1.789   1.234   1.379  0.00  0.00     0.035 C 
ATOM     24  H2  <0> d          -2.434   1.280   2.257  0.00  0.00     0.082 H 
BRANCH  23  25
ATOM     25  C9  <0> d          -1.237  -0.184   1.226  0.00  0.00    -0.052 C 
ATOM     26  H17 <0> d          -0.668  -0.451   2.117  0.00  0.00     0.030 H 
ATOM     27  H18 <0> d          -2.063  -0.884   1.099  0.00  0.00     0.030 H 
ATOM     28  H19 <0> d          -0.586  -0.228   0.353  0.00  0.00     0.030 H 
ENDBRANCH  23  25
BRANCH  23  29
ATOM     29  O1  <0> d          -2.543   1.580   0.216  0.00  0.00    -0.396 OA
ATOM     30  H20 <0> d          -2.176   1.232  -0.609  0.00  0.00     0.210 HD
ENDBRANCH  23  29
ENDBRANCH   1  23
TORSDOF 9
