REMARK  4 active torsions:
REMARK  status: ('A' for Active; 'I' for Inactive)
REMARK    1  A    between atoms: C1_1  and  O1_2 
REMARK    2  A    between atoms: O1_2  and  C2_3 
REMARK    3  A    between atoms: C5_6  and  S1_9 
REMARK    4  A    between atoms: S1_9  and  C8_10 
ROOT
ATOM      1  C2  <0> d           1.175   2.087   0.002  0.00  0.00     0.068 A 
ATOM      2  C3  <0> d          -0.017   1.377   0.010  0.00  0.00    -0.050 A 
ATOM      3  C4  <0> d           0.002  -0.004   0.002  0.00  0.00    -0.064 A 
ATOM      4  C5  <0> d           1.215  -0.682  -0.013  0.00  0.00    -0.000 A 
ATOM      5  C6  <0> d           2.407   0.031  -0.021  0.00  0.00    -0.064 A 
ATOM      6  C7  <0> d           2.386   1.411  -0.013  0.00  0.00    -0.050 A 
ATOM      7  H4  <0> d          -0.959   1.904   0.017  0.00  0.00     0.087 H 
ATOM      8  H5  <0> d          -0.926  -0.557   0.008  0.00  0.00     0.085 H 
ATOM      9  H6  <0> d           3.351  -0.495  -0.032  0.00  0.00     0.085 H 
ATOM     10  H7  <0> d           3.313   1.966  -0.019  0.00  0.00     0.087 H 
ENDROOT
BRANCH   1  11
ATOM     11  O1  <0> d           1.155   3.447   0.009  0.00  0.00    -0.356 OA
BRANCH  11  12
ATOM     12  C1  <0> d           2.419   4.114   0.001  0.00  0.00     0.010 C 
ATOM     13  H1  <0> d           2.988   3.825   0.884  0.00  0.00     0.066 H 
ATOM     14  H2  <0> d           2.972   3.834  -0.896  0.00  0.00     0.066 H 
ATOM     15  H3  <0> d           2.260   5.192   0.008  0.00  0.00     0.066 H 
ENDBRANCH  11  12
ENDBRANCH   1  11
BRANCH   4  16
ATOM     16  S1  <0> d           1.240  -2.443  -0.022  0.00  0.00    -0.134 SA
BRANCH  16  17
ATOM     17  C8  <0> d           3.006  -2.857  -0.042  0.00  0.00    -0.030 C 
ATOM     18  H8  <0> d           3.469  -2.435  -0.934  0.00  0.00     0.042 H 
ATOM     19  H9  <0> d           3.486  -2.444   0.846  0.00  0.00     0.042 H 
ATOM     20  H10 <0> d           3.126  -3.940  -0.048  0.00  0.00     0.042 H 
ENDBRANCH  16  17
ENDBRANCH   4  16
TORSDOF 4
