REMARK  0 active torsions:
REMARK  status: ('A' for Active; 'I' for Inactive)
ROOT
ATOM      1  C1  <0> d           2.139   1.145  -1.269  0.00  0.00    -0.065 C 
ATOM      2  C2  <0> d           1.396   1.679  -2.496  0.00  0.00    -0.065 C 
ATOM      3  C3  <0> d          -0.034   1.136  -2.494  0.00  0.00    -0.061 C 
ATOM      4  C4  <0> d          -0.759   1.593  -1.227  0.00  0.00    -0.044 C 
ATOM      5  H1  <0> d          -0.803   2.682  -1.206  0.00  0.00     0.041 H 
ATOM      6  C5  <0> d          -2.180   1.014  -1.241  0.00  0.00    -0.006 C 
ATOM      7  C6  <0> d          -2.851   1.340   0.074  0.00  0.00     0.127 C 
ATOM      8  O1  <0> d          -3.939   1.863   0.102  0.00  0.00    -0.298 OA
ATOM      9  C7  <0> d          -2.122   0.992   1.353  0.00  0.00    -0.009 C 
ATOM     10  C8  <0> d          -0.710   1.580   1.279  0.00  0.00    -0.055 C 
ATOM     11  C9  <0> d          -0.013   1.086   0.008  0.00  0.00    -0.050 C 
ATOM     12  H2  <0> d           0.002  -0.004   0.002  0.00  0.00     0.040 H 
ATOM     13  C10 <0> d           1.423   1.616  -0.003  0.00  0.00    -0.061 C 
ATOM     14  H3  <0> d           3.162   1.522  -1.271  0.00  0.00     0.033 H 
ATOM     15  H4  <0> d           2.153   0.056  -1.296  0.00  0.00     0.033 H 
ATOM     16  H5  <0> d           1.372   2.768  -2.462  0.00  0.00     0.033 H 
ATOM     17  H6  <0> d           1.907   1.353  -3.402  0.00  0.00     0.033 H 
ATOM     18  H7  <0> d          -0.564   1.509  -3.370  0.00  0.00     0.033 H 
ATOM     19  H8  <0> d          -0.008   0.047  -2.524  0.00  0.00     0.033 H 
ATOM     20  H9  <0> d          -2.697   1.418  -1.995  0.00  0.00     0.044 H 
ATOM     21  H10 <0> d          -2.132  -0.067  -1.371  0.00  0.00     0.044 H 
ATOM     22  H11 <0> d          -2.615   1.377   2.133  0.00  0.00     0.044 H 
ATOM     23  H12 <0> d          -2.063  -0.091   1.459  0.00  0.00     0.044 H 
ATOM     24  H13 <0> d          -0.138   1.266   2.152  0.00  0.00     0.034 H 
ATOM     25  H14 <0> d          -0.772   2.668   1.259  0.00  0.00     0.034 H 
ATOM     26  H15 <0> d           1.408   2.706   0.021  0.00  0.00     0.033 H 
ATOM     27  H16 <0> d           1.954   1.242   0.873  0.00  0.00     0.033 H 
ENDROOT
TORSDOF 0
