REMARK  1 active torsions:
REMARK  status: ('A' for Active; 'I' for Inactive)
REMARK    1  A    between atoms: C3_3  and  O2_10 
ROOT
ATOM      1  C1  <0> d          -0.017   1.382   0.010  0.00  0.00    -0.077 A 
ATOM      2  C2  <0> d           0.002  -0.004   0.002  0.00  0.00    -0.049 A 
ATOM      3  C3  <0> d           1.204  -0.686  -0.013  0.00  0.00     0.097 A 
ATOM      4  C4  <0> d           2.407   0.031  -0.021  0.00  0.00     0.125 A 
ATOM      5  C5  <0> d           2.378   1.432  -0.013  0.00  0.00     0.108 A 
ATOM      6  C6  <0> d           1.162   2.099   0.002  0.00  0.00    -0.048 A 
ATOM      7  O1  <0> d           3.668   1.836  -0.023  0.00  0.00    -0.302 OA
ATOM      8  C7  <0> d           4.448   0.743  -0.036  0.00  0.00     0.104 A 
ATOM      9  N1  <0> d           3.718  -0.331  -0.035  0.00  0.00    -0.231 NA
ATOM     10  H1  <0> d          -0.962   1.905   0.017  0.00  0.00     0.083 H 
ATOM     11  H2  <0> d          -0.927  -0.554   0.008  0.00  0.00     0.087 H 
ATOM     12  H3  <0> d           1.137   3.179   0.008  0.00  0.00     0.087 H 
ATOM     13  H4  <0> d           5.528   0.756  -0.046  0.00  0.00     0.155 H 
ENDROOT
BRANCH   3  14
ATOM     14  O2  <0> d           1.218  -2.045  -0.020  0.00  0.00    -0.358 OA
ATOM     15  H5  <0> d           2.176  -2.585  -0.032  0.00  0.00     0.217 HD
ENDBRANCH   3  14
TORSDOF 1
