REMARK  2 active torsions:
REMARK  status: ('A' for Active; 'I' for Inactive)
REMARK    1  A    between atoms: C1_1  and  C2_2 
REMARK    2  A    between atoms: C6_6  and  C7_8 
ROOT
ATOM      1  C2  <0> d           1.094   2.028   0.003  0.00  0.00     0.031 A 
ATOM      2  C3  <0> d           2.333   1.406  -0.013  0.00  0.00    -0.059 A 
ATOM      3  C4  <0> d           2.397   0.022  -0.021  0.00  0.00    -0.079 A 
ATOM      4  C5  <0> d           1.211  -0.696  -0.013  0.00  0.00    -0.048 A 
ATOM      5  C6  <0> d           0.002  -0.004   0.002  0.00  0.00     0.133 A 
ATOM      6  N1  <0> d          -0.016   1.324   0.009  0.00  0.00    -0.247 NA
ATOM      7  H4  <0> d           3.238   1.994  -0.018  0.00  0.00     0.086 H 
ATOM      8  H5  <0> d           3.350  -0.486  -0.033  0.00  0.00     0.083 H 
ATOM      9  H6  <0> d           1.224  -1.776  -0.019  0.00  0.00     0.087 H 
ENDROOT
BRANCH   1  10
ATOM     10  C1  <0> d           1.018   3.534   0.011  0.00  0.00    -0.035 C 
ATOM     11  H1  <0> d           1.010   3.891   1.040  0.00  0.00     0.035 H 
ATOM     12  H2  <0> d           1.884   3.944  -0.509  0.00  0.00     0.035 H 
ATOM     13  H3  <0> d           0.107   3.854  -0.493  0.00  0.00     0.035 H 
ENDBRANCH   1  10
BRANCH   5  14
ATOM     14  C7  <0> d          -1.274  -0.756   0.011  0.00  0.00     0.228 C 
ATOM     15  O1  <0> d          -1.263  -1.970   0.004  0.00  0.00    -0.643 OA
ATOM     16  O2  <0> d          -2.446  -0.093   0.026  0.00  0.00    -0.643 OA
ENDBRANCH   5  14
TORSDOF 2
