REMARK  6 active torsions:
REMARK  status: ('A' for Active; 'I' for Inactive)
REMARK    1  A    between atoms: C1_1  and  C2_2 
REMARK    2  A    between atoms: C2_2  and  O1_3 
REMARK    3  A    between atoms: O1_3  and  C3_4 
REMARK    4  A    between atoms: C4_5  and  C5_6 
REMARK    5  A    between atoms: C5_6  and  C6_7 
REMARK    6  A    between atoms: C7_8  and  C8_9 
ROOT
ATOM      1  C3  <0> d           0.742  -1.814  -1.274  0.00  0.00     0.055 C 
ATOM      2  C4  <0> d           0.803  -2.983  -1.361  0.00  0.00    -0.064 C 
ENDROOT
BRANCH   2   3
ATOM      3  C5  <0> d           0.880  -4.449  -1.471  0.00  0.00     0.048 C 
ATOM      4  H6  <0> d           1.423  -4.849  -0.614  0.00  0.00     0.071 H 
ATOM      5  H7  <0> d          -0.127  -4.866  -1.490  0.00  0.00     0.071 H 
BRANCH   3   6
ATOM      6  C6  <0> d           1.585  -4.813  -2.711  0.00  0.00    -0.095 C 
ATOM      7  C7  <0> d           2.147  -5.102  -3.700  0.00  0.00    -0.110 C 
BRANCH   7   8
ATOM      8  C8  <0> d           2.851  -5.465  -4.941  0.00  0.00    -0.021 C 
ATOM      9  H8  <0> d           2.908  -6.551  -5.022  0.00  0.00     0.044 H 
ATOM     10  H9  <0> d           2.308  -5.065  -5.797  0.00  0.00     0.044 H 
ATOM     11  H10 <0> d           3.858  -5.049  -4.922  0.00  0.00     0.044 H 
ENDBRANCH   7   8
ENDBRANCH   3   6
ENDBRANCH   2   3
BRANCH   1  12
ATOM     12  O1  <0> d           0.671  -0.465  -1.174  0.00  0.00    -0.304 OA
BRANCH  12  13
ATOM     13  C2  <0> d           0.002  -0.004   0.002  0.00  0.00     0.032 C 
ATOM     14  H4  <0> d           0.529  -0.365   0.885  0.00  0.00     0.075 H 
ATOM     15  H5  <0> d          -1.020  -0.381   0.010  0.00  0.00     0.075 H 
BRANCH  13  16
ATOM     16  C1  <0> d          -0.019   1.526   0.010  0.00  0.00    -0.055 C 
ATOM     17  H1  <0> d           1.004   1.903   0.003  0.00  0.00     0.030 H 
ATOM     18  H2  <0> d          -0.546   1.887  -0.873  0.00  0.00     0.030 H 
ATOM     19  H3  <0> d          -0.529   1.877   0.907  0.00  0.00     0.030 H 
ENDBRANCH  13  16
ENDBRANCH  12  13
ENDBRANCH   1  12
TORSDOF 6
