REMARK  4 active torsions:
REMARK  status: ('A' for Active; 'I' for Inactive)
REMARK    1  A    between atoms: C1_1  and  C2_2 
REMARK    2  A    between atoms: C3_3  and  C6_10 
REMARK    3  A    between atoms: C4_4  and  C5_7 
REMARK    4  A    between atoms: C6_10  and  O4_11 
ROOT
ATOM      1  C2  <0> d           0.002  -0.004   0.002  0.00  0.00     0.086 A 
ATOM      2  C3  <0> d          -1.077  -0.807   0.003  0.00  0.00     0.035 A 
ATOM      3  C4  <0> d          -0.625  -2.149  -0.007  0.00  0.00     0.171 A 
ATOM      4  N1  <0> d           0.686  -2.130  -0.013  0.00  0.00    -0.121 NA
ATOM      5  O1  <0> d           1.100  -0.775  -0.013  0.00  0.00    -0.217 OA
ENDROOT
BRANCH   2   6
ATOM      6  C6  <0> d          -2.516  -0.357   0.013  0.00  0.00     0.045 C 
ATOM      7  H4  <0> d          -3.126  -1.101   0.525  0.00  0.00     0.081 H 
ATOM      8  H5  <0> d          -2.594   0.597   0.532  0.00  0.00     0.081 H 
BRANCH   6   9
ATOM      9  O4  <0> d          -2.977  -0.207  -1.331  0.00  0.00    -0.396 OA
ATOM     10  H6  <0> d          -3.897   0.081  -1.401  0.00  0.00     0.209 HD
ENDBRANCH   6   9
ENDBRANCH   2   6
BRANCH   1  11
ATOM     11  C1  <0> d          -0.018   1.503   0.010  0.00  0.00    -0.029 C 
ATOM     12  H1  <0> d           1.004   1.880   0.003  0.00  0.00     0.036 H 
ATOM     13  H2  <0> d          -0.545   1.864  -0.873  0.00  0.00     0.036 H 
ATOM     14  H3  <0> d          -0.529   1.854   0.907  0.00  0.00     0.036 H 
ENDBRANCH   1  11
BRANCH   3  15
ATOM     15  C5  <0> d          -1.481  -3.358  -0.010  0.00  0.00     0.232 C 
ATOM     16  O2  <0> d          -2.698  -3.246  -0.003  0.00  0.00    -0.643 OA
ATOM     17  O3  <0> d          -0.969  -4.469  -0.019  0.00  0.00    -0.643 OA
ENDBRANCH   3  15
TORSDOF 4
