REMARK  0 active torsions:
REMARK  status: ('A' for Active; 'I' for Inactive)
ROOT
ATOM      1  C1  <0> d           1.206  -0.707  -0.013  0.00  0.00    -0.081 A 
ATOM      2  C2  <0> d           0.002  -0.004   0.002  0.00  0.00    -0.081 A 
ATOM      3  C3  <0> d          -0.016   1.357   0.009  0.00  0.00    -0.051 A 
ATOM      4  C4  <0> d           1.196   2.067   0.002  0.00  0.00     0.107 A 
ATOM      5  C5  <0> d           2.422   1.351  -0.014  0.00  0.00     0.088 A 
ATOM      6  C6  <0> d           2.400  -0.053  -0.022  0.00  0.00    -0.053 A 
ATOM      7  N1  <0> d           3.568   2.041  -0.022  0.00  0.00    -0.238 NA
ATOM      8  C7  <0> d           3.521   3.354  -0.014  0.00  0.00     0.108 A 
ATOM      9  N2  <0> d           2.367   4.012   0.000  0.00  0.00    -0.143 NA
ATOM     10  N3  <0> d           1.231   3.403   0.008  0.00  0.00    -0.147 NA
ATOM     11  H1  <0> d           1.192  -1.787  -0.019  0.00  0.00     0.083 H 
ATOM     12  H2  <0> d          -0.931  -0.548   0.008  0.00  0.00     0.083 H 
ATOM     13  H3  <0> d          -0.957   1.887   0.017  0.00  0.00     0.087 H 
ATOM     14  H4  <0> d           3.325  -0.610  -0.034  0.00  0.00     0.087 H 
ATOM     15  H5  <0> d           4.445   3.914  -0.020  0.00  0.00     0.149 H 
ENDROOT
TORSDOF 0
