REMARK  1 active torsions:
REMARK  status: ('A' for Active; 'I' for Inactive)
REMARK    1  A    between atoms: C2_2  and  N1_10 
ROOT
ATOM      1  C1  <0> d           2.407   0.031  -0.021  0.00  0.00    -0.014 A 
ATOM      2  C2  <0> d           1.216  -0.682  -0.013  0.00  0.00     0.068 A 
ATOM      3  C3  <0> d           0.002  -0.004   0.002  0.00  0.00     0.145 A 
ATOM      4  C4  <0> d          -0.017   1.379   0.010  0.00  0.00    -0.003 A 
ATOM      5  C5  <0> d           1.172   2.088   0.002  0.00  0.00     0.157 A 
ATOM      6  C6  <0> d           2.384   1.414  -0.013  0.00  0.00     0.157 A 
ATOM      7  F1  <0> d           3.542   2.109  -0.021  0.00  0.00    -0.203 F 
ATOM      8  F2  <0> d           1.151   3.439   0.009  0.00  0.00    -0.203 F 
ATOM      9  F3  <0> d          -1.158  -0.696   0.009  0.00  0.00    -0.204 F 
ATOM     10  H1  <0> d           3.351  -0.493  -0.033  0.00  0.00     0.092 H 
ATOM     11  H2  <0> d          -0.959   1.906   0.017  0.00  0.00     0.093 H 
ENDROOT
BRANCH   2  12
ATOM     12  N1  <0> d           1.237  -2.082  -0.021  0.00  0.00    -0.397 N 
ATOM     13  H3  <0> d           0.404  -2.579  -0.015  0.00  0.00     0.156 HD
ATOM     14  H4  <0> d           2.084  -2.554  -0.031  0.00  0.00     0.156 HD
ENDBRANCH   2  12
TORSDOF 1
