REMARK  2 active torsions:
REMARK  status: ('A' for Active; 'I' for Inactive)
REMARK    1  A    between atoms: C2_2  and  C3_3 
REMARK    2  A    between atoms: C3_3  and  N1_4 
REMARK       I    between atoms: N1_4  and  C4_5 
REMARK       I    between atoms: C4_5  and  N2_7 
ROOT
ATOM      1  C1  <0> d           3.282   0.024  -0.029  0.00  0.00    -0.152 C 
ATOM      2  C2  <0> d           2.379   0.774  -0.017  0.00  0.00    -0.098 C 
ATOM      3  H1  <0> d           4.128  -0.680  -0.041  0.00  0.00     0.166 H 
ENDROOT
BRANCH   2   4
ATOM      4  C3  <0> d           1.248   1.716  -0.001  0.00  0.00     0.051 C 
ATOM      5  H2  <0> d           1.306   2.344   0.900  0.00  0.00     0.083 H 
ATOM      6  H3  <0> d           1.289   2.353  -0.896  0.00  0.00     0.083 H 
BRANCH   4   7
ATOM      7  N1  <0> d          -0.011   0.966   0.007  0.00  0.00    -0.332 N 
ATOM      8  C4  <0> d          -1.187   1.624   0.017  0.00  0.00     0.328 C 
ATOM      9  O1  <0> d          -1.204   2.839   0.023  0.00  0.00    -0.246 OA
ATOM     10  N2  <0> d          -2.345   0.934   0.018  0.00  0.00    -0.268 N 
ATOM     11  C7  <0> d          -2.482  -0.422   0.012  0.00  0.00     0.074 A 
ATOM     12  C5  <0> d          -3.614   1.464   0.033  0.00  0.00     0.007 A 
ATOM     13  N3  <0> d          -3.753  -0.710   0.017  0.00  0.00    -0.254 NA
ATOM     14  H7  <0> d          -1.673  -1.138   0.004  0.00  0.00     0.144 H 
ATOM     15  C6  <0> d          -4.469   0.426   0.026  0.00  0.00     0.019 A 
ATOM     16  H6  <0> d          -5.547   0.495   0.032  0.00  0.00     0.117 H 
ATOM     17  H5  <0> d          -3.873   2.513   0.045  0.00  0.00     0.114 H 
ATOM     18  H4  <0> d           0.004  -0.134   0.006  0.00  0.00     0.165 HD
ENDBRANCH   4   7
ENDBRANCH   2   4
TORSDOF 2
