REMARK  1 active torsions:
REMARK  status: ('A' for Active; 'I' for Inactive)
REMARK    1  A    between atoms: C8_10  and  C9_11 
ROOT
ATOM      1  C1  <0> d          -2.393  -0.011   0.026  0.00  0.00    -0.074 A 
ATOM      2  C2  <0> d          -1.201  -0.702   0.010  0.00  0.00    -0.056 A 
ATOM      3  C3  <0> d           0.002  -0.004   0.002  0.00  0.00     0.042 A 
ATOM      4  C4  <0> d          -0.017   1.403   0.010  0.00  0.00    -0.008 A 
ATOM      5  C5  <0> d           1.385   1.827  -0.001  0.00  0.00    -0.056 A 
ATOM      6  C6  <0> d           2.132   0.711  -0.015  0.00  0.00    -0.022 A 
ATOM      7  N1  <0> d           1.323  -0.392  -0.013  0.00  0.00    -0.365 N 
ATOM      8  H1  <0> d           1.634  -1.311  -0.021  0.00  0.00     0.165 HD
ATOM      9  C7  <0> d          -1.236   2.083   0.030  0.00  0.00    -0.064 A 
ATOM     10  C8  <0> d          -2.406   1.377   0.033  0.00  0.00    -0.053 A 
ATOM     11  H2  <0> d          -3.326  -0.554   0.032  0.00  0.00     0.084 H 
ATOM     12  H3  <0> d          -1.201  -1.782   0.004  0.00  0.00     0.087 H 
ATOM     13  H4  <0> d           1.749   2.844   0.000  0.00  0.00     0.086 H 
ATOM     14  H5  <0> d           3.212   0.688  -0.025  0.00  0.00     0.111 H 
ATOM     15  H6  <0> d          -1.254   3.163   0.036  0.00  0.00     0.085 H 
ENDROOT
BRANCH  10  16
ATOM     16  C9  <0> d          -3.722   2.112   0.049  0.00  0.00    -0.029 A 
ATOM     17  C11 <0> d          -4.682   1.868  -1.117  0.00  0.00    -0.057 A 
ATOM     18  C10 <0> d          -4.991   1.284   0.264  0.00  0.00    -0.057 A 
ATOM     19  H10 <0> d          -5.287   2.709  -1.455  0.00  0.00     0.034 H 
ATOM     20  H11 <0> d          -4.362   1.177  -1.896  0.00  0.00     0.034 H 
ATOM     21  H8  <0> d          -4.874   0.208   0.393  0.00  0.00     0.034 H 
ATOM     22  H9  <0> d          -5.800   1.741   0.834  0.00  0.00     0.034 H 
ATOM     23  H7  <0> d          -3.696   3.113   0.479  0.00  0.00     0.047 H 
ENDBRANCH  10  16
TORSDOF 1
