REMARK  3 active torsions:
REMARK  status: ('A' for Active; 'I' for Inactive)
REMARK    1  A    between atoms: C1_1  and  C2_2 
REMARK    2  A    between atoms: C2_2  and  C3_4 
REMARK    3  A    between atoms: C5_6  and  C7_10 
ROOT
ATOM      1  C3  <0> d          -0.017   1.411   0.010  0.00  0.00     0.027 A 
ATOM      2  C4  <0> d           0.002  -0.004   0.002  0.00  0.00    -0.036 A 
ATOM      3  C5  <0> d           1.311  -0.384  -0.013  0.00  0.00     0.110 A 
ATOM      4  N1  <0> d           2.094   0.751  -0.014  0.00  0.00    -0.359 N 
ATOM      5  H1  <0> d           3.063   0.764  -0.023  0.00  0.00     0.165 HD
ATOM      6  C6  <0> d           1.303   1.834  -0.001  0.00  0.00    -0.009 A 
ATOM      7  H5  <0> d          -0.857  -0.658   0.007  0.00  0.00     0.088 H 
ATOM      8  H6  <0> d           1.638   2.861   0.002  0.00  0.00     0.112 H 
ENDROOT
BRANCH   1   9
ATOM      9  C2  <0> d          -1.207   2.267   0.020  0.00  0.00     0.157 C 
ATOM     10  O1  <0> d          -2.313   1.768   0.023  0.00  0.00    -0.293 OA
BRANCH   9  11
ATOM     11  C1  <0> d          -1.057   3.767   0.028  0.00  0.00    -0.017 C 
ATOM     12  H2  <0> d          -0.086   4.004   0.024  0.00  0.00     0.038 H 
ATOM     13  H3  <0> d          -1.536   4.184  -0.858  0.00  0.00     0.038 H 
ATOM     14  H4  <0> d          -1.527   4.175   0.922  0.00  0.00     0.038 H 
ENDBRANCH   9  11
ENDBRANCH   1   9
BRANCH   3  15
ATOM     15  C7  <0> d           1.804  -1.766  -0.024  0.00  0.00     0.226 C 
ATOM     16  O2  <0> d           1.016  -2.692  -0.021  0.00  0.00    -0.643 OA
ATOM     17  O3  <0> d           3.130  -2.009  -0.038  0.00  0.00    -0.643 OA
ENDBRANCH   3  15
TORSDOF 3
