REMARK  3 active torsions:
REMARK  status: ('A' for Active; 'I' for Inactive)
REMARK    1  A    between atoms: C1_1  and  C2_2 
REMARK       I    between atoms: C2_2  and  N1_4 
REMARK    2  A    between atoms: N1_4  and  C3_5 
REMARK    3  A    between atoms: N1_4  and  C4_6 
ROOT
ATOM      1  C4  <0> d          -0.050   3.842   0.016  0.00  0.00     0.036 A 
ATOM      2  C5  <0> d           0.513   3.164  -1.057  0.00  0.00    -0.057 A 
ATOM      3  C6  <0> d           0.531   1.783  -1.066  0.00  0.00    -0.081 A 
ATOM      4  C7  <0> d          -0.012   1.076  -0.009  0.00  0.00    -0.083 A 
ATOM      5  C8  <0> d          -0.578   1.748   1.058  0.00  0.00    -0.081 A 
ATOM      6  C9  <0> d          -0.594   3.129   1.077  0.00  0.00    -0.057 A 
ATOM      7  H7  <0> d           0.938   3.716  -1.882  0.00  0.00     0.086 H 
ATOM      8  H8  <0> d           0.968   1.255  -1.901  0.00  0.00     0.083 H 
ATOM      9  H9  <0> d           0.002  -0.004  -0.019  0.00  0.00     0.083 H 
ATOM     10  H10 <0> d          -1.005   1.193   1.881  0.00  0.00     0.083 H 
ATOM     11  H11 <0> d          -1.032   3.654   1.913  0.00  0.00     0.086 H 
ENDROOT
BRANCH   1  12
ATOM     12  N1  <0> d          -0.069   5.242   0.029  0.00  0.00    -0.323 N 
ATOM     13  C2  <0> d          -1.242   5.900  -0.058  0.00  0.00     0.220 C 
ATOM     14  O1  <0> d          -2.286   5.283  -0.051  0.00  0.00    -0.274 OA
BRANCH  13  15
ATOM     15  C1  <0> d          -1.256   7.403  -0.165  0.00  0.00    -0.002 C 
ATOM     16  H1  <0> d          -0.715   7.709  -1.060  0.00  0.00     0.040 H 
ATOM     17  H2  <0> d          -2.286   7.753  -0.226  0.00  0.00     0.040 H 
ATOM     18  H3  <0> d          -0.777   7.834   0.714  0.00  0.00     0.040 H 
ENDBRANCH  13  15
BRANCH  12  19
ATOM     19  C3  <0> d           1.185   5.991   0.137  0.00  0.00    -0.011 C 
ATOM     20  H4  <0> d           1.579   6.187  -0.860  0.00  0.00     0.057 H 
ATOM     21  H5  <0> d           1.001   6.936   0.648  0.00  0.00     0.057 H 
ATOM     22  H6  <0> d           1.909   5.406   0.705  0.00  0.00     0.057 H 
ENDBRANCH  12  19
ENDBRANCH   1  12
TORSDOF 3
