REMARK  4 active torsions:
REMARK  status: ('A' for Active; 'I' for Inactive)
REMARK    1  A    between atoms: C1_1  and  C2_2 
REMARK    2  A    between atoms: C5_5  and  C8_8 
REMARK    3  A    between atoms: C8_8  and  C9_9 
REMARK    4  A    between atoms: C8_8  and  C10_10 
ROOT
ATOM      1  C2  <0> d          -0.718   1.572   1.248  0.00  0.00    -0.084 C 
ATOM      2  C3  <0> d          -1.202   0.695   2.121  0.00  0.00    -0.081 C 
ATOM      3  C4  <0> d          -1.892   1.173   3.330  0.00  0.00    -0.080 C 
ATOM      4  C5  <0> d          -2.369   2.413   3.371  0.00  0.00    -0.076 C 
ATOM      5  C6  <0> d          -2.207   3.326   2.184  0.00  0.00    -0.041 C 
ATOM      6  C7  <0> d          -0.867   3.049   1.497  0.00  0.00    -0.041 C 
ATOM      7  H4  <0> d          -1.090  -0.364   1.945  0.00  0.00     0.083 H 
ATOM      8  H5  <0> d          -2.011   0.519   4.181  0.00  0.00     0.083 H 
ATOM      9  H6  <0> d          -3.022   3.152   1.481  0.00  0.00     0.040 H 
ATOM     10  H7  <0> d          -2.232   4.363   2.519  0.00  0.00     0.040 H 
ATOM     11  H8  <0> d          -0.052   3.393   2.133  0.00  0.00     0.040 H 
ATOM     12  H9  <0> d          -0.832   3.582   0.546  0.00  0.00     0.040 H 
ENDROOT
BRANCH   4  13
ATOM     13  C8  <0> d          -3.074   2.906   4.608  0.00  0.00    -0.039 C 
ATOM     14  H10 <0> d          -3.095   2.113   5.355  0.00  0.00     0.045 H 
BRANCH  13  15
ATOM     15  C9  <0> d          -2.328   4.118   5.171  0.00  0.00    -0.070 C 
ATOM     16  H11 <0> d          -2.307   4.911   4.424  0.00  0.00     0.028 H 
ATOM     17  H12 <0> d          -2.838   4.475   6.066  0.00  0.00     0.028 H 
ATOM     18  H13 <0> d          -1.307   3.830   5.425  0.00  0.00     0.028 H 
ENDBRANCH  13  15
BRANCH  13  19
ATOM     19  C10 <0> d          -4.506   3.310   4.252  0.00  0.00    -0.070 C 
ATOM     20  H14 <0> d          -4.485   4.104   3.505  0.00  0.00     0.028 H 
ATOM     21  H15 <0> d          -5.038   2.447   3.851  0.00  0.00     0.028 H 
ATOM     22  H16 <0> d          -5.016   3.667   5.147  0.00  0.00     0.028 H 
ENDBRANCH  13  19
ENDBRANCH   4  13
BRANCH   1  23
ATOM     23  C1  <0> d          -0.013   1.086   0.008  0.00  0.00    -0.054 C 
ATOM     24  H1  <0> d           0.002  -0.004   0.002  0.00  0.00     0.033 H 
ATOM     25  H2  <0> d           1.010   1.463   0.000  0.00  0.00     0.033 H 
ATOM     26  H3  <0> d          -0.540   1.447  -0.875  0.00  0.00     0.033 H 
ENDBRANCH   1  23
TORSDOF 4
