REMARK  3 active torsions:
REMARK  status: ('A' for Active; 'I' for Inactive)
REMARK    1  A    between atoms: C1_1  and  O1_2 
REMARK    2  A    between atoms: O1_2  and  C2_3 
REMARK    3  A    between atoms: C7_8  and  N1_9 
ROOT
ATOM      1  C2  <0> d          -0.787   2.893   1.346  0.00  0.00     0.094 A 
ATOM      2  C3  <0> d          -0.259   3.751   0.396  0.00  0.00    -0.047 A 
ATOM      3  C4  <0> d          -0.368   5.119   0.561  0.00  0.00    -0.059 A 
ATOM      4  C5  <0> d          -1.004   5.636   1.676  0.00  0.00     0.036 A 
ATOM      5  C6  <0> d          -1.533   4.786   2.631  0.00  0.00    -0.034 A 
ATOM      6  C7  <0> d          -1.432   3.412   2.467  0.00  0.00     0.061 A 
ATOM      7 Cl1  <0> d          -1.137   7.355   1.878  0.00  0.00    -0.084 Cl
ATOM      8  H4  <0> d           0.237   3.350  -0.476  0.00  0.00     0.087 H 
ATOM      9  H5  <0> d           0.044   5.786  -0.181  0.00  0.00     0.086 H 
ATOM     10  H6  <0> d          -2.028   5.192   3.500  0.00  0.00     0.089 H 
ENDROOT
BRANCH   1  11
ATOM     11  O1  <0> d          -0.682   1.547   1.184  0.00  0.00    -0.354 OA
BRANCH  11  12
ATOM     12  C1  <0> d          -0.013   1.086   0.008  0.00  0.00     0.010 C 
ATOM     13  H1  <0> d           0.002  -0.004   0.002  0.00  0.00     0.066 H 
ATOM     14  H2  <0> d           1.010   1.463   0.000  0.00  0.00     0.066 H 
ATOM     15  H3  <0> d          -0.540   1.447  -0.875  0.00  0.00     0.066 H 
ENDBRANCH  11  12
ENDBRANCH   1  11
BRANCH   6  16
ATOM     16  N1  <0> d          -1.973   2.550   3.427  0.00  0.00    -0.397 N 
ATOM     17  H7  <0> d          -1.899   1.589   3.313  0.00  0.00     0.156 HD
ATOM     18  H8  <0> d          -2.422   2.913   4.207  0.00  0.00     0.156 HD
ENDBRANCH   6  16
TORSDOF 3
