REMARK  7 active torsions:
REMARK  status: ('A' for Active; 'I' for Inactive)
REMARK    1  A    between atoms: C1_1  and  C2_2 
REMARK    2  A    between atoms: C2_2  and  O1_3 
REMARK    3  A    between atoms: O1_3  and  C3_4 
REMARK    4  A    between atoms: C3_4  and  C4_6 
REMARK    5  A    between atoms: C4_6  and  C5_7 
REMARK    6  A    between atoms: C5_7  and  C6_9 
REMARK    7  A    between atoms: C5_7  and  O3_12 
ROOT
ATOM      1  C6  <0> d          -2.303  -3.057  -0.118  0.00  0.00     0.039 C 
ATOM      2  C7  <0> d          -2.008  -4.493  -0.249  0.00  0.00     0.061 C 
ATOM      3  N1  <0> d          -1.780  -5.601  -0.350  0.00  0.00    -0.197 NA
ATOM      4  H9  <0> d          -2.907  -2.890   0.774  0.00  0.00     0.058 H 
ATOM      5  H10 <0> d          -2.851  -2.717  -0.997  0.00  0.00     0.058 H 
ENDROOT
BRANCH   1   6
ATOM      6  C5  <0> d          -0.993  -2.276  -0.001  0.00  0.00     0.055 C 
ATOM      7  H1  <0> d          -0.351  -2.512  -0.850  0.00  0.00     0.085 H 
BRANCH   6   8
ATOM      8  C4  <0> d          -1.293  -0.775   0.010  0.00  0.00     0.040 C 
ATOM      9  H7  <0> d          -1.859  -0.524   0.907  0.00  0.00     0.051 H 
ATOM     10  H8  <0> d          -1.876  -0.515  -0.873  0.00  0.00     0.051 H 
BRANCH   8  11
ATOM     11  C3  <0> d           0.002  -0.004   0.002  0.00  0.00     0.261 C 
ATOM     12  O2  <0> d           1.056  -0.594  -0.011  0.00  0.00    -0.265 OA
BRANCH  11  13
ATOM     13  O1  <0> d          -0.016   1.338   0.009  0.00  0.00    -0.322 OA
BRANCH  13  14
ATOM     14  C2  <0> d           1.268   2.015   0.001  0.00  0.00     0.025 C 
ATOM     15  H5  <0> d           1.838   1.725   0.884  0.00  0.00     0.074 H 
ATOM     16  H6  <0> d           1.821   1.734  -0.896  0.00  0.00     0.074 H 
BRANCH  14  17
ATOM     17  C1  <0> d           1.048   3.529   0.011  0.00  0.00    -0.056 C 
ATOM     18  H2  <0> d           0.478   3.819  -0.872  0.00  0.00     0.030 H 
ATOM     19  H3  <0> d           0.495   3.809   0.908  0.00  0.00     0.030 H 
ATOM     20  H4  <0> d           2.012   4.037   0.004  0.00  0.00     0.030 H 
ENDBRANCH  14  17
ENDBRANCH  13  14
ENDBRANCH  11  13
ENDBRANCH   8  11
ENDBRANCH   6   8
BRANCH   6  21
ATOM     21  O3  <0> d          -0.329  -2.638   1.212  0.00  0.00    -0.394 OA
ATOM     22  H11 <0> d          -0.843  -2.455   2.011  0.00  0.00     0.210 HD
ENDBRANCH   6  21
ENDBRANCH   1   6
TORSDOF 7
