REMARK  2 active torsions:
REMARK  status: ('A' for Active; 'I' for Inactive)
REMARK    1  A    between atoms: C1_1  and  C2_2 
REMARK    2  A    between atoms: C4_4  and  C7_11 
ROOT
ATOM      1  C2  <0> d           0.002  -0.004   0.002  0.00  0.00    -0.010 A 
ATOM      2  C3  <0> d           0.006  -0.688  -1.175  0.00  0.00    -0.048 A 
ATOM      3  C4  <0> d           0.025  -2.090  -1.175  0.00  0.00     0.052 A 
ATOM      4  N1  <0> d           0.039  -2.763  -0.056  0.00  0.00    -0.170 NA
ATOM      5  N2  <0> d           0.035  -2.098   1.172  0.00  0.00    -0.205 N 
ATOM      6  C5  <0> d           0.023  -0.724   1.210  0.00  0.00     0.179 A 
ATOM      7  N3  <0> d           0.030  -0.376   2.486  0.00  0.00    -0.128 NA
ATOM      8  N4  <0> d           0.051  -1.437   3.216  0.00  0.00    -0.141 NA
ATOM      9  C6  <0> d           0.047  -2.506   2.460  0.00  0.00     0.112 A 
ATOM     10  H4  <0> d          -0.006  -0.150  -2.111  0.00  0.00     0.087 H 
ATOM     11  H5  <0> d           0.061  -3.530   2.804  0.00  0.00     0.149 H 
ENDROOT
BRANCH   1  12
ATOM     12  C1  <0> d          -0.018   1.503   0.010  0.00  0.00    -0.047 C 
ATOM     13  H1  <0> d           1.004   1.880   0.003  0.00  0.00     0.033 H 
ATOM     14  H2  <0> d          -0.545   1.864  -0.873  0.00  0.00     0.033 H 
ATOM     15  H3  <0> d          -0.529   1.854   0.907  0.00  0.00     0.033 H 
ENDBRANCH   1  12
BRANCH   3  16
ATOM     16  C7  <0> d           0.029  -2.831  -2.487  0.00  0.00    -0.034 C 
ATOM     17  H6  <0> d           1.057  -2.996  -2.808  0.00  0.00     0.035 H 
ATOM     18  H7  <0> d          -0.471  -3.792  -2.363  0.00  0.00     0.035 H 
ATOM     19  H8  <0> d          -0.496  -2.242  -3.239  0.00  0.00     0.035 H 
ENDBRANCH   3  16
TORSDOF 2
