REMARK  2 active torsions:
REMARK  status: ('A' for Active; 'I' for Inactive)
REMARK    1  A    between atoms: C1_1  and  C2_2 
REMARK    2  A    between atoms: C2_2  and  C3_3 
ROOT
ATOM      1  C3  <0> d          -0.753   1.593  -1.232  0.00  0.00     0.048 C 
ATOM      2  H1  <0> d          -0.874   2.675  -1.178  0.00  0.00     0.084 H 
ATOM      3  C4  <0> d           0.026   1.209  -2.507  0.00  0.00    -0.032 C 
ATOM      4  C5  <0> d          -0.986   0.340  -3.287  0.00  0.00     0.018 C 
ATOM      5  C6  <0> d          -2.313   0.658  -2.624  0.00  0.00     0.259 C 
ATOM      6  O1  <0> d          -3.399   0.653  -3.153  0.00  0.00    -0.265 OA
ATOM      7  O2  <0> d          -2.054   0.947  -1.336  0.00  0.00    -0.316 OA
ATOM      8  H7  <0> d           0.291   2.099  -3.078  0.00  0.00     0.037 H 
ATOM      9  H8  <0> d           0.916   0.633  -2.256  0.00  0.00     0.037 H 
ATOM     10  H9  <0> d          -1.005   0.624  -4.339  0.00  0.00     0.048 H 
ATOM     11  H10 <0> d          -0.747  -0.718  -3.179  0.00  0.00     0.048 H 
ENDROOT
BRANCH   1  12
ATOM     12  C2  <0> d          -0.013   1.086   0.008  0.00  0.00    -0.044 C 
ATOM     13  H5  <0> d           0.002  -0.004   0.002  0.00  0.00     0.036 H 
ATOM     14  H6  <0> d           1.010   1.463   0.000  0.00  0.00     0.036 H 
BRANCH  12  15
ATOM     15  C1  <0> d          -0.729   1.579   1.267  0.00  0.00    -0.074 C 
ATOM     16  H2  <0> d          -0.744   2.669   1.273  0.00  0.00     0.027 H 
ATOM     17  H3  <0> d          -1.751   1.202   1.275  0.00  0.00     0.027 H 
ATOM     18  H4  <0> d          -0.202   1.218   2.150  0.00  0.00     0.027 H 
ENDBRANCH  12  15
ENDBRANCH   1  12
TORSDOF 2
