REMARK  5 active torsions:
REMARK  status: ('A' for Active; 'I' for Inactive)
REMARK    1  A    between atoms: C1_1  and  C2_2 
REMARK    2  A    between atoms: C2_2  and  C3_3 
REMARK    3  A    between atoms: C3_3  and  C4_5 
REMARK    4  A    between atoms: C3_3  and  O1_8 
REMARK    5  A    between atoms: C4_5  and  C5_6 
ROOT
ATOM      1  C5  <0> d          -1.264   5.072   2.651  0.00  0.00    -0.115 C 
ATOM      2  C6  <0> d          -1.193   6.243   2.699  0.00  0.00    -0.154 C 
ATOM      3  H9  <0> d          -1.129   7.290   2.741  0.00  0.00     0.166 H 
ENDROOT
BRANCH   1   4
ATOM      4  C4  <0> d          -1.354   3.604   2.591  0.00  0.00     0.014 C 
ATOM      5  H7  <0> d          -2.399   3.301   2.647  0.00  0.00     0.055 H 
ATOM      6  H8  <0> d          -0.805   3.172   3.428  0.00  0.00     0.055 H 
BRANCH   4   7
ATOM      7  C3  <0> d          -0.750   3.109   1.275  0.00  0.00     0.045 C 
ATOM      8  H1  <0> d           0.268   3.487   1.178  0.00  0.00     0.084 H 
BRANCH   7   9
ATOM      9  C2  <0> d          -0.729   1.579   1.267  0.00  0.00    -0.044 C 
ATOM     10  H5  <0> d          -1.751   1.202   1.275  0.00  0.00     0.036 H 
ATOM     11  H6  <0> d          -0.202   1.218   2.150  0.00  0.00     0.036 H 
BRANCH   9  12
ATOM     12  C1  <0> d          -0.013   1.086   0.008  0.00  0.00    -0.074 C 
ATOM     13  H2  <0> d           0.002  -0.004   0.002  0.00  0.00     0.027 H 
ATOM     14  H3  <0> d           1.010   1.463   0.000  0.00  0.00     0.027 H 
ATOM     15  H4  <0> d          -0.540   1.447  -0.875  0.00  0.00     0.027 H 
ENDBRANCH   9  12
ENDBRANCH   7   9
BRANCH   7  16
ATOM     16  O1  <0> d          -1.539   3.581   0.182  0.00  0.00    -0.395 OA
ATOM     17  H10 <0> d          -2.459   3.283   0.203  0.00  0.00     0.210 HD
ENDBRANCH   7  16
ENDBRANCH   4   7
ENDBRANCH   1   4
TORSDOF 5
