REMARK  2 active torsions:
REMARK  status: ('A' for Active; 'I' for Inactive)
REMARK    1  A    between atoms: C1_1  and  O1_2 
REMARK    2  A    between atoms: O1_2  and  C2_3 
ROOT
ATOM      1  C2  <0> d          -1.200  -0.637   0.010  0.00  0.00     0.068 A 
ATOM      2  C3  <0> d          -2.374   0.101   0.031  0.00  0.00    -0.051 A 
ATOM      3  C4  <0> d          -3.595  -0.545   0.033  0.00  0.00    -0.080 A 
ATOM      4  C5  <0> d          -3.648  -1.927   0.026  0.00  0.00    -0.083 A 
ATOM      5  C6  <0> d          -2.479  -2.665   0.011  0.00  0.00    -0.080 A 
ATOM      6  C7  <0> d          -1.255  -2.024   0.003  0.00  0.00    -0.051 A 
ATOM      7  H4  <0> d          -2.334   1.180   0.041  0.00  0.00     0.087 H 
ATOM      8  H5  <0> d          -4.510   0.029   0.045  0.00  0.00     0.083 H 
ATOM      9  H6  <0> d          -4.603  -2.430   0.033  0.00  0.00     0.083 H 
ATOM     10  H7  <0> d          -2.522  -3.744   0.006  0.00  0.00     0.083 H 
ATOM     11  H8  <0> d          -0.343  -2.601  -0.008  0.00  0.00     0.087 H 
ENDROOT
BRANCH   1  12
ATOM     12  O1  <0> d           0.002  -0.004   0.002  0.00  0.00    -0.356 OA
BRANCH  12  13
ATOM     13  C1  <0> d          -0.017   1.425   0.010  0.00  0.00     0.010 C 
ATOM     14  H1  <0> d           1.005   1.802   0.002  0.00  0.00     0.066 H 
ATOM     15  H2  <0> d          -0.544   1.786  -0.873  0.00  0.00     0.066 H 
ATOM     16  H3  <0> d          -0.527   1.776   0.907  0.00  0.00     0.066 H 
ENDBRANCH  12  13
ENDBRANCH   1  12
TORSDOF 2
