REMARK  3 active torsions:
REMARK  status: ('A' for Active; 'I' for Inactive)
REMARK    1  A    between atoms: C3_3  and  C7_9 
REMARK    2  A    between atoms: C7_9  and  C8_10 
REMARK    3  A    between atoms: C8_10  and  O1_11 
ROOT
ATOM      1  C1  <0> d           0.002  -0.004   0.002  0.00  0.00    -0.079 A 
ATOM      2  C2  <0> d           1.208  -0.680  -0.013  0.00  0.00    -0.074 A 
ATOM      3  C3  <0> d           2.397   0.024  -0.020  0.00  0.00    -0.014 A 
ATOM      4  C4  <0> d           2.382   1.408  -0.013  0.00  0.00     0.161 A 
ATOM      5  C5  <0> d           1.173   2.086   0.002  0.00  0.00     0.155 A 
ATOM      6  C6  <0> d          -0.017   1.378   0.010  0.00  0.00    -0.043 A 
ATOM      7  F1  <0> d           1.155   3.437   0.009  0.00  0.00    -0.203 F 
ATOM      8  F2  <0> d           3.544   2.097  -0.021  0.00  0.00    -0.202 F 
ATOM      9  H1  <0> d          -0.926  -0.556   0.008  0.00  0.00     0.083 H 
ATOM     10  H2  <0> d           1.220  -1.760  -0.018  0.00  0.00     0.084 H 
ATOM     11  H3  <0> d          -0.959   1.905   0.017  0.00  0.00     0.088 H 
ENDROOT
BRANCH   3  12
ATOM     12  C7  <0> d           3.710  -0.715  -0.037  0.00  0.00    -0.018 C 
ATOM     13  H4  <0> d           4.419  -0.211   0.620  0.00  0.00     0.043 H 
ATOM     14  H5  <0> d           3.557  -1.737   0.311  0.00  0.00     0.043 H 
BRANCH  12  15
ATOM     15  C8  <0> d           4.264  -0.739  -1.463  0.00  0.00     0.021 C 
ATOM     16  H6  <0> d           3.555  -1.244  -2.119  0.00  0.00     0.074 H 
ATOM     17  H7  <0> d           4.418   0.282  -1.810  0.00  0.00     0.074 H 
BRANCH  15  18
ATOM     18  O1  <0> d           5.509  -1.440  -1.478  0.00  0.00    -0.401 OA
ATOM     19  H8  <0> d           5.919  -1.494  -2.353  0.00  0.00     0.209 HD
ENDBRANCH  15  18
ENDBRANCH  12  15
ENDBRANCH   3  12
TORSDOF 3
