REMARK  2 active torsions:
REMARK  status: ('A' for Active; 'I' for Inactive)
REMARK    1  A    between atoms: C1_1  and  C2_2 
REMARK    2  A    between atoms: C5_5  and  O1_12 
ROOT
ATOM      1  C2  <0> d           0.002  -0.004   0.002  0.00  0.00     0.063 A 
ATOM      2  C3  <0> d           0.008  -0.857  -1.182  0.00  0.00     0.021 A 
ATOM      3  C4  <0> d          -0.002  -0.608  -2.559  0.00  0.00    -0.037 A 
ATOM      4  C5  <0> d           0.008  -1.667  -3.441  0.00  0.00     0.066 A 
ATOM      5  C6  <0> d           0.028  -2.978  -2.967  0.00  0.00    -0.049 A 
ATOM      6  C7  <0> d           0.037  -3.236  -1.627  0.00  0.00    -0.052 A 
ATOM      7  C8  <0> d           0.028  -2.185  -0.714  0.00  0.00     0.062 A 
ATOM      8  N1  <0> d           0.034  -2.119   0.657  0.00  0.00    -0.277 N 
ATOM      9  H1  <0> d           0.047  -2.881   1.257  0.00  0.00     0.189 HD
ATOM     10  N2  <0> d           0.023  -0.777   1.050  0.00  0.00    -0.179 NA
ATOM     11  H5  <0> d          -0.017   0.407  -2.928  0.00  0.00     0.089 H 
ATOM     12  H6  <0> d           0.035  -3.799  -3.669  0.00  0.00     0.087 H 
ATOM     13  H7  <0> d           0.052  -4.257  -1.274  0.00  0.00     0.087 H 
ENDROOT
BRANCH   1  14
ATOM     14  C1  <0> d          -0.018   1.503   0.010  0.00  0.00    -0.033 C 
ATOM     15  H2  <0> d           1.004   1.880   0.003  0.00  0.00     0.035 H 
ATOM     16  H3  <0> d          -0.545   1.864  -0.873  0.00  0.00     0.035 H 
ATOM     17  H4  <0> d          -0.529   1.854   0.907  0.00  0.00     0.035 H 
ENDBRANCH   1  14
BRANCH   4  18
ATOM     18  O1  <0> d          -0.001  -1.433  -4.780  0.00  0.00    -0.361 OA
ATOM     19  H8  <0> d           0.879  -1.353  -5.172  0.00  0.00     0.217 HD
ENDBRANCH   4  18
TORSDOF 2
