REMARK  2 active torsions:
REMARK  status: ('A' for Active; 'I' for Inactive)
REMARK    1  A    between atoms: C1_1  and  C2_2 
REMARK    2  A    between atoms: C7_7  and  C8_8 
ROOT
ATOM      1  C2  <0> d          -0.017   1.391   0.010  0.00  0.00    -0.054 A 
ATOM      2  C3  <0> d           1.129   2.121   0.003  0.00  0.00    -0.045 A 
ATOM      3  C4  <0> d           2.370   1.461  -0.013  0.00  0.00     0.109 A 
ATOM      4  C5  <0> d           2.390  -0.009  -0.021  0.00  0.00     0.109 A 
ATOM      5  C6  <0> d           1.167  -0.703  -0.013  0.00  0.00    -0.045 A 
ATOM      6  C7  <0> d           0.002  -0.004   0.002  0.00  0.00    -0.054 A 
ATOM      7  N1  <0> d           3.674  -0.329  -0.036  0.00  0.00    -0.155 NA
ATOM      8  N2  <0> d           4.372   0.753  -0.036  0.00  0.00    -0.196 N 
ATOM      9  H1  <0> d           5.372   0.767  -0.046  0.00  0.00     0.213 HD
ATOM     10  N3  <0> d           3.645   1.816  -0.023  0.00  0.00    -0.155 NA
ATOM     11  H5  <0> d           1.086   3.200   0.009  0.00  0.00     0.088 H 
ATOM     12  H6  <0> d           1.154  -1.783  -0.019  0.00  0.00     0.088 H 
ENDROOT
BRANCH   1  13
ATOM     13  C1  <0> d          -1.343   2.107   0.020  0.00  0.00    -0.051 C 
ATOM     14  H2  <0> d          -1.658   2.274   1.050  0.00  0.00     0.033 H 
ATOM     15  H3  <0> d          -1.242   3.065  -0.489  0.00  0.00     0.033 H 
ATOM     16  H4  <0> d          -2.088   1.499  -0.494  0.00  0.00     0.033 H 
ENDBRANCH   1  13
BRANCH   6  17
ATOM     17  C8  <0> d          -1.304  -0.756   0.011  0.00  0.00    -0.051 C 
ATOM     18  H7  <0> d          -1.629  -0.931  -1.015  0.00  0.00     0.033 H 
ATOM     19  H8  <0> d          -1.170  -1.711   0.518  0.00  0.00     0.033 H 
ATOM     20  H9  <0> d          -2.058  -0.168   0.535  0.00  0.00     0.033 H 
ENDBRANCH   6  17
TORSDOF 2
