REMARK  3 active torsions:
REMARK  status: ('A' for Active; 'I' for Inactive)
REMARK    1  A    between atoms: C1_1  and  C2_2 
REMARK    2  A    between atoms: C5_5  and  C8_9 
REMARK    3  A    between atoms: C6_6  and  C7_8 
ROOT
ATOM      1  C2  <0> d          -0.037   4.179   0.247  0.00  0.00     0.031 A 
ATOM      2  C3  <0> d          -1.221   3.509  -0.003  0.00  0.00    -0.058 A 
ATOM      3  C4  <0> d          -1.192   2.147  -0.244  0.00  0.00    -0.062 A 
ATOM      4  C5  <0> d           0.048   1.495  -0.214  0.00  0.00     0.065 A 
ATOM      5  C6  <0> d           1.197   2.243   0.045  0.00  0.00     0.048 A 
ATOM      6  N1  <0> d           1.117   3.539   0.264  0.00  0.00    -0.258 NA
ATOM      7  H4  <0> d          -2.159   4.045  -0.013  0.00  0.00     0.086 H 
ATOM      8  H5  <0> d          -2.101   1.600  -0.446  0.00  0.00     0.085 H 
ENDROOT
BRANCH   1   9
ATOM      9  C1  <0> d          -0.065   5.663   0.504  0.00  0.00    -0.035 C 
ATOM     10  H1  <0> d          -1.102   6.025   0.452  0.00  0.00     0.035 H 
ATOM     11  H2  <0> d           0.542   6.178  -0.255  0.00  0.00     0.035 H 
ATOM     12  H3  <0> d           0.346   5.870   1.504  0.00  0.00     0.035 H 
ENDBRANCH   1   9
BRANCH   5  13
ATOM     13  C7  <0> d           2.541   1.562   0.076  0.00  0.00    -0.035 C 
ATOM     14  H6  <0> d           3.323   2.304   0.293  0.00  0.00     0.035 H 
ATOM     15  H7  <0> d           2.738   1.096  -0.901  0.00  0.00     0.035 H 
ATOM     16  H8  <0> d           2.542   0.788   0.857  0.00  0.00     0.035 H 
ENDBRANCH   5  13
BRANCH   4  17
ATOM     17  C8  <0> d           0.137   0.041  -0.460  0.00  0.00     0.211 C 
ATOM     18  O1  <0> d           1.224  -0.495  -0.545  0.00  0.00    -0.644 OA
ATOM     19  O2  <0> d          -0.986  -0.691  -0.591  0.00  0.00    -0.644 OA
ENDBRANCH   4  17
TORSDOF 3
