REMARK  1 active torsions:
REMARK  status: ('A' for Active; 'I' for Inactive)
REMARK    1  A    between atoms: C3_3  and  C7_9 
ROOT
ATOM      1  C1  <0> d           0.171   5.205   0.028  0.00  0.00    -0.065 A 
ATOM      2  C2  <0> d           0.063   3.825   0.022  0.00  0.00    -0.062 A 
ATOM      3  C3  <0> d           1.238   3.067   0.007  0.00  0.00     0.080 A 
ATOM      4  C4  <0> d           2.476   3.736   0.004  0.00  0.00     0.153 A 
ATOM      5  N1  <0> d           2.521   5.061   0.005  0.00  0.00    -0.249 NA
ATOM      6  C5  <0> d           1.426   5.792   0.019  0.00  0.00     0.004 A 
ATOM      7  C6  <0> d           3.693   2.981  -0.005  0.00  0.00     0.120 C 
ATOM      8  N2  <0> d           4.659   2.383  -0.013  0.00  0.00    -0.190 NA
ATOM      9  H1  <0> d          -0.717   5.820   0.041  0.00  0.00     0.085 H 
ATOM     10  H2  <0> d          -0.905   3.346   0.029  0.00  0.00     0.085 H 
ATOM     11  H3  <0> d           1.508   6.869   0.024  0.00  0.00     0.114 H 
ENDROOT
BRANCH   3  12
ATOM     12  C7  <0> d           1.181   1.591  -0.001  0.00  0.00     0.212 C 
ATOM     13  O1  <0> d           2.208   0.943  -0.014  0.00  0.00    -0.644 OA
ATOM     14  O2  <0> d          -0.011   0.963   0.007  0.00  0.00    -0.644 OA
ENDBRANCH   3  12
TORSDOF 1
