REMARK  3 active torsions:
REMARK  status: ('A' for Active; 'I' for Inactive)
REMARK    1  A    between atoms: C1_1  and  C2_2 
REMARK    2  A    between atoms: C3_4  and  C6_9 
REMARK    3  A    between atoms: C4_6  and  C5_8 
ROOT
ATOM      1  C2  <0> d           0.002  -0.004   0.002  0.00  0.00     0.126 A 
ATOM      2  N1  <0> d           0.006  -0.659  -1.147  0.00  0.00    -0.219 NA
ATOM      3  C3  <0> d           0.024  -1.981  -1.154  0.00  0.00     0.126 A 
ATOM      4  N2  <0> d           0.038  -2.648  -0.013  0.00  0.00    -0.219 NA
ATOM      5  C4  <0> d           0.035  -1.994   1.136  0.00  0.00     0.126 A 
ATOM      6  N3  <0> d           0.022  -0.671   1.143  0.00  0.00    -0.219 NA
ENDROOT
BRANCH   1   7
ATOM      7  C1  <0> d          -0.018   1.503   0.010  0.00  0.00    -0.019 C 
ATOM      8  H1  <0> d           1.004   1.880   0.003  0.00  0.00     0.037 H 
ATOM      9  H2  <0> d          -0.545   1.864  -0.873  0.00  0.00     0.037 H 
ATOM     10  H3  <0> d          -0.529   1.854   0.907  0.00  0.00     0.037 H 
ENDBRANCH   1   7
BRANCH   5  11
ATOM     11  C5  <0> d           0.051  -2.754   2.437  0.00  0.00    -0.019 C 
ATOM     12  H4  <0> d           1.083  -2.924   2.746  0.00  0.00     0.037 H 
ATOM     13  H5  <0> d          -0.467  -2.176   3.203  0.00  0.00     0.037 H 
ATOM     14  H6  <0> d          -0.451  -3.712   2.304  0.00  0.00     0.037 H 
ENDBRANCH   5  11
BRANCH   3  15
ATOM     15  C6  <0> d           0.027  -2.728  -2.463  0.00  0.00    -0.019 C 
ATOM     16  H7  <0> d           1.055  -2.893  -2.784  0.00  0.00     0.037 H 
ATOM     17  H8  <0> d          -0.473  -3.688  -2.336  0.00  0.00     0.037 H 
ATOM     18  H9  <0> d          -0.499  -2.141  -3.217  0.00  0.00     0.037 H 
ENDBRANCH   3  15
TORSDOF 3
