REMARK  3 active torsions:
REMARK  status: ('A' for Active; 'I' for Inactive)
REMARK    1  A    between atoms: C1_1  and  C2_2 
REMARK    2  A    between atoms: C4_4  and  N1_7 
REMARK       I    between atoms: N1_7  and  C6_8 
REMARK    3  A    between atoms: C6_8  and  C7_10 
ROOT
ATOM      1  C2  <0> d           1.299   2.082   0.001  0.00  0.00    -0.053 A 
ATOM      2  C3  <0> d           2.222   1.053  -0.013  0.00  0.00    -0.044 A 
ATOM      3  C4  <0> d           1.772  -0.233  -0.016  0.00  0.00     0.076 A 
ATOM      4  S1  <0> d           0.002  -0.004   0.002  0.00  0.00    -0.084 SA
ATOM      5  C5  <0> d          -0.022   1.781   0.012  0.00  0.00    -0.037 A 
ATOM      6  H4  <0> d           3.281   1.265  -0.022  0.00  0.00     0.088 H 
ATOM      7  H5  <0> d          -0.871   2.449   0.020  0.00  0.00     0.095 H 
ENDROOT
BRANCH   3   8
ATOM      8  N1  <0> d           2.506  -1.422  -0.030  0.00  0.00    -0.322 N 
ATOM      9  C6  <0> d           1.867  -2.609  -0.030  0.00  0.00     0.218 C 
ATOM     10  O1  <0> d           0.654  -2.644  -0.018  0.00  0.00    -0.274 OA
ATOM     11  H6  <0> d           3.606  -1.390  -0.041  0.00  0.00     0.169 HD
BRANCH   9  12
ATOM     12  C7  <0> d           2.658  -3.891  -0.045  0.00  0.00    -0.003 C 
ATOM     13  H7  <0> d           1.968  -4.748  -0.043  0.00  0.00     0.040 H 
ATOM     14  H8  <0> d           3.301  -3.936   0.847  0.00  0.00     0.040 H 
ATOM     15  H9  <0> d           3.283  -3.926  -0.950  0.00  0.00     0.040 H 
ENDBRANCH   9  12
ENDBRANCH   3   8
BRANCH   1  16
ATOM     16  C1  <0> d           1.755   3.518   0.004  0.00  0.00    -0.051 C 
ATOM     17  H1  <0> d           2.854   3.553  -0.006  0.00  0.00     0.033 H 
ATOM     18  H2  <0> d           1.380   4.020   0.908  0.00  0.00     0.033 H 
ATOM     19  H3  <0> d           1.363   4.029  -0.888  0.00  0.00     0.033 H 
ENDBRANCH   1  16
TORSDOF 3
