REMARK  2 active torsions:
REMARK  status: ('A' for Active; 'I' for Inactive)
REMARK    1  A    between atoms: C4_4  and  N2_8 
REMARK    2  A    between atoms: C5_5  and  N1_7 
ROOT
ATOM      1  C1  <0> d          -1.242   3.133   0.030  0.00  0.00    -0.081 A 
ATOM      2  C2  <0> d          -1.219   1.750   0.017  0.00  0.00    -0.081 A 
ATOM      3  C3  <0> d          -0.013   1.076   0.008  0.00  0.00    -0.054 A 
ATOM      4  C4  <0> d           1.179   1.785   0.000  0.00  0.00     0.066 A 
ATOM      5  C5  <0> d           1.155   3.179   0.008  0.00  0.00     0.053 A 
ATOM      6  C6  <0> d          -0.060   3.849   0.022  0.00  0.00    -0.055 A 
ATOM      7  H1  <0> d          -2.188   3.655   0.042  0.00  0.00     0.083 H 
ATOM      8  H2  <0> d          -2.146   1.196   0.019  0.00  0.00     0.083 H 
ATOM      9  H3  <0> d           0.002  -0.004   0.002  0.00  0.00     0.087 H 
ATOM     10  H4  <0> d          -0.082   4.928   0.028  0.00  0.00     0.087 H 
ENDROOT
BRANCH   4  11
ATOM     11  N2  <0> d           2.405   1.102  -0.015  0.00  0.00    -0.313 N 
ATOM     12  C9  <0> d           3.444   1.327  -0.860  0.00  0.00     0.070 A 
ATOM     13  N3  <0> d           4.406   0.496  -0.566  0.00  0.00    -0.254 NA
ATOM     14  H9  <0> d           3.469   2.070  -1.644  0.00  0.00     0.144 H 
ATOM     15  C8  <0> d           4.026  -0.279   0.461  0.00  0.00     0.019 A 
ATOM     16  C7  <0> d           2.782   0.086   0.824  0.00  0.00     0.003 A 
ATOM     17  H8  <0> d           4.617  -1.058   0.919  0.00  0.00     0.117 H 
ATOM     18  H7  <0> d           2.193  -0.342   1.622  0.00  0.00     0.114 H 
ENDBRANCH   4  11
BRANCH   5  19
ATOM     19  N1  <0> d           2.353   3.901   0.001  0.00  0.00    -0.397 N 
ATOM     20  H5  <0> d           3.202   3.431  -0.009  0.00  0.00     0.156 HD
ATOM     21  H6  <0> d           2.335   4.870   0.006  0.00  0.00     0.156 HD
ENDBRANCH   5  19
TORSDOF 2
