REMARK  0 active torsions:
REMARK  status: ('A' for Active; 'I' for Inactive)
ROOT
ATOM      1  C1  <0> d           1.161   3.443   0.009  0.00  0.00    -0.079 A 
ATOM      2  C2  <0> d          -0.019   4.132   0.024  0.00  0.00    -0.071 A 
ATOM      3  C3  <0> d          -1.230   3.436   0.032  0.00  0.00    -0.005 A 
ATOM      4  C4  <0> d          -2.637   3.841   0.047  0.00  0.00    -0.056 A 
ATOM      5  C5  <0> d          -3.370   2.716   0.048  0.00  0.00    -0.022 A 
ATOM      6  N1  <0> d          -2.547   1.624   0.035  0.00  0.00    -0.363 N 
ATOM      7  H1  <0> d          -2.845   0.701   0.033  0.00  0.00     0.165 HD
ATOM      8  C6  <0> d          -1.230   2.030   0.019  0.00  0.00     0.081 A 
ATOM      9  C7  <0> d          -0.016   1.347   0.009  0.00  0.00     0.143 A 
ATOM     10  C8  <0> d           1.167   2.056   0.002  0.00  0.00    -0.043 A 
ATOM     11  F1  <0> d           0.002  -0.004   0.002  0.00  0.00    -0.204 F 
ATOM     12  H2  <0> d           2.096   3.983   0.004  0.00  0.00     0.083 H 
ATOM     13  H3  <0> d          -0.016   5.212   0.030  0.00  0.00     0.084 H 
ATOM     14  H4  <0> d          -3.014   4.853   0.056  0.00  0.00     0.086 H 
ATOM     15  H5  <0> d          -4.449   2.679   0.058  0.00  0.00     0.111 H 
ATOM     16  H6  <0> d           2.108   1.525  -0.010  0.00  0.00     0.088 H 
ENDROOT
TORSDOF 0
