REMARK  3 active torsions:
REMARK  status: ('A' for Active; 'I' for Inactive)
REMARK    1  A    between atoms: C1_1  and  C2_2 
REMARK    2  A    between atoms: C1_1  and  O2_6 
REMARK    3  A    between atoms: C3_3  and  C4_4 
ROOT
ATOM      1  C1  <0> d           0.038  -2.650  -0.013  0.00  0.00     0.072 C 
ATOM      2  H1  <0> d           0.548  -3.001  -0.909  0.00  0.00     0.093 H 
ATOM      3  H2  <0> d           0.565  -3.011   0.871  0.00  0.00     0.093 H 
ENDROOT
BRANCH   1   4
ATOM      4  C2  <0> d           0.018  -1.178  -0.004  0.00  0.00    -0.069 C 
ATOM      5  C3  <0> d           0.002  -0.004   0.002  0.00  0.00     0.007 C 
BRANCH   5   6
ATOM      6  C4  <0> d          -0.017   1.428   0.010  0.00  0.00     0.258 C 
ATOM      7  O1  <0> d          -1.078   2.021   0.018  0.00  0.00    -0.637 OA
ATOM      8  O3  <0> d           1.141   2.118   0.003  0.00  0.00    -0.637 OA
ENDBRANCH   5   6
ENDBRANCH   1   4
BRANCH   1   9
ATOM      9  O2  <0> d          -1.303  -3.144  -0.002  0.00  0.00    -0.389 OA
ATOM     10  H3  <0> d          -1.366  -4.109  -0.007  0.00  0.00     0.210 HD
ENDBRANCH   1   9
TORSDOF 3
