REMARK  5 active torsions:
REMARK  status: ('A' for Active; 'I' for Inactive)
REMARK    1  A    between atoms: C1_1  and  C2_2 
REMARK    2  A    between atoms: C4_6  and  C8_12 
REMARK    3  A    between atoms: C5_7  and  C6_8 
REMARK    4  A    between atoms: C6_8  and  O2_10 
REMARK    5  A    between atoms: O2_10  and  C7_11 
ROOT
ATOM      1  C2  <0> d           0.002  -0.004   0.002  0.00  0.00    -0.028 A 
ATOM      2  C3  <0> d           0.009  -0.804  -1.079  0.00  0.00    -0.016 A 
ATOM      3  N1  <0> d           0.028  -2.105  -0.670  0.00  0.00    -0.368 N 
ATOM      4  H1  <0> d           0.036  -2.872  -1.265  0.00  0.00     0.165 HD
ATOM      5  C4  <0> d           0.034  -2.175   0.674  0.00  0.00     0.022 A 
ATOM      6  C5  <0> d           0.025  -0.890   1.172  0.00  0.00     0.068 A 
ATOM      7  H5  <0> d          -0.000  -0.469  -2.106  0.00  0.00     0.112 H 
ENDROOT
BRANCH   6   8
ATOM      8  C6  <0> d           0.034  -0.488   2.587  0.00  0.00     0.295 C 
ATOM      9  O1  <0> d          -1.015  -0.335   3.182  0.00  0.00    -0.259 OA
BRANCH   8  10
ATOM     10  O2  <0> d           1.205  -0.288   3.224  0.00  0.00    -0.322 OA
BRANCH  10  11
ATOM     11  C7  <0> d           1.139   0.101   4.597  0.00  0.00     0.013 C 
ATOM     12  H6  <0> d           0.595   1.041   4.683  0.00  0.00     0.067 H 
ATOM     13  H7  <0> d           0.622  -0.671   5.169  0.00  0.00     0.067 H 
ATOM     14  H8  <0> d           2.148   0.228   4.988  0.00  0.00     0.067 H 
ENDBRANCH  10  11
ENDBRANCH   8  10
ENDBRANCH   6   8
BRANCH   1  15
ATOM     15  C1  <0> d          -0.018   1.503   0.010  0.00  0.00    -0.049 C 
ATOM     16  H2  <0> d           1.004   1.880   0.003  0.00  0.00     0.033 H 
ATOM     17  H3  <0> d          -0.545   1.864  -0.873  0.00  0.00     0.033 H 
ATOM     18  H4  <0> d          -0.529   1.854   0.907  0.00  0.00     0.033 H 
ENDBRANCH   1  15
BRANCH   5  19
ATOM     19  C8  <0> d           0.055  -3.440   1.493  0.00  0.00    -0.036 C 
ATOM     20  H9  <0> d           1.087  -3.730   1.687  0.00  0.00     0.035 H 
ATOM     21  H10 <0> d          -0.458  -3.268   2.440  0.00  0.00     0.035 H 
ATOM     22  H11 <0> d          -0.450  -4.236   0.946  0.00  0.00     0.035 H 
ENDBRANCH   5  19
TORSDOF 5
