REMARK  0 active torsions:
REMARK  status: ('A' for Active; 'I' for Inactive)
ROOT
ATOM      1  C1  <0> d          -0.013   1.076   0.008  0.00  0.00    -0.064 A 
ATOM      2  C2  <0> d          -1.204   1.742   0.017  0.00  0.00    -0.051 A 
ATOM      3  C3  <0> d          -1.180   3.151   0.030  0.00  0.00     0.085 A 
ATOM      4  C4  <0> d           0.074   3.810   0.021  0.00  0.00     0.085 A 
ATOM      5  C5  <0> d           0.098   5.219   0.029  0.00  0.00    -0.051 A 
ATOM      6  C6  <0> d          -1.093   5.885   0.045  0.00  0.00    -0.064 A 
ATOM      7  C7  <0> d          -2.291   5.172   0.053  0.00  0.00     0.003 A 
ATOM      8  N1  <0> d          -2.310   3.861   0.046  0.00  0.00    -0.259 NA
ATOM      9  N2  <0> d           1.204   3.100   0.007  0.00  0.00    -0.259 NA
ATOM     10  C8  <0> d           1.185   1.789   0.000  0.00  0.00     0.003 A 
ATOM     11  H1  <0> d           0.002  -0.004   0.002  0.00  0.00     0.085 H 
ATOM     12  H2  <0> d          -2.140   1.204   0.019  0.00  0.00     0.087 H 
ATOM     13  H3  <0> d           1.034   5.757   0.022  0.00  0.00     0.087 H 
ATOM     14  H4  <0> d          -1.108   6.965   0.052  0.00  0.00     0.085 H 
ATOM     15  H5  <0> d          -3.226   5.713   0.066  0.00  0.00     0.114 H 
ATOM     16  H6  <0> d           2.120   1.248  -0.011  0.00  0.00     0.114 H 
ENDROOT
TORSDOF 0
