REMARK  3 active torsions:
REMARK  status: ('A' for Active; 'I' for Inactive)
REMARK    1  A    between atoms: C1_1  and  C2_2 
REMARK    2  A    between atoms: C2_2  and  C6_9 
REMARK    3  A    between atoms: C4_4  and  C5_6 
REMARK       I    between atoms: C5_6  and  N1_8 
ROOT
ATOM      1  C2  <0> d          -0.729   1.579   1.267  0.00  0.00    -0.035 A 
ATOM      2  C3  <0> d          -0.008   2.619   2.128  0.00  0.00    -0.046 A 
ATOM      3  C4  <0> d          -0.139   1.175   2.619  0.00  0.00     0.030 A 
ATOM      4  H1  <0> d           0.760   0.558   2.612  0.00  0.00     0.055 H 
ATOM      5  H5  <0> d           0.976   2.951   1.798  0.00  0.00     0.035 H 
ATOM      6  H6  <0> d          -0.619   3.375   2.620  0.00  0.00     0.035 H 
ENDROOT
BRANCH   1   7
ATOM      7  C1  <0> d          -0.013   1.086   0.008  0.00  0.00    -0.069 C 
ATOM      8  H2  <0> d           0.002  -0.004   0.002  0.00  0.00     0.028 H 
ATOM      9  H3  <0> d           1.010   1.463   0.000  0.00  0.00     0.028 H 
ATOM     10  H4  <0> d          -0.540   1.447  -0.875  0.00  0.00     0.028 H 
ENDBRANCH   1   7
BRANCH   1  11
ATOM     11  C6  <0> d          -2.252   1.681   1.163  0.00  0.00    -0.069 C 
ATOM     12  H9  <0> d          -2.697   0.713   1.392  0.00  0.00     0.028 H 
ATOM     13  H10 <0> d          -2.616   2.425   1.871  0.00  0.00     0.028 H 
ATOM     14  H11 <0> d          -2.528   1.977   0.150  0.00  0.00     0.028 H 
ENDBRANCH   1  11
BRANCH   3  15
ATOM     15  C5  <0> d          -1.102   0.908   3.747  0.00  0.00     0.220 C 
ATOM     16  O1  <0> d          -2.296   1.016   3.563  0.00  0.00    -0.273 OA
ATOM     17  N1  <0> d          -0.637   0.549   4.960  0.00  0.00    -0.370 N 
ATOM     18  H7  <0> d           0.318   0.463   5.107  0.00  0.00     0.159 HD
ATOM     19  H8  <0> d          -1.257   0.377   5.686  0.00  0.00     0.159 HD
ENDBRANCH   3  15
TORSDOF 3
