REMARK  5 active torsions:
REMARK  status: ('A' for Active; 'I' for Inactive)
REMARK    1  A    between atoms: C1_1  and  C2_2 
REMARK    2  A    between atoms: C2_2  and  O1_3 
REMARK    3  A    between atoms: O1_3  and  C3_4 
REMARK    4  A    between atoms: C3_4  and  C4_6 
REMARK    5  A    between atoms: C7_10  and  C9_12 
ROOT
ATOM      1  C4  <0> d          -0.013   1.086   0.008  0.00  0.00     0.037 C 
ATOM      2  H1  <0> d           0.002  -0.004   0.002  0.00  0.00     0.056 H 
ATOM      3  C5  <0> d          -0.815   1.623   1.216  0.00  0.00    -0.037 C 
ATOM      4  C6  <0> d          -2.216   1.826   0.686  0.00  0.00    -0.100 C 
ATOM      5  C7  <0> d          -2.229   1.833  -0.619  0.00  0.00    -0.087 C 
ATOM      6  C8  <0> d          -0.838   1.636  -1.178  0.00  0.00    -0.033 C 
ATOM      7  H7  <0> d          -0.817   0.894   2.025  0.00  0.00     0.040 H 
ATOM      8  H8  <0> d          -0.396   2.570   1.559  0.00  0.00     0.040 H 
ATOM      9  H9  <0> d          -3.091   1.949   1.307  0.00  0.00     0.077 H 
ATOM     10  H10 <0> d          -0.427   2.587  -1.518  0.00  0.00     0.041 H 
ATOM     11  H11 <0> d          -0.855   0.915  -1.996  0.00  0.00     0.041 H 
ENDROOT
BRANCH   1  12
ATOM     12  C3  <0> d           1.387   1.643  -0.002  0.00  0.00     0.263 C 
ATOM     13  O2  <0> d           1.743   2.367  -0.902  0.00  0.00    -0.265 OA
BRANCH  12  14
ATOM     14  O1  <0> d           2.240   1.334   0.987  0.00  0.00    -0.322 OA
BRANCH  14  15
ATOM     15  C2  <0> d           3.572   1.907   0.912  0.00  0.00     0.025 C 
ATOM     16  H5  <0> d           4.058   1.577  -0.006  0.00  0.00     0.074 H 
ATOM     17  H6  <0> d           3.501   2.994   0.916  0.00  0.00     0.074 H 
BRANCH  15  18
ATOM     18  C1  <0> d           4.394   1.446   2.118  0.00  0.00    -0.056 C 
ATOM     19  H2  <0> d           3.908   1.775   3.036  0.00  0.00     0.030 H 
ATOM     20  H3  <0> d           4.465   0.358   2.115  0.00  0.00     0.030 H 
ATOM     21  H4  <0> d           5.394   1.875   2.062  0.00  0.00     0.030 H 
ENDBRANCH  15  18
ENDBRANCH  14  15
ENDBRANCH  12  14
ENDBRANCH   1  12
BRANCH   5  22
ATOM     22  C9  <0> d          -3.467   2.013  -1.458  0.00  0.00    -0.055 C 
ATOM     23  H12 <0> d          -4.333   2.135  -0.807  0.00  0.00     0.033 H 
ATOM     24  H13 <0> d          -3.357   2.899  -2.084  0.00  0.00     0.033 H 
ATOM     25  H14 <0> d          -3.609   1.137  -2.090  0.00  0.00     0.033 H 
ENDBRANCH   5  22
TORSDOF 5
