REMARK  3 active torsions:
REMARK  status: ('A' for Active; 'I' for Inactive)
REMARK    1  A    between atoms: C1_1  and  C2_2 
REMARK    2  A    between atoms: C2_2  and  O1_3 
REMARK    3  A    between atoms: O1_3  and  C3_4 
REMARK       I    between atoms: C3_4  and  N1_6 
ROOT
ATOM      1  C3  <0> d          -1.102   2.267   0.020  0.00  0.00     0.363 C 
ATOM      2  O2  <0> d          -2.216   1.782   0.023  0.00  0.00    -0.238 OA
ATOM      3  N1  <0> d          -0.018   1.466   0.010  0.00  0.00    -0.321 N 
ATOM      4  C4  <0> d           1.393   1.877  -0.001  0.00  0.00     0.015 A 
ATOM      5  C5  <0> d           2.222   0.620  -0.016  0.00  0.00    -0.088 A 
ATOM      6  C6  <0> d           1.447  -0.428  -0.014  0.00  0.00    -0.088 A 
ATOM      7  C7  <0> d           0.002  -0.004   0.002  0.00  0.00     0.015 A 
ATOM      8  H6  <0> d           1.600   2.469  -0.893  0.00  0.00     0.070 H 
ATOM      9  H7  <0> d           1.617   2.459   0.893  0.00  0.00     0.070 H 
ATOM     10  H8  <0> d           3.302   0.592  -0.026  0.00  0.00     0.079 H 
ATOM     11  H9  <0> d           1.791  -1.452  -0.022  0.00  0.00     0.079 H 
ATOM     12  H10 <0> d          -0.487  -0.387   0.898  0.00  0.00     0.070 H 
ATOM     13  H11 <0> d          -0.504  -0.377  -0.888  0.00  0.00     0.070 H 
ENDROOT
BRANCH   1  14
ATOM     14  O1  <0> d          -0.950   3.605   0.026  0.00  0.00    -0.304 OA
BRANCH  14  15
ATOM     15  C2  <0> d          -2.161   4.405   0.037  0.00  0.00     0.027 C 
ATOM     16  H4  <0> d          -2.752   4.182  -0.852  0.00  0.00     0.074 H 
ATOM     17  H5  <0> d          -2.743   4.172   0.928  0.00  0.00     0.074 H 
BRANCH  15  18
ATOM     18  C1  <0> d          -1.791   5.890   0.043  0.00  0.00    -0.056 C 
ATOM     19  H1  <0> d          -1.200   6.113   0.931  0.00  0.00     0.030 H 
ATOM     20  H2  <0> d          -1.208   6.123  -0.849  0.00  0.00     0.030 H 
ATOM     21  H3  <0> d          -2.700   6.491   0.051  0.00  0.00     0.030 H 
ENDBRANCH  15  18
ENDBRANCH  14  15
ENDBRANCH   1  14
TORSDOF 3
