REMARK  3 active torsions:
REMARK  status: ('A' for Active; 'I' for Inactive)
REMARK    1  A    between atoms: C1_1  and  C2_2 
REMARK    2  A    between atoms: C4_5  and  C5_7 
REMARK    3  A    between atoms: C7_9  and  N3_13 
ROOT
ATOM      1  C2  <0> d           0.002  -0.004   0.002  0.00  0.00    -0.048 A 
ATOM      2  H1  <0> d           0.075  -0.468  -0.982  0.00  0.00     0.040 H 
ATOM      3  C3  <0> d          -0.828  -0.728   1.065  0.00  0.00    -0.052 A 
ATOM      4  C4  <0> d           0.700  -0.708   1.168  0.00  0.00    -0.006 A 
ATOM      5  H2  <0> d           1.144  -0.081   1.941  0.00  0.00     0.050 H 
ATOM      6  H7  <0> d          -1.388  -0.114   1.770  0.00  0.00     0.034 H 
ATOM      7  H8  <0> d          -1.300  -1.668   0.780  0.00  0.00     0.034 H 
ENDROOT
BRANCH   4   8
ATOM      8  C5  <0> d           1.434  -1.989   0.869  0.00  0.00     0.062 A 
ATOM      9  N2  <0> d           2.712  -2.097   0.610  0.00  0.00    -0.177 NA
ATOM     10  N1  <0> d           3.006  -3.449   0.390  0.00  0.00    -0.263 N 
ATOM     11  C7  <0> d           1.856  -4.150   0.516  0.00  0.00     0.117 A 
ATOM     12  H3  <0> d           3.879  -3.816   0.180  0.00  0.00     0.190 HD
ATOM     13  C6  <0> d           0.866  -3.264   0.814  0.00  0.00    -0.014 A 
ATOM     14  H9  <0> d          -0.175  -3.505   0.978  0.00  0.00     0.092 H 
BRANCH  11  15
ATOM     15  N3  <0> d           1.713  -5.527   0.370  0.00  0.00    -0.384 N 
ATOM     16  H10 <0> d           0.841  -5.938   0.481  0.00  0.00     0.157 HD
ATOM     17  H11 <0> d           2.484  -6.075   0.156  0.00  0.00     0.157 HD
ENDBRANCH  11  15
ENDBRANCH   4   8
BRANCH   1  18
ATOM     18  C1  <0> d          -0.019   1.526   0.010  0.00  0.00    -0.072 C 
ATOM     19  H4  <0> d           1.004   1.903   0.003  0.00  0.00     0.028 H 
ATOM     20  H5  <0> d          -0.546   1.887  -0.873  0.00  0.00     0.028 H 
ATOM     21  H6  <0> d          -0.529   1.877   0.907  0.00  0.00     0.028 H 
ENDBRANCH   1  18
TORSDOF 3
