REMARK  1 active torsions:
REMARK  status: ('A' for Active; 'I' for Inactive)
REMARK    1  A    between atoms: C1_1  and  C2_2 
ROOT
ATOM      1  C2  <0> d           3.552   2.113  -0.021  0.00  0.00     0.057 A 
ATOM      2  C3  <0> d           2.497   1.185  -0.015  0.00  0.00     0.140 A 
ATOM      3  N1  <0> d           2.363  -0.127  -0.021  0.00  0.00    -0.126 NA
ATOM      4  N2  <0> d           1.213  -0.698  -0.013  0.00  0.00    -0.039 NA
ATOM      5  N3  <0> d           0.002  -0.004   0.002  0.00  0.00    -0.085 NA
ATOM      6  C4  <0> d          -0.016   1.351   0.009  0.00  0.00     0.319 A 
ATOM      7  O1  <0> d          -1.061   1.974   0.018  0.00  0.00    -0.262 OA
ATOM      8  C5  <0> d           1.287   2.034   0.001  0.00  0.00     0.180 A 
ATOM      9  N4  <0> d           1.721   3.272   0.003  0.00  0.00    -0.167 NA
ATOM     10  N5  <0> d           3.005   3.313  -0.009  0.00  0.00    -0.280 N 
ATOM     11  H4  <0> d           3.643   4.208  -0.010  0.00  0.00     0.189 HD
ENDROOT
BRANCH   1  12
ATOM     12  C1  <0> d           5.026   1.797  -0.036  0.00  0.00    -0.034 C 
ATOM     13  H1  <0> d           5.167   0.706  -0.043  0.00  0.00     0.035 H 
ATOM     14  H2  <0> d           5.502   2.223   0.860  0.00  0.00     0.035 H 
ATOM     15  H3  <0> d           5.484   2.232  -0.937  0.00  0.00     0.035 H 
ENDBRANCH   1  12
TORSDOF 1
