REMARK  4 active torsions:
REMARK  status: ('A' for Active; 'I' for Inactive)
REMARK    1  A    between atoms: C1_1  and  O1_2 
REMARK    2  A    between atoms: O1_2  and  C2_3 
REMARK    3  A    between atoms: C6_7  and  S1_9 
REMARK    4  A    between atoms: S1_9  and  C8_10 
ROOT
ATOM      1  C2  <0> d           0.492   0.745   5.176  0.00  0.00     0.069 A 
ATOM      2  C3  <0> d           1.613  -0.025   4.898  0.00  0.00    -0.051 A 
ATOM      3  C4  <0> d           1.975  -0.275   3.588  0.00  0.00    -0.079 A 
ATOM      4  C5  <0> d           1.219   0.236   2.550  0.00  0.00    -0.067 A 
ATOM      5  C6  <0> d           0.099   1.013   2.823  0.00  0.00     0.002 A 
ATOM      6  C7  <0> d          -0.266   1.264   4.139  0.00  0.00    -0.035 A 
ATOM      7  H4  <0> d           2.204  -0.430   5.706  0.00  0.00     0.087 H 
ATOM      8  H5  <0> d           2.847  -0.875   3.374  0.00  0.00     0.083 H 
ATOM      9  H6  <0> d           1.501   0.036   1.527  0.00  0.00     0.085 H 
ATOM     10  H7  <0> d          -1.138   1.864   4.354  0.00  0.00     0.089 H 
ENDROOT
BRANCH   1  11
ATOM     11  O1  <0> d           0.139   0.989   6.466  0.00  0.00    -0.356 OA
BRANCH  11  12
ATOM     12  C1  <0> d           0.966   0.422   7.484  0.00  0.00     0.010 C 
ATOM     13  H1  <0> d           0.573   0.693   8.464  0.00  0.00     0.066 H 
ATOM     14  H2  <0> d           0.974  -0.663   7.383  0.00  0.00     0.066 H 
ATOM     15  H3  <0> d           1.981   0.804   7.381  0.00  0.00     0.066 H 
ENDBRANCH  11  12
ENDBRANCH   1  11
BRANCH   5  16
ATOM     16  S1  <0> d          -0.862   1.671   1.500  0.00  0.00    -0.134 SA
BRANCH  16  17
ATOM     17  C8  <0> d          -0.013   1.086   0.008  0.00  0.00    -0.030 C 
ATOM     18  H8  <0> d           0.002  -0.004   0.002  0.00  0.00     0.042 H 
ATOM     19  H9  <0> d           1.010   1.463   0.000  0.00  0.00     0.042 H 
ATOM     20  H10 <0> d          -0.540   1.447  -0.875  0.00  0.00     0.042 H 
ENDBRANCH  16  17
ENDBRANCH   5  16
TORSDOF 4
