REMARK  1 active torsions:
REMARK  status: ('A' for Active; 'I' for Inactive)
REMARK    1  A    between atoms: C4_4  and  C6_6 
ROOT
ATOM      1  C1  <0> d          -0.019   1.538   0.011  0.00  0.00    -0.065 C 
ATOM      2  C2  <0> d           1.477   1.939  -0.002  0.00  0.00    -0.065 C 
ATOM      3  C3  <0> d           2.107   0.881  -0.942  0.00  0.00    -0.061 C 
ATOM      4  C4  <0> d           1.353  -0.422  -0.604  0.00  0.00    -0.047 C 
ATOM      5  C5  <0> d           0.002  -0.004   0.002  0.00  0.00    -0.061 C 
ATOM      6  H2  <0> d          -0.505   1.908   0.913  0.00  0.00     0.033 H 
ATOM      7  H3  <0> d          -0.522   1.918  -0.878  0.00  0.00     0.033 H 
ATOM      8  H4  <0> d           1.606   2.942  -0.408  0.00  0.00     0.033 H 
ATOM      9  H5  <0> d           1.904   1.868   0.999  0.00  0.00     0.033 H 
ATOM     10  H6  <0> d           1.946   1.155  -1.985  0.00  0.00     0.033 H 
ATOM     11  H7  <0> d           3.171   0.771  -0.735  0.00  0.00     0.033 H 
ATOM     12  H8  <0> d           1.923  -1.005   0.120  0.00  0.00     0.040 H 
ATOM     13  H9  <0> d          -0.084  -0.384   1.020  0.00  0.00     0.033 H 
ATOM     14  H10 <0> d          -0.815  -0.385  -0.610  0.00  0.00     0.033 H 
ENDROOT
BRANCH   4  15
ATOM     15  C6  <0> d           1.127  -1.242  -1.876  0.00  0.00    -0.034 C 
ATOM     16  H1  <0> d           0.546  -0.667  -2.598  0.00  0.00     0.046 H 
ATOM     17  C10 <0> d           2.449  -1.660  -2.475  0.00  0.00    -0.102 C 
ATOM     18  C9  <0> d           2.425  -2.917  -2.833  0.00  0.00    -0.106 C 
ATOM     19  H16 <0> d           3.301  -1.006  -2.592  0.00  0.00     0.076 H 
ATOM     20  C8  <0> d           1.082  -3.542  -2.534  0.00  0.00    -0.049 C 
ATOM     21  H15 <0> d           3.255  -3.439  -3.284  0.00  0.00     0.076 H 
ATOM     22  C7  <0> d           0.407  -2.569  -1.540  0.00  0.00    -0.055 C 
ATOM     23  H13 <0> d           1.213  -4.522  -2.076  0.00  0.00     0.038 H 
ATOM     24  H14 <0> d           0.490  -3.625  -3.446  0.00  0.00     0.038 H 
ATOM     25  H11 <0> d           0.598  -2.868  -0.509  0.00  0.00     0.034 H 
ATOM     26  H12 <0> d          -0.663  -2.493  -1.732  0.00  0.00     0.034 H 
ENDBRANCH   4  15
TORSDOF 1
