REMARK  9 active torsions:
REMARK  status: ('A' for Active; 'I' for Inactive)
REMARK    1  A    between atoms: C1_1  and  C2_2 
REMARK    2  A    between atoms: C2_2  and  O1_3 
REMARK    3  A    between atoms: O1_3  and  C3_4 
REMARK    4  A    between atoms: C3_4  and  C4_5 
REMARK    5  A    between atoms: C4_5  and  C5_7 
REMARK    6  A    between atoms: C4_5  and  O2_12 
REMARK    7  A    between atoms: C5_7  and  C6_8 
REMARK    8  A    between atoms: C6_8  and  C7_9 
REMARK    9  A    between atoms: C7_9  and  C9_11 
ROOT
ATOM      1  C4  <0> d          -0.729   1.579   1.267  0.00  0.00     0.056 C 
ATOM      2  H1  <0> d          -0.822   2.665   1.230  0.00  0.00     0.086 H 
ENDROOT
BRANCH   1   3
ATOM      3  C3  <0> d          -0.013   1.086   0.008  0.00  0.00     0.043 C 
ATOM      4  H7  <0> d           0.002  -0.004   0.002  0.00  0.00     0.078 H 
ATOM      5  H8  <0> d           1.010   1.463   0.000  0.00  0.00     0.078 H 
BRANCH   3   6
ATOM      6  O1  <0> d          -0.704   1.559  -1.150  0.00  0.00    -0.389 OA
BRANCH   6   7
ATOM      7  C2  <0> d          -0.114   1.152  -2.386  0.00  0.00     0.016 C 
ATOM      8  H5  <0> d           0.907   1.531  -2.443  0.00  0.00     0.073 H 
ATOM      9  H6  <0> d          -0.101   0.064  -2.442  0.00  0.00     0.073 H 
BRANCH   7  10
ATOM     10  C1  <0> d          -0.932   1.713  -3.551  0.00  0.00    -0.056 C 
ATOM     11  H2  <0> d          -0.945   2.801  -3.495  0.00  0.00     0.030 H 
ATOM     12  H3  <0> d          -0.482   1.403  -4.494  0.00  0.00     0.030 H 
ATOM     13  H4  <0> d          -1.952   1.334  -3.493  0.00  0.00     0.030 H 
ENDBRANCH   7  10
ENDBRANCH   6   7
ENDBRANCH   3   6
ENDBRANCH   1   3
BRANCH   1  14
ATOM     14  C5  <0> d           0.079   1.179   2.503  0.00  0.00    -0.036 C 
ATOM     15  H9  <0> d           0.097   0.092   2.589  0.00  0.00     0.037 H 
ATOM     16  H10 <0> d           1.098   1.553   2.408  0.00  0.00     0.037 H 
BRANCH  14  17
ATOM     17  C6  <0> d          -0.570   1.778   3.752  0.00  0.00    -0.043 C 
ATOM     18  H11 <0> d          -0.588   2.864   3.667  0.00  0.00     0.039 H 
ATOM     19  H12 <0> d          -1.590   1.404   3.847  0.00  0.00     0.039 H 
BRANCH  17  20
ATOM     20  C7  <0> d           0.225   1.383   4.970  0.00  0.00    -0.093 C 
ATOM     21  C8  <0> d           1.143   2.189   5.442  0.00  0.00    -0.119 C 
ATOM     22  H13 <0> d           1.331   3.137   4.958  0.00  0.00     0.067 H 
ATOM     23  H14 <0> d           1.714   1.907   6.315  0.00  0.00     0.067 H 
BRANCH  20  24
ATOM     24  C9  <0> d          -0.036   0.061   5.645  0.00  0.00    -0.055 C 
ATOM     25  H15 <0> d           0.603  -0.704   5.204  0.00  0.00     0.033 H 
ATOM     26  H16 <0> d           0.181   0.148   6.709  0.00  0.00     0.033 H 
ATOM     27  H17 <0> d          -1.082  -0.216   5.509  0.00  0.00     0.033 H 
ENDBRANCH  20  24
ENDBRANCH  17  20
ENDBRANCH  14  17
ENDBRANCH   1  14
BRANCH   1  28
ATOM     28  O2  <0> d          -2.030   0.991   1.336  0.00  0.00    -0.393 OA
ATOM     29  H18 <0> d          -2.023   0.025   1.372  0.00  0.00     0.210 HD
ENDBRANCH   1  28
TORSDOF 9
