REMARK  5 active torsions:
REMARK  status: ('A' for Active; 'I' for Inactive)
REMARK    1  A    between atoms: C1_1  and  O1_2 
REMARK    2  A    between atoms: O1_2  and  C2_3 
REMARK    3  A    between atoms: C2_3  and  C3_5 
REMARK    4  A    between atoms: C3_5  and  C4_7 
REMARK    5  A    between atoms: C3_5  and  N1_11 
ROOT
ATOM      1  C3  <0> d           0.657  -2.104  -1.120  0.00  0.00     0.220 C 
ATOM      2  H1  <0> d          -0.298  -2.389  -0.680  0.00  0.00     0.104 H 
ENDROOT
BRANCH   1   3
ATOM      3  C2  <0> d           0.729  -0.603  -1.236  0.00  0.00     0.292 C 
ATOM      4  O2  <0> d           1.218  -0.096  -2.218  0.00  0.00    -0.263 OA
BRANCH   3   5
ATOM      5  O1  <0> d           0.251   0.171  -0.248  0.00  0.00    -0.325 OA
BRANCH   5   6
ATOM      6  C1  <0> d           0.352   1.585  -0.425  0.00  0.00     0.013 C 
ATOM      7  H2  <0> d           1.400   1.864  -0.534  0.00  0.00     0.067 H 
ATOM      8  H3  <0> d          -0.197   1.879  -1.320  0.00  0.00     0.067 H 
ATOM      9  H4  <0> d          -0.071   2.091   0.443  0.00  0.00     0.067 H 
ENDBRANCH   5   6
ENDBRANCH   3   5
ENDBRANCH   1   3
BRANCH   1  10
ATOM     10  C4  <0> d           1.798  -2.601  -0.229  0.00  0.00     0.026 C 
ATOM     11  C6  <0> d           1.701  -2.121   1.232  0.00  0.00     0.027 C 
ATOM     12  O3  <0> d           2.064  -3.472   1.581  0.00  0.00    -0.390 OA
ATOM     13  H8  <0> d           2.452  -1.379   1.502  0.00  0.00     0.075 H 
ATOM     14  H9  <0> d           0.693  -1.842   1.538  0.00  0.00     0.075 H 
ATOM     15  C5  <0> d           1.571  -4.015   0.339  0.00  0.00     0.027 C 
ATOM     16  H6  <0> d           0.524  -4.314   0.373  0.00  0.00     0.075 H 
ATOM     17  H7  <0> d           2.219  -4.775  -0.098  0.00  0.00     0.075 H 
ATOM     18  H5  <0> d           2.781  -2.457  -0.676  0.00  0.00     0.050 H 
ENDBRANCH   1  10
BRANCH   1  19
ATOM     19  N1  <0> d           0.781  -2.704  -2.454  0.00  0.00     0.093 N 
ATOM     20  H10 <0> d           1.695  -2.532  -2.845  0.00  0.00     0.313 HD
ATOM     21  H11 <0> d           0.580  -3.693  -2.426  0.00  0.00     0.313 HD
ENDBRANCH   1  19
TORSDOF 5
