REMARK  1 active torsions:
REMARK  status: ('A' for Active; 'I' for Inactive)
REMARK    1  A    between atoms: C3_3  and  N5_11 
ROOT
ATOM      1  C1  <0> d           3.414  -0.876  -0.036  0.00  0.00     0.039 A 
ATOM      2  C2  <0> d           2.361   0.063  -0.020  0.00  0.00     0.076 A 
ATOM      3  C3  <0> d           2.287   1.469  -0.012  0.00  0.00     0.138 A 
ATOM      4  N1  <0> d           1.087   2.039   0.003  0.00  0.00    -0.224 NA
ATOM      5  C4  <0> d          -0.016   1.311   0.009  0.00  0.00     0.091 A 
ATOM      6  N2  <0> d           0.002  -0.004   0.002  0.00  0.00    -0.222 NA
ATOM      7  C5  <0> d           1.157  -0.668  -0.013  0.00  0.00     0.160 A 
ATOM      8  N3  <0> d           1.503  -1.987  -0.023  0.00  0.00    -0.261 N 
ATOM      9  H1  <0> d           0.868  -2.759  -0.021  0.00  0.00     0.191 HD
ATOM     10  N4  <0> d           2.901  -2.073  -0.038  0.00  0.00    -0.184 NA
ATOM     11  H2  <0> d           4.469  -0.642  -0.044  0.00  0.00     0.119 H 
ATOM     12  H3  <0> d          -0.970   1.816   0.017  0.00  0.00     0.146 H 
ENDROOT
BRANCH   3  13
ATOM     13  N5  <0> d           3.435   2.237  -0.019  0.00  0.00    -0.383 N 
ATOM     14  H4  <0> d           4.305   1.809  -0.030  0.00  0.00     0.157 HD
ATOM     15  H5  <0> d           3.370   3.205  -0.013  0.00  0.00     0.157 HD
ENDBRANCH   3  13
TORSDOF 1
