REMARK  5 active torsions:
REMARK  status: ('A' for Active; 'I' for Inactive)
REMARK    1  A    between atoms: C1_1  and  C2_2 
REMARK    2  A    between atoms: C2_2  and  C3_4 
REMARK    3  A    between atoms: C2_2  and  C4_6 
REMARK    4  A    between atoms: C3_4  and  O1_5 
REMARK    5  A    between atoms: C4_6  and  C5_8 
ROOT
ATOM      1  C2  <0> d          -0.185   1.208   2.610  0.00  0.00     0.020 C 
ATOM      2  H1  <0> d           0.814   1.177   2.580  0.00  0.00     0.054 H 
ENDROOT
BRANCH   1   3
ATOM      3  C1  <0> d          -0.725  -0.165   3.018  0.00  0.00    -0.064 C 
ATOM      4  H2  <0> d          -0.406  -0.912   2.291  0.00  0.00     0.028 H 
ATOM      5  H3  <0> d          -0.340  -0.428   4.003  0.00  0.00     0.028 H 
ATOM      6  H4  <0> d          -1.814  -0.132   3.051  0.00  0.00     0.028 H 
ENDBRANCH   1   3
BRANCH   1   7
ATOM      7  C3  <0> d          -0.633   2.256   3.630  0.00  0.00     0.026 C 
ATOM      8  H5  <0> d          -0.325   3.246   3.293  0.00  0.00     0.075 H 
ATOM      9  H6  <0> d          -1.718   2.227   3.728  0.00  0.00     0.075 H 
BRANCH   7  10
ATOM     10  O1  <0> d          -0.033   1.975   4.896  0.00  0.00    -0.400 OA
ATOM     11  H7  <0> d          -0.274   2.602   5.593  0.00  0.00     0.209 HD
ENDBRANCH   7  10
ENDBRANCH   1   7
BRANCH   1  12
ATOM     12  C4  <0> d          -0.718   1.572   1.248  0.00  0.00     0.129 C 
ATOM     13  O2  <0> d          -1.710   2.253   1.150  0.00  0.00    -0.298 OA
BRANCH  12  14
ATOM     14  C5  <0> d          -0.013   1.086   0.008  0.00  0.00    -0.021 C 
ATOM     15  H8  <0> d           0.001   0.086   0.003  0.00  0.00     0.037 H 
ATOM     16  H9  <0> d           1.010   1.463   0.000  0.00  0.00     0.037 H 
ATOM     17  H10 <0> d          -0.540   1.447  -0.875  0.00  0.00     0.037 H 
ENDBRANCH  12  14
ENDBRANCH   1  12
TORSDOF 5
