REMARK  1 active torsions:
REMARK  status: ('A' for Active; 'I' for Inactive)
REMARK    1  A    between atoms: C2_2  and  N3_10 
ROOT
ATOM      1  C1  <0> d          -0.017   1.381   0.010  0.00  0.00    -0.016 A 
ATOM      2  C2  <0> d           1.200   2.061   0.002  0.00  0.00     0.046 A 
ATOM      3  C3  <0> d           2.388   1.332  -0.014  0.00  0.00     0.029 A 
ATOM      4  N1  <0> d           2.372   0.018  -0.021  0.00  0.00    -0.245 NA
ATOM      5  C4  <0> d           1.234  -0.667  -0.013  0.00  0.00     0.175 A 
ATOM      6  C5  <0> d           0.002  -0.004   0.002  0.00  0.00     0.158 A 
ATOM      7  F1  <0> d          -1.153  -0.705   0.010  0.00  0.00    -0.203 F 
ATOM      8  C6  <0> d           1.268  -2.099  -0.022  0.00  0.00     0.123 C 
ATOM      9  N2  <0> d           1.295  -3.235  -0.029  0.00  0.00    -0.190 NA
ATOM     10  H1  <0> d          -0.952   1.921   0.026  0.00  0.00     0.091 H 
ATOM     11  H2  <0> d           3.333   1.854  -0.020  0.00  0.00     0.118 H 
ENDROOT
BRANCH   2  12
ATOM     12  N3  <0> d           1.228   3.453   0.008  0.00  0.00    -0.398 N 
ATOM     13  H3  <0> d           0.398   3.954   0.019  0.00  0.00     0.156 HD
ATOM     14  H4  <0> d           2.078   3.921   0.003  0.00  0.00     0.156 HD
ENDBRANCH   2  12
TORSDOF 1
