REMARK  2 active torsions:
REMARK  status: ('A' for Active; 'I' for Inactive)
REMARK    1  A    between atoms: C4_7  and  N6_12 
REMARK    2  A    between atoms: C5_10  and  N5_11 
ROOT
ATOM      1  C1  <0> d          -0.013   1.076   0.008  0.00  0.00     0.065 A 
ATOM      2  N1  <0> d           1.091   1.871   0.002  0.00  0.00    -0.346 N 
ATOM      3  H1  <0> d           2.094   1.420  -0.010  0.00  0.00     0.167 HD
ATOM      4  C2  <0> d           0.656   3.175   0.013  0.00  0.00     0.114 A 
ATOM      5  C3  <0> d          -0.749   3.116   0.026  0.00  0.00     0.135 A 
ATOM      6  N2  <0> d          -1.090   1.808   0.017  0.00  0.00    -0.238 NA
ATOM      7  C4  <0> d          -1.453   4.334   0.039  0.00  0.00     0.175 A 
ATOM      8  N3  <0> d          -0.777   5.469   0.038  0.00  0.00    -0.128 NA
ATOM      9  N4  <0> d           0.504   5.517   0.026  0.00  0.00    -0.128 NA
ATOM     10  C5  <0> d           1.262   4.434   0.014  0.00  0.00     0.173 A 
ATOM     11  H2  <0> d           0.002  -0.004   0.002  0.00  0.00     0.143 H 
ENDROOT
BRANCH   7  12
ATOM     12  N6  <0> d          -2.845   4.342   0.052  0.00  0.00    -0.381 N 
ATOM     13  H5  <0> d          -3.389   5.298   0.062  0.00  0.00     0.157 HD
ATOM     14  H6  <0> d          -3.401   3.393   0.053  0.00  0.00     0.157 HD
ENDBRANCH   7  12
BRANCH  10  15
ATOM     15  N5  <0> d           2.652   4.547   0.002  0.00  0.00    -0.381 N 
ATOM     16  H3  <0> d           3.123   5.541   0.002  0.00  0.00     0.157 HD
ATOM     17  H4  <0> d           3.277   3.642  -0.009  0.00  0.00     0.157 HD
ENDBRANCH  10  15
TORSDOF 2
