REMARK  3 active torsions:
REMARK  status: ('A' for Active; 'I' for Inactive)
REMARK    1  A    between atoms: C2_4  and  N3_6 
REMARK    2  A    between atoms: N3_6  and  C3_7 
REMARK    3  A    between atoms: C3_7  and  C4_8 
ROOT
ATOM      1  C4  <0> d           1.021  -2.227  -0.019  0.00  0.00     0.029 C 
ATOM      2  C5  <0> d           2.306  -2.946  -0.035  0.00  0.00     0.060 C 
ATOM      3  N4  <0> d           3.297  -3.500  -0.047  0.00  0.00    -0.197 NA
ATOM      4  H5  <0> d           0.462  -2.503   0.874  0.00  0.00     0.057 H 
ATOM      5  H6  <0> d           0.445  -2.493  -0.905  0.00  0.00     0.057 H 
ENDROOT
BRANCH   1   6
ATOM      6  C3  <0> d           1.281  -0.719  -0.013  0.00  0.00     0.006 C 
ATOM      7  H3  <0> d           1.840  -0.443  -0.907  0.00  0.00     0.065 H 
ATOM      8  H4  <0> d           1.857  -0.453   0.873  0.00  0.00     0.065 H 
BRANCH   6   9
ATOM      9  N3  <0> d           0.002  -0.004   0.002  0.00  0.00    -0.367 N 
ATOM     10  H2  <0> d          -0.831  -0.500   0.007  0.00  0.00     0.161 HD
BRANCH   9  11
ATOM     11  C2  <0> d          -0.017   1.383   0.010  0.00  0.00     0.189 A 
ATOM     12  N2  <0> d           0.987   2.250   0.005  0.00  0.00    -0.124 NA
ATOM     13  N1  <0> d           0.789   3.496   0.013  0.00  0.00    -0.153 NA
ATOM     14  C1  <0> d          -0.422   4.014   0.028  0.00  0.00     0.065 A 
ATOM     15  S1  <0> d          -1.403   2.516   0.021  0.00  0.00    -0.042 SA
ATOM     16  H1  <0> d          -0.734   5.048   0.036  0.00  0.00     0.129 H 
ENDBRANCH   9  11
ENDBRANCH   6   9
ENDBRANCH   1   6
TORSDOF 3
