REMARK  3 active torsions:
REMARK  status: ('A' for Active; 'I' for Inactive)
REMARK    1  A    between atoms: C3_3  and  C7_8 
REMARK    2  A    between atoms: C5_5  and  O1_7 
REMARK    3  A    between atoms: C7_8  and  C8_9 
ROOT
ATOM      1  C8  <0> d          -0.013   1.086   0.008  0.00  0.00     0.018 C 
ATOM      2  C9  <0> d          -0.725   1.573  -1.185  0.00  0.00     0.059 C 
ATOM      3  N1  <0> d          -1.274   1.950  -2.105  0.00  0.00    -0.197 NA
ATOM      4  H8  <0> d           0.002  -0.004   0.002  0.00  0.00     0.055 H 
ATOM      5  H9  <0> d           1.010   1.463   0.000  0.00  0.00     0.055 H 
ENDROOT
BRANCH   1   6
ATOM      6  C7  <0> d          -0.729   1.579   1.267  0.00  0.00    -0.030 C 
ATOM      7  H6  <0> d          -0.744   2.669   1.273  0.00  0.00     0.041 H 
ATOM      8  H7  <0> d          -1.751   1.202   1.275  0.00  0.00     0.041 H 
BRANCH   6   9
ATOM      9  C3  <0> d           0.000   1.080   2.488  0.00  0.00    -0.055 A 
ATOM     10  C2  <0> d          -0.348  -0.133   3.052  0.00  0.00    -0.077 A 
ATOM     11  C1  <0> d           0.322  -0.596   4.169  0.00  0.00    -0.080 A 
ATOM     12  H2  <0> d          -1.142  -0.722   2.617  0.00  0.00     0.084 H 
ATOM     13  C6  <0> d           1.334   0.158   4.731  0.00  0.00    -0.051 A 
ATOM     14  H1  <0> d           0.051  -1.546   4.606  0.00  0.00     0.083 H 
ATOM     15  C5  <0> d           1.682   1.378   4.170  0.00  0.00     0.066 A 
ATOM     16  H4  <0> d           1.854  -0.203   5.606  0.00  0.00     0.087 H 
ATOM     17  C4  <0> d           1.012   1.838   3.046  0.00  0.00    -0.045 A 
ATOM     18  H3  <0> d           1.280   2.787   2.607  0.00  0.00     0.088 H 
BRANCH  15  19
ATOM     19  O1  <0> d           2.677   2.122   4.721  0.00  0.00    -0.361 OA
ATOM     20  H5  <0> d           2.375   2.743   5.398  0.00  0.00     0.217 HD
ENDBRANCH  15  19
ENDBRANCH   6   9
ENDBRANCH   1   6
TORSDOF 3
