REMARK  2 active torsions:
REMARK  status: ('A' for Active; 'I' for Inactive)
REMARK    1  A    between atoms: C1_1  and  C2_2 
REMARK    2  A    between atoms: C6_7  and  N2_8 
ROOT
ATOM      1  C2  <0> d           0.002  -0.004   0.002  0.00  0.00    -0.017 A 
ATOM      2  C3  <0> d           0.006  -0.697  -1.196  0.00  0.00     0.012 A 
ATOM      3  N1  <0> d           0.024  -2.013  -1.233  0.00  0.00    -0.242 NA
ATOM      4  C4  <0> d           0.040  -2.746  -0.125  0.00  0.00     0.139 A 
ATOM      5  C5  <0> d           0.037  -2.116   1.131  0.00  0.00     0.038 A 
ATOM      6  C6  <0> d           0.023  -0.713   1.198  0.00  0.00     0.047 A 
ATOM      7  C7  <0> d           0.057  -3.187   2.128  0.00  0.00    -0.052 A 
ATOM      8  C8  <0> d           0.070  -4.347   1.453  0.00  0.00    -0.020 A 
ATOM      9  N3  <0> d           0.060  -4.100   0.105  0.00  0.00    -0.350 N 
ATOM     10  H1  <0> d           0.066  -4.781  -0.585  0.00  0.00     0.166 HD
ATOM     11  H5  <0> d          -0.007  -0.144  -2.123  0.00  0.00     0.115 H 
ATOM     12  H8  <0> d           0.060  -3.067   3.201  0.00  0.00     0.087 H 
ATOM     13  H9  <0> d           0.086  -5.328   1.904  0.00  0.00     0.111 H 
ENDROOT
BRANCH   1  14
ATOM     14  C1  <0> d          -0.018   1.503   0.010  0.00  0.00    -0.048 C 
ATOM     15  H2  <0> d           1.004   1.880   0.003  0.00  0.00     0.033 H 
ATOM     16  H3  <0> d          -0.545   1.864  -0.873  0.00  0.00     0.033 H 
ATOM     17  H4  <0> d          -0.529   1.854   0.907  0.00  0.00     0.033 H 
ENDBRANCH   1  14
BRANCH   6  18
ATOM     18  N2  <0> d           0.025  -0.054   2.423  0.00  0.00    -0.398 N 
ATOM     19  H6  <0> d           0.012   0.915   2.452  0.00  0.00     0.156 HD
ATOM     20  H7  <0> d           0.040  -0.564   3.248  0.00  0.00     0.156 HD
ENDBRANCH   6  18
TORSDOF 2
