REMARK  2 active torsions:
REMARK  status: ('A' for Active; 'I' for Inactive)
REMARK    1  A    between atoms: C1_1  and  C2_2 
REMARK       I    between atoms: N1_7  and  C7_9 
REMARK    2  A    between atoms: C7_9  and  C8_11 
ROOT
ATOM      1  C2  <0> d           1.449   1.965  -0.018  0.00  0.00    -0.042 C 
ATOM      2  H1  <0> d           1.925   1.676  -0.955  0.00  0.00     0.042 H 
ATOM      3  C3  <0> d           2.210   1.342   1.155  0.00  0.00    -0.059 C 
ATOM      4  C4  <0> d           2.223  -0.181   1.005  0.00  0.00    -0.050 C 
ATOM      5  C5  <0> d           0.783  -0.705   1.030  0.00  0.00    -0.002 C 
ATOM      6  N1  <0> d           0.007  -0.004  -0.002  0.00  0.00    -0.352 N 
ATOM      7  C6  <0> d           0.001   1.466  -0.005  0.00  0.00     0.001 C 
ATOM      8  C7  <0> d          -0.686  -0.695  -0.928  0.00  0.00     0.215 C 
ATOM      9  O1  <0> d          -0.594  -1.903  -0.977  0.00  0.00    -0.274 OA
ATOM     10  H5  <0> d           1.719   1.611   2.090  0.00  0.00     0.033 H 
ATOM     11  H6  <0> d           3.234   1.715   1.162  0.00  0.00     0.033 H 
ATOM     12  H7  <0> d           2.785  -0.622   1.828  0.00  0.00     0.035 H 
ATOM     13  H8  <0> d           2.692  -0.450   0.059  0.00  0.00     0.035 H 
ATOM     14  H9  <0> d           0.343  -0.516   2.009  0.00  0.00     0.064 H 
ATOM     15  H10 <0> d           0.778  -1.775   0.826  0.00  0.00     0.064 H 
ATOM     16  H11 <0> d          -0.518   1.827  -0.893  0.00  0.00     0.065 H 
ATOM     17  H12 <0> d          -0.503   1.831   0.889  0.00  0.00     0.065 H 
ENDROOT
BRANCH   8  18
ATOM     18  C8  <0> d          -1.575   0.033  -1.903  0.00  0.00    -0.003 C 
ATOM     19  H13 <0> d          -1.025   0.222  -2.825  0.00  0.00     0.040 H 
ATOM     20  H14 <0> d          -2.451  -0.577  -2.122  0.00  0.00     0.040 H 
ATOM     21  H15 <0> d          -1.891   0.981  -1.469  0.00  0.00     0.040 H 
ENDBRANCH   8  18
BRANCH   1  22
ATOM     22  C1  <0> d           1.465   3.489   0.115  0.00  0.00    -0.071 C 
ATOM     23  H2  <0> d           0.990   3.777   1.052  0.00  0.00     0.028 H 
ATOM     24  H3  <0> d           2.495   3.844   0.105  0.00  0.00     0.028 H 
ATOM     25  H4  <0> d           0.920   3.932  -0.719  0.00  0.00     0.028 H 
ENDBRANCH   1  22
TORSDOF 2
