REMARK  4 active torsions:
REMARK  status: ('A' for Active; 'I' for Inactive)
REMARK    1  A    between atoms: C1_1  and  C2_2 
REMARK    2  A    between atoms: C2_2  and  C3_3 
REMARK    3  A    between atoms: C2_2  and  S1_4 
REMARK    4  A    between atoms: S1_4  and  N1_7 
ROOT
ATOM      1  C2  <0> d          -0.013   1.086   0.008  0.00  0.00     0.056 C 
ATOM      2  H4  <0> d           0.002  -0.004   0.002  0.00  0.00     0.065 H 
ENDROOT
BRANCH   1   3
ATOM      3  C1  <0> d          -0.753   1.593  -1.232  0.00  0.00    -0.059 C 
ATOM      4  H1  <0> d          -0.242   1.241  -2.128  0.00  0.00     0.029 H 
ATOM      5  H2  <0> d          -1.775   1.215  -1.224  0.00  0.00     0.029 H 
ATOM      6  H3  <0> d          -0.767   2.683  -1.226  0.00  0.00     0.029 H 
ENDBRANCH   1   3
BRANCH   1   7
ATOM      7  C3  <0> d          -0.729   1.579   1.267  0.00  0.00    -0.059 C 
ATOM      8  H5  <0> d          -0.744   2.669   1.273  0.00  0.00     0.029 H 
ATOM      9  H6  <0> d          -1.751   1.202   1.275  0.00  0.00     0.029 H 
ATOM     10  H7  <0> d          -0.202   1.218   2.150  0.00  0.00     0.029 H 
ENDBRANCH   1   7
BRANCH   1  11
ATOM     11  S1  <0> d           1.689   1.714  -0.005  0.00  0.00     0.227 S 
ATOM     12  O1  <0> d           2.421   1.123  -1.070  0.00  0.00    -0.206 OA
ATOM     13  O2  <0> d           1.692   3.122   0.182  0.00  0.00    -0.206 OA
BRANCH  11  14
ATOM     14  N1  <0> d           2.378   1.103   1.371  0.00  0.00    -0.328 N 
ATOM     15  H8  <0> d           3.330   0.916   1.395  0.00  0.00     0.168 HD
ATOM     16  H9  <0> d           1.831   0.932   2.154  0.00  0.00     0.168 HD
ENDBRANCH  11  14
ENDBRANCH   1  11
TORSDOF 4
