REMARK  1 active torsions:
REMARK  status: ('A' for Active; 'I' for Inactive)
REMARK    1  A    between atoms: C4_5  and  O2_7 
ROOT
ATOM      1  C1  <0> d          -0.019   1.541   0.011  0.00  0.00    -0.019 C 
ATOM      2  C2  <0> d           1.474   1.937  -0.002  0.00  0.00     0.022 C 
ATOM      3  O1  <0> d           2.163   0.795   0.553  0.00  0.00    -0.389 OA
ATOM      4  C3  <0> d           1.506  -0.359  -0.014  0.00  0.00     0.043 C 
ATOM      5  C4  <0> d           0.002  -0.004   0.002  0.00  0.00     0.058 C 
ATOM      6  H1  <0> d          -0.491  -0.388  -0.891  0.00  0.00     0.086 H 
ATOM      7  H2  <0> d          -0.522   1.921  -0.879  0.00  0.00     0.040 H 
ATOM      8  H3  <0> d          -0.505   1.911   0.913  0.00  0.00     0.040 H 
ATOM      9  H4  <0> d           1.809   2.123  -1.022  0.00  0.00     0.074 H 
ATOM     10  H5  <0> d           1.639   2.817   0.619  0.00  0.00     0.074 H 
ATOM     11  H6  <0> d           1.694  -1.242   0.597  0.00  0.00     0.078 H 
ATOM     12  H7  <0> d           1.845  -0.527  -1.036  0.00  0.00     0.078 H 
ENDROOT
BRANCH   5  13
ATOM     13  O2  <0> d          -0.624  -0.520   1.178  0.00  0.00    -0.393 OA
ATOM     14  H8  <0> d          -0.639  -1.486   1.225  0.00  0.00     0.210 HD
ENDBRANCH   5  13
TORSDOF 1
