REMARK  5 active torsions:
REMARK  status: ('A' for Active; 'I' for Inactive)
REMARK    1  A    between atoms: C1_1  and  C2_2 
REMARK    2  A    between atoms: C2_2  and  C7_11 
REMARK    3  A    between atoms: C4_5  and  C5_8 
REMARK    4  A    between atoms: C5_8  and  C6_9 
REMARK    5  A    between atoms: C6_9  and  O3_10 
ROOT
ATOM      1  C2  <0> d           4.112   4.668   1.359  0.00  0.00     0.157 C 
ATOM      2  O1  <0> d           3.650   5.723   0.505  0.00  0.00    -0.353 OA
ATOM      3  C3  <0> d           2.432   5.268  -0.119  0.00  0.00     0.047 C 
ATOM      4  C4  <0> d           2.534   3.726  -0.002  0.00  0.00     0.064 C 
ATOM      5  H1  <0> d           3.146   3.314  -0.804  0.00  0.00     0.086 H 
ATOM      6  O2  <0> d           3.186   3.571   1.281  0.00  0.00    -0.348 OA
ATOM      7  H5  <0> d           2.398   5.574  -1.165  0.00  0.00     0.078 H 
ATOM      8  H6  <0> d           1.561   5.638   0.421  0.00  0.00     0.078 H 
ENDROOT
BRANCH   4   9
ATOM      9  C5  <0> d           1.145   3.085   0.008  0.00  0.00    -0.019 C 
ATOM     10  H7  <0> d           0.591   3.404  -0.875  0.00  0.00     0.040 H 
ATOM     11  H8  <0> d           0.608   3.395   0.904  0.00  0.00     0.040 H 
BRANCH   9  12
ATOM     12  C6  <0> d           1.286   1.562  -0.002  0.00  0.00     0.019 C 
ATOM     13  H9  <0> d           1.840   1.243   0.881  0.00  0.00     0.074 H 
ATOM     14  H10 <0> d           1.823   1.252  -0.899  0.00  0.00     0.074 H 
BRANCH  12  15
ATOM     15  O3  <0> d          -0.011   0.963   0.007  0.00  0.00    -0.401 OA
ATOM     16  H11 <0> d           0.002  -0.004   0.002  0.00  0.00     0.209 HD
ENDBRANCH  12  15
ENDBRANCH   9  12
ENDBRANCH   4   9
BRANCH   1  17
ATOM     17  C1  <0> d           5.496   4.205   0.900  0.00  0.00    -0.026 C 
ATOM     18  H2  <0> d           6.199   5.034   0.974  0.00  0.00     0.035 H 
ATOM     19  H3  <0> d           5.834   3.385   1.535  0.00  0.00     0.035 H 
ATOM     20  H4  <0> d           5.442   3.865  -0.134  0.00  0.00     0.035 H 
ENDBRANCH   1  17
BRANCH   1  21
ATOM     21  C7  <0> d           4.189   5.170   2.802  0.00  0.00    -0.026 C 
ATOM     22  H12 <0> d           3.206   5.517   3.119  0.00  0.00     0.035 H 
ATOM     23  H13 <0> d           4.516   4.359   3.452  0.00  0.00     0.035 H 
ATOM     24  H14 <0> d           4.902   5.993   2.862  0.00  0.00     0.035 H 
ENDBRANCH   1  21
TORSDOF 5
