REMARK  1 active torsions:
REMARK  status: ('A' for Active; 'I' for Inactive)
REMARK    1  A    between atoms: C3_3  and  C4_7 
ROOT
ATOM      1  C1  <0> d           1.910   5.185   0.012  0.00  0.00     0.044 A 
ATOM      2  C2  <0> d           2.389   3.858   0.006  0.00  0.00     0.098 A 
ATOM      3  C3  <0> d           1.239   3.061   0.007  0.00  0.00     0.148 A 
ATOM      4  N1  <0> d           0.184   3.921   0.022  0.00  0.00    -0.271 N 
ATOM      5  H1  <0> d          -0.778   3.648   0.030  0.00  0.00     0.189 HD
ATOM      6  N2  <0> d           0.604   5.134   0.025  0.00  0.00    -0.185 NA
ATOM      7  C5  <0> d           3.753   3.423  -0.002  0.00  0.00     0.103 C 
ATOM      8  N3  <0> d           4.835   3.078  -0.009  0.00  0.00    -0.191 NA
ATOM      9  H2  <0> d           2.513   6.080   0.011  0.00  0.00     0.119 H 
ENDROOT
BRANCH   3  10
ATOM     10  C4  <0> d           1.182   1.591  -0.001  0.00  0.00     0.230 C 
ATOM     11  O1  <0> d           2.210   0.943  -0.014  0.00  0.00    -0.643 OA
ATOM     12  O2  <0> d          -0.011   0.963   0.007  0.00  0.00    -0.643 OA
ENDBRANCH   3  10
TORSDOF 1
