REMARK  1 active torsions:
REMARK  status: ('A' for Active; 'I' for Inactive)
REMARK    1  A    between atoms: C7_8  and  O1_9 
ROOT
ATOM      1  C1  <0> d          -0.017   1.385   0.010  0.00  0.00    -0.078 A 
ATOM      2  C2  <0> d           1.157   2.103   0.002  0.00  0.00    -0.055 A 
ATOM      3  C3  <0> d           2.380   1.436  -0.013  0.00  0.00     0.068 A 
ATOM      4  C4  <0> d           2.402   0.029  -0.021  0.00  0.00     0.085 A 
ATOM      5  C5  <0> d           1.199  -0.686  -0.013  0.00  0.00     0.133 A 
ATOM      6  C6  <0> d           0.002  -0.004   0.002  0.00  0.00    -0.044 A 
ATOM      7  F1  <0> d           1.211  -2.037  -0.020  0.00  0.00    -0.205 F 
ATOM      8  C7  <0> d           3.813  -0.359  -0.037  0.00  0.00     0.197 A 
ATOM      9  N1  <0> d           4.525   0.735  -0.038  0.00  0.00    -0.148 NA
ATOM     10  N2  <0> d           3.685   1.854  -0.024  0.00  0.00    -0.275 N 
ATOM     11  H2  <0> d           3.980   2.778  -0.022  0.00  0.00     0.189 HD
ATOM     12  H3  <0> d          -0.962   1.906   0.026  0.00  0.00     0.083 H 
ATOM     13  H4  <0> d           1.130   3.183   0.008  0.00  0.00     0.087 H 
ATOM     14  H5  <0> d          -0.928  -0.553   0.008  0.00  0.00     0.088 H 
ENDROOT
BRANCH   8  15
ATOM     15  O1  <0> d           4.295  -1.630  -0.048  0.00  0.00    -0.343 OA
ATOM     16  H1  <0> d           4.426  -1.993  -0.935  0.00  0.00     0.219 HD
ENDBRANCH   8  15
TORSDOF 1
