REMARK  1 active torsions:
REMARK  status: ('A' for Active; 'I' for Inactive)
REMARK    1  A    between atoms: C1_1  and  C2_2 
ROOT
ATOM      1  C2  <0> d           0.002  -0.004   0.002  0.00  0.00     0.011 C 
ATOM      2  H1  <0> d          -1.018  -0.388  -0.003  0.00  0.00     0.072 H 
ATOM      3  C3  <0> d           0.760  -0.512  -1.244  0.00  0.00    -0.044 C 
ATOM      4  C4  <0> d           2.151  -0.913  -0.673  0.00  0.00    -0.044 C 
ATOM      5  C5  <0> d           1.738  -1.465   0.708  0.00  0.00     0.015 C 
ATOM      6  H2  <0> d           1.342  -2.478   0.639  0.00  0.00     0.072 H 
ATOM      7  N1  <0> d           0.719  -0.501   1.188  0.00  0.00    -0.343 N 
ATOM      8  C6  <0> d           0.816  -0.372   2.525  0.00  0.00     0.220 C 
ATOM      9  O1  <0> d          -0.003   0.179   3.230  0.00  0.00    -0.273 OA
ATOM     10  C7  <0> d           2.094  -1.013   3.021  0.00  0.00     0.011 C 
ATOM     11  C8  <0> d           2.896  -1.370   1.716  0.00  0.00    -0.038 C 
ATOM     12  H6  <0> d           0.257  -1.377  -1.675  0.00  0.00     0.036 H 
ATOM     13  H7  <0> d           0.862   0.283  -1.983  0.00  0.00     0.036 H 
ATOM     14  H8  <0> d           2.619  -1.686  -1.283  0.00  0.00     0.036 H 
ATOM     15  H9  <0> d           2.801  -0.044  -0.572  0.00  0.00     0.036 H 
ATOM     16  H10 <0> d           2.656  -0.313   3.640  0.00  0.00     0.047 H 
ATOM     17  H11 <0> d           1.873  -1.923   3.578  0.00  0.00     0.047 H 
ATOM     18  H12 <0> d           3.417  -2.323   1.806  0.00  0.00     0.036 H 
ATOM     19  H13 <0> d           3.586  -0.570   1.448  0.00  0.00     0.036 H 
ENDROOT
BRANCH   1  20
ATOM     20  C1  <0> d          -0.019   1.526   0.010  0.00  0.00    -0.057 C 
ATOM     21  H3  <0> d           1.004   1.903   0.003  0.00  0.00     0.030 H 
ATOM     22  H4  <0> d          -0.546   1.887  -0.873  0.00  0.00     0.030 H 
ATOM     23  H5  <0> d          -0.529   1.877   0.907  0.00  0.00     0.030 H 
ENDBRANCH   1  20
TORSDOF 1
