REMARK  2 active torsions:
REMARK  status: ('A' for Active; 'I' for Inactive)
REMARK    1  A    between atoms: N1_4  and  C4_6 
REMARK    2  A    between atoms: C4_6  and  C5_7 
REMARK       I    between atoms: C5_7  and  N3_9 
ROOT
ATOM      1  C1  <0> d          -0.016   1.304   0.009  0.00  0.00     0.044 A 
ATOM      2  C2  <0> d           1.307   1.760  -0.001  0.00  0.00     0.070 A 
ATOM      3  C3  <0> d           2.120   0.677  -0.015  0.00  0.00     0.021 A 
ATOM      4  N1  <0> d           1.338  -0.424  -0.013  0.00  0.00    -0.271 N 
ATOM      5  N2  <0> d           0.002  -0.004   0.002  0.00  0.00    -0.183 NA
ATOM      6 Cl1  <0> d           1.817   3.419   0.003  0.00  0.00    -0.081 Cl
ATOM      7  H1  <0> d          -0.899   1.925   0.025  0.00  0.00     0.120 H 
ATOM      8  H2  <0> d           3.200   0.692  -0.025  0.00  0.00     0.116 H 
ENDROOT
BRANCH   4   9
ATOM      9  C4  <0> d           1.805  -1.812  -0.025  0.00  0.00     0.089 C 
ATOM     10  H3  <0> d           1.500  -2.290  -0.956  0.00  0.00     0.082 H 
ATOM     11  H4  <0> d           2.892  -1.831   0.053  0.00  0.00     0.082 H 
BRANCH   9  12
ATOM     12  C5  <0> d           1.205  -2.555   1.140  0.00  0.00     0.235 C 
ATOM     13  O1  <0> d           0.460  -1.981   1.906  0.00  0.00    -0.272 OA
ATOM     14  N3  <0> d           1.495  -3.857   1.332  0.00  0.00    -0.369 N 
ATOM     15  H5  <0> d           2.091  -4.316   0.720  0.00  0.00     0.159 HD
ATOM     16  H6  <0> d           1.108  -4.335   2.082  0.00  0.00     0.159 HD
ENDBRANCH   9  12
ENDBRANCH   4   9
TORSDOF 2
