REMARK  1 active torsions:
REMARK  status: ('A' for Active; 'I' for Inactive)
REMARK    1  A    between atoms: C1_1  and  C2_2 
ROOT
ATOM      1  C2  <0> d          -3.405   2.494   0.047  0.00  0.00    -0.060 A 
ATOM      2  C3  <0> d          -2.978   3.817   0.050  0.00  0.00    -0.076 A 
ATOM      3  C4  <0> d          -1.648   4.119   0.039  0.00  0.00    -0.069 A 
ATOM      4  C5  <0> d          -0.704   3.085   0.025  0.00  0.00     0.011 A 
ATOM      5  C6  <0> d           0.755   3.044   0.011  0.00  0.00     0.034 A 
ATOM      6  N1  <0> d           1.117   1.793   0.001  0.00  0.00    -0.186 NA
ATOM      7  N2  <0> d          -0.011   0.966   0.007  0.00  0.00    -0.278 N 
ATOM      8  H1  <0> d           0.003  -0.034   0.006  0.00  0.00     0.189 HD
ATOM      9  C7  <0> d          -1.138   1.746   0.016  0.00  0.00     0.062 A 
ATOM     10  C8  <0> d          -2.503   1.468   0.034  0.00  0.00    -0.049 A 
ATOM     11  H5  <0> d          -3.707   4.614   0.060  0.00  0.00     0.084 H 
ATOM     12  H6  <0> d          -1.324   5.149   0.041  0.00  0.00     0.085 H 
ATOM     13  H7  <0> d           1.416   3.898   0.009  0.00  0.00     0.118 H 
ATOM     14  H8  <0> d          -2.847   0.445   0.033  0.00  0.00     0.087 H 
ENDROOT
BRANCH   1  15
ATOM     15  C1  <0> d          -4.880   2.188   0.059  0.00  0.00    -0.051 C 
ATOM     16  H2  <0> d          -5.245   2.119  -0.965  0.00  0.00     0.033 H 
ATOM     17  H3  <0> d          -5.050   1.240   0.570  0.00  0.00     0.033 H 
ATOM     18  H4  <0> d          -5.412   2.983   0.582  0.00  0.00     0.033 H 
ENDBRANCH   1  15
TORSDOF 1
