REMARK  4 active torsions:
REMARK  status: ('A' for Active; 'I' for Inactive)
REMARK    1  A    between atoms: C1_1  and  C2_2 
REMARK    2  A    between atoms: C4_4  and  C8_10 
REMARK    3  A    between atoms: C5_6  and  C7_8 
REMARK    4  A    between atoms: C7_8  and  O1_9 
ROOT
ATOM      1  C2  <0> d           2.389   0.017  -0.021  0.00  0.00    -0.058 A 
ATOM      2  C3  <0> d           1.199  -0.695  -0.013  0.00  0.00    -0.054 A 
ATOM      3  C4  <0> d           0.002  -0.004   0.002  0.00  0.00     0.031 A 
ATOM      4  N1  <0> d          -0.016   1.315   0.009  0.00  0.00    -0.256 NA
ATOM      5  C5  <0> d           1.096   2.023   0.003  0.00  0.00     0.058 A 
ATOM      6  C6  <0> d           2.331   1.401  -0.013  0.00  0.00    -0.051 A 
ATOM      7  H4  <0> d           1.207  -1.775  -0.019  0.00  0.00     0.087 H 
ATOM      8  H5  <0> d           3.238   1.987  -0.018  0.00  0.00     0.087 H 
ENDROOT
BRANCH   5   9
ATOM      9  C7  <0> d           1.020   3.528   0.011  0.00  0.00     0.056 C 
ATOM     10  H6  <0> d           0.481   3.870  -0.873  0.00  0.00     0.083 H 
ATOM     11  H7  <0> d           0.497   3.861   0.907  0.00  0.00     0.083 H 
BRANCH   9  12
ATOM     12  O1  <0> d           2.342   4.072   0.001  0.00  0.00    -0.395 OA
ATOM     13  H8  <0> d           2.370   5.038   0.006  0.00  0.00     0.209 HD
ENDBRANCH   9  12
ENDBRANCH   5   9
BRANCH   3  14
ATOM     14  C8  <0> d          -1.298  -0.767   0.011  0.00  0.00    -0.035 C 
ATOM     15  H9  <0> d          -1.621  -0.945  -1.015  0.00  0.00     0.035 H 
ATOM     16  H10 <0> d          -1.156  -1.721   0.518  0.00  0.00     0.035 H 
ATOM     17  H11 <0> d          -2.056  -0.186   0.535  0.00  0.00     0.035 H 
ENDBRANCH   3  14
BRANCH   1  18
ATOM     18  C1  <0> d           3.715  -0.699  -0.038  0.00  0.00    -0.051 C 
ATOM     19  H1  <0> d           4.025  -0.866  -1.069  0.00  0.00     0.033 H 
ATOM     20  H2  <0> d           4.463  -0.092   0.472  0.00  0.00     0.033 H 
ATOM     21  H3  <0> d           3.617  -1.658   0.472  0.00  0.00     0.033 H 
ENDBRANCH   1  18
TORSDOF 4
