REMARK  2 active torsions:
REMARK  status: ('A' for Active; 'I' for Inactive)
REMARK    1  A    between atoms: C1_1  and  C2_2 
REMARK    2  A    between atoms: C2_2  and  C9_11 
ROOT
ATOM      1  C2  <0> d           1.547   5.281   0.550  0.00  0.00     0.169 C 
ATOM      2  O1  <0> d           2.165   4.093   0.003  0.00  0.00    -0.312 OA
ATOM      3  C3  <0> d           1.159   3.165   0.008  0.00  0.00     0.106 A 
ATOM      4  C4  <0> d           1.177   1.782   0.000  0.00  0.00    -0.048 A 
ATOM      5  C5  <0> d          -0.013   1.076   0.008  0.00  0.00    -0.080 A 
ATOM      6  C6  <0> d          -1.220   1.749   0.017  0.00  0.00    -0.080 A 
ATOM      7  C7  <0> d          -1.245   3.132   0.031  0.00  0.00    -0.048 A 
ATOM      8  C8  <0> d          -0.059   3.844   0.023  0.00  0.00     0.106 A 
ATOM      9  O2  <0> d           0.201   5.188   0.028  0.00  0.00    -0.312 OA
ATOM     10  H4  <0> d           2.119   1.254  -0.012  0.00  0.00     0.087 H 
ATOM     11  H5  <0> d           0.002  -0.004   0.002  0.00  0.00     0.083 H 
ATOM     12  H6  <0> d          -2.146   1.194   0.019  0.00  0.00     0.083 H 
ATOM     13  H7  <0> d          -2.190   3.655   0.043  0.00  0.00     0.087 H 
ENDROOT
BRANCH   1  14
ATOM     14  C1  <0> d           1.544   5.241   2.080  0.00  0.00    -0.025 C 
ATOM     15  H1  <0> d           2.570   5.192   2.444  0.00  0.00     0.035 H 
ATOM     16  H2  <0> d           1.063   6.139   2.466  0.00  0.00     0.035 H 
ATOM     17  H3  <0> d           0.996   4.361   2.419  0.00  0.00     0.035 H 
ENDBRANCH   1  14
BRANCH   1  18
ATOM     18  C9  <0> d           2.245   6.544   0.041  0.00  0.00    -0.025 C 
ATOM     19  H8  <0> d           2.189   6.577  -1.047  0.00  0.00     0.035 H 
ATOM     20  H9  <0> d           1.754   7.424   0.458  0.00  0.00     0.035 H 
ATOM     21  H10 <0> d           3.290   6.531   0.351  0.00  0.00     0.035 H 
ENDBRANCH   1  18
TORSDOF 2
