REMARK  4 active torsions:
REMARK  status: ('A' for Active; 'I' for Inactive)
REMARK    1  A    between atoms: C1_1  and  N1_2 
REMARK    2  A    between atoms: N1_2  and  C2_3 
REMARK    3  A    between atoms: N1_2  and  C3_4 
REMARK    4  A    between atoms: C4_7  and  N4_9 
ROOT
ATOM      1  N1  <0> d           0.002  -0.004   0.002  0.00  0.00    -0.353 N 
ENDROOT
BRANCH   1   2
ATOM      2  C1  <0> d          -0.018   1.461   0.010  0.00  0.00    -0.016 C 
ATOM      3  H1  <0> d           1.005   1.838   0.002  0.00  0.00     0.056 H 
ATOM      4  H2  <0> d          -0.545   1.822  -0.873  0.00  0.00     0.056 H 
ATOM      5  H3  <0> d          -0.528   1.812   0.907  0.00  0.00     0.056 H 
ENDBRANCH   1   2
BRANCH   1   6
ATOM      6  C2  <0> d           0.024  -0.743   1.267  0.00  0.00    -0.016 C 
ATOM      7  H4  <0> d          -0.998  -0.941   1.590  0.00  0.00     0.056 H 
ATOM      8  H5  <0> d           0.550  -1.688   1.126  0.00  0.00     0.056 H 
ATOM      9  H6  <0> d           0.537  -0.151   2.025  0.00  0.00     0.056 H 
ENDBRANCH   1   6
BRANCH   1  10
ATOM     10  C3  <0> d           0.000  -0.691  -1.202  0.00  0.00     0.270 A 
ATOM     11  O1  <0> d           0.017  -2.027  -1.348  0.00  0.00    -0.241 OA
ATOM     12  C4  <0> d           0.005  -2.319  -2.660  0.00  0.00     0.266 A 
ATOM     13  N3  <0> d          -0.009  -1.194  -3.329  0.00  0.00    -0.102 NA
ATOM     14  N2  <0> d          -0.013  -0.150  -2.394  0.00  0.00    -0.101 NA
BRANCH  12  15
ATOM     15  N4  <0> d           0.014  -3.592  -3.210  0.00  0.00    -0.362 N 
ATOM     16  H7  <0> d           0.009  -3.704  -4.173  0.00  0.00     0.159 HD
ATOM     17  H8  <0> d           0.024  -4.370  -2.631  0.00  0.00     0.159 HD
ENDBRANCH  12  15
ENDBRANCH   1  10
TORSDOF 4
