REMARK  0 active torsions:
REMARK  status: ('A' for Active; 'I' for Inactive)
ROOT
ATOM      1  C1  <0> d          -2.663   4.892   0.572  0.00  0.00     0.040 A 
ATOM      2  N1  <0> d          -2.111   3.940   1.278  0.00  0.00    -0.257 NA
ATOM      3  C2  <0> d          -1.519   2.878   0.716  0.00  0.00     0.048 A 
ATOM      4  C3  <0> d          -1.520   2.850  -0.639  0.00  0.00     0.008 A 
ATOM      5  S1  <0> d          -2.380   4.350  -1.053  0.00  0.00    -0.085 SA
ATOM      6  C4  <0> d          -0.833   1.634  -1.181  0.00  0.00    -0.033 C 
ATOM      7  C5  <0> d          -0.013   1.086   0.008  0.00  0.00    -0.056 C 
ATOM      8  C6  <0> d          -0.808   1.620   1.216  0.00  0.00    -0.023 C 
ATOM      9  H1  <0> d          -3.164   5.786   0.912  0.00  0.00     0.126 H 
ATOM     10  H2  <0> d          -1.587   0.911  -1.527  0.00  0.00     0.041 H 
ATOM     11  H3  <0> d          -0.189   1.922  -2.025  0.00  0.00     0.041 H 
ATOM     12  H4  <0> d           0.014  -0.013  -0.040  0.00  0.00     0.034 H 
ATOM     13  H5  <0> d           1.013   1.480  -0.042  0.00  0.00     0.034 H 
ATOM     14  H6  <0> d          -0.142   1.882   2.051  0.00  0.00     0.042 H 
ATOM     15  H7  <0> d          -1.555   0.888   1.559  0.00  0.00     0.042 H 
ENDROOT
TORSDOF 0
