REMARK  5 active torsions:
REMARK  status: ('A' for Active; 'I' for Inactive)
REMARK    1  A    between atoms: C1_1  and  C2_2 
REMARK    2  A    between atoms: C2_2  and  C3_3 
REMARK    3  A    between atoms: C4_4  and  C7_10 
REMARK    4  A    between atoms: C5_5  and  N3_9 
REMARK    5  A    between atoms: N1_6  and  C6_8 
ROOT
ATOM      1  C3  <0> d          -1.412  -0.526   0.013  0.00  0.00     0.035 A 
ATOM      2  C4  <0> d          -2.223  -0.716  -1.110  0.00  0.00     0.007 A 
ATOM      3  C5  <0> d          -3.421  -1.198  -0.681  0.00  0.00     0.123 A 
ATOM      4  N1  <0> d          -3.360  -1.306   0.666  0.00  0.00    -0.281 N 
ATOM      5  N2  <0> d          -2.088  -0.884   1.074  0.00  0.00    -0.301 N 
ATOM      6  H14 <0> d          -1.765  -0.859   1.988  0.00  0.00     0.187 HD
ENDROOT
BRANCH   1   7
ATOM      7  C2  <0> d           0.002  -0.004   0.002  0.00  0.00    -0.028 C 
ATOM      8  H4  <0> d           0.512  -0.356  -0.895  0.00  0.00     0.041 H 
ATOM      9  H5  <0> d           0.529  -0.365   0.885  0.00  0.00     0.041 H 
BRANCH   7  10
ATOM     10  C1  <0> d          -0.019   1.526   0.010  0.00  0.00    -0.071 C 
ATOM     11  H1  <0> d           1.004   1.903   0.003  0.00  0.00     0.028 H 
ATOM     12  H2  <0> d          -0.546   1.887  -0.873  0.00  0.00     0.028 H 
ATOM     13  H3  <0> d          -0.529   1.877   0.907  0.00  0.00     0.028 H 
ENDBRANCH   7  10
ENDBRANCH   1   7
BRANCH   2  14
ATOM     14  C7  <0> d          -1.838  -0.435  -2.540  0.00  0.00    -0.046 C 
ATOM     15  H11 <0> d          -1.392  -1.328  -2.978  0.00  0.00     0.033 H 
ATOM     16  H12 <0> d          -2.727  -0.158  -3.107  0.00  0.00     0.033 H 
ATOM     17  H13 <0> d          -1.118   0.382  -2.569  0.00  0.00     0.033 H 
ENDBRANCH   2  14
BRANCH   4  18
ATOM     18  C6  <0> d          -4.431  -1.785   1.542  0.00  0.00     0.002 C 
ATOM     19  H6  <0> d          -4.344  -2.864   1.666  0.00  0.00     0.059 H 
ATOM     20  H7  <0> d          -4.350  -1.300   2.515  0.00  0.00     0.059 H 
ATOM     21  H8  <0> d          -5.398  -1.547   1.097  0.00  0.00     0.059 H 
ENDBRANCH   4  18
BRANCH   3  22
ATOM     22  N3  <0> d          -4.512  -1.522  -1.483  0.00  0.00    -0.384 N 
ATOM     23  H9  <0> d          -4.458  -1.408  -2.445  0.00  0.00     0.157 HD
ATOM     24  H10 <0> d          -5.327  -1.861  -1.080  0.00  0.00     0.157 HD
ENDBRANCH   3  22
TORSDOF 5
