REMARK  2 active torsions:
REMARK  status: ('A' for Active; 'I' for Inactive)
REMARK    1  A    between atoms: C1_1  and  S1_2 
REMARK    2  A    between atoms: S1_2  and  C2_4 
ROOT
ATOM      1  C2  <0> d           0.002  -0.004   0.002  0.00  0.00     0.031 A 
ATOM      2  C3  <0> d           1.107  -0.682   0.481  0.00  0.00    -0.061 A 
ATOM      3  C4  <0> d           1.125  -2.064   0.478  0.00  0.00    -0.044 A 
ATOM      4  C5  <0> d           0.040  -2.769  -0.014  0.00  0.00     0.116 A 
ATOM      5  C6  <0> d          -1.064  -2.089  -0.498  0.00  0.00    -0.044 A 
ATOM      6  C7  <0> d          -1.082  -0.707  -0.490  0.00  0.00    -0.061 A 
ATOM      7  F1  <0> d           0.058  -4.120  -0.021  0.00  0.00    -0.206 F 
ATOM      8  H4  <0> d           1.955  -0.132   0.861  0.00  0.00     0.085 H 
ATOM      9  H5  <0> d           1.987  -2.594   0.856  0.00  0.00     0.088 H 
ATOM     10  H6  <0> d          -1.911  -2.638  -0.882  0.00  0.00     0.088 H 
ATOM     11  H7  <0> d          -1.943  -0.176  -0.867  0.00  0.00     0.085 H 
ENDROOT
BRANCH   1  12
ATOM     12  S1  <0> d          -0.022   1.758   0.012  0.00  0.00     0.045 S 
ATOM     13  O1  <0> d           1.352   2.120   0.001  0.00  0.00    -0.253 OA
BRANCH  12  14
ATOM     14  C1  <0> d          -0.745   2.178   1.621  0.00  0.00    -0.004 C 
ATOM     15  H1  <0> d          -1.808   1.897   1.630  0.00  0.00     0.045 H 
ATOM     16  H2  <0> d          -0.650   3.260   1.795  0.00  0.00     0.045 H 
ATOM     17  H3  <0> d          -0.215   1.631   2.415  0.00  0.00     0.045 H 
ENDBRANCH  12  14
ENDBRANCH   1  12
TORSDOF 2
