REMARK  4 active torsions:
REMARK  status: ('A' for Active; 'I' for Inactive)
REMARK    1  A    between atoms: C1_1  and  C2_2 
REMARK    2  A    between atoms: C5_5  and  C8_11 
REMARK    3  A    between atoms: N1_6  and  N2_7 
REMARK       I    between atoms: N2_7  and  C6_8 
REMARK    4  A    between atoms: C6_8  and  C7_10 
ROOT
ATOM      1  C2  <0> d          -1.481   3.010  -0.052  0.00  0.00     0.030 A 
ATOM      2  C3  <0> d          -2.765   3.242  -0.393  0.00  0.00    -0.058 A 
ATOM      3  C4  <0> d          -3.385   1.991  -0.579  0.00  0.00    -0.058 A 
ATOM      4  C5  <0> d          -2.455   1.042  -0.349  0.00  0.00     0.030 A 
ATOM      5  N1  <0> d          -1.284   1.661  -0.028  0.00  0.00    -0.263 N 
ATOM      6  H4  <0> d          -3.233   4.210  -0.499  0.00  0.00     0.086 H 
ATOM      7  H5  <0> d          -4.415   1.823  -0.855  0.00  0.00     0.086 H 
ENDROOT
BRANCH   5   8
ATOM      8  N2  <0> d          -0.078   1.018   0.280  0.00  0.00    -0.264 N 
ATOM      9  C6  <0> d           1.053   1.358  -0.370  0.00  0.00     0.232 C 
ATOM     10  O1  <0> d           1.029   2.230  -1.212  0.00  0.00    -0.272 OA
ATOM     11  H6  <0> d          -0.054   0.236   1.053  0.00  0.00     0.190 HD
BRANCH   9  12
ATOM     12  C7  <0> d           2.346   0.654  -0.051  0.00  0.00    -0.001 C 
ATOM     13  H7  <0> d           3.152   1.064  -0.678  0.00  0.00     0.040 H 
ATOM     14  H8  <0> d           2.237  -0.422  -0.251  0.00  0.00     0.040 H 
ATOM     15  H9  <0> d           2.594   0.806   1.010  0.00  0.00     0.040 H 
ENDBRANCH   9  12
ENDBRANCH   5   8
BRANCH   1  16
ATOM     16  C1  <0> d          -0.443   4.061   0.249  0.00  0.00    -0.035 C 
ATOM     17  H1  <0> d          -0.893   5.059   0.151  0.00  0.00     0.035 H 
ATOM     18  H2  <0> d           0.393   3.963  -0.460  0.00  0.00     0.035 H 
ATOM     19  H3  <0> d          -0.071   3.925   1.275  0.00  0.00     0.035 H 
ENDBRANCH   1  16
BRANCH   4  20
ATOM     20  C8  <0> d          -2.672  -0.447  -0.434  0.00  0.00    -0.035 C 
ATOM     21  H10 <0> d          -1.734  -0.969  -0.194  0.00  0.00     0.035 H 
ATOM     22  H11 <0> d          -2.991  -0.714  -1.452  0.00  0.00     0.035 H 
ATOM     23  H12 <0> d          -3.451  -0.745   0.284  0.00  0.00     0.035 H 
ENDBRANCH   4  20
TORSDOF 4
