REMARK  3 active torsions:
REMARK  status: ('A' for Active; 'I' for Inactive)
REMARK    1  A    between atoms: C1_1  and  C2_2 
REMARK    2  A    between atoms: C2_2  and  C3_3 
REMARK    3  A    between atoms: C5_7  and  C6_10 
ROOT
ATOM      1  C3  <0> d          -0.013   1.086   0.008  0.00  0.00     0.131 C 
ATOM      2  H1  <0> d           0.002  -0.004   0.002  0.00  0.00     0.129 H 
ATOM      3  O1  <0> d          -0.585   1.575   1.241  0.00  0.00    -0.359 OA
ATOM      4  C4  <0> d           0.485   1.471   2.204  0.00  0.00     0.046 C 
ATOM      5  C5  <0> d           1.778   1.493   1.366  0.00  0.00     0.058 C 
ATOM      6  H2  <0> d           2.337   0.568   1.507  0.00  0.00     0.086 H 
ATOM      7  O2  <0> d           1.334   1.608  -0.002  0.00  0.00    -0.354 OA
ATOM      8  H8  <0> d           0.407   0.535   2.757  0.00  0.00     0.078 H 
ATOM      9  H9  <0> d           0.463   2.318   2.889  0.00  0.00     0.078 H 
ENDROOT
BRANCH   1  10
ATOM     10  C2  <0> d          -0.798   1.614  -1.194  0.00  0.00    -0.022 C 
ATOM     11  H6  <0> d          -0.891   2.698  -1.120  0.00  0.00     0.039 H 
ATOM     12  H7  <0> d          -0.273   1.356  -2.113  0.00  0.00     0.039 H 
BRANCH  10  13
ATOM     13  C1  <0> d          -2.192   0.984  -1.209  0.00  0.00    -0.072 C 
ATOM     14  H3  <0> d          -2.100  -0.100  -1.283  0.00  0.00     0.027 H 
ATOM     15  H4  <0> d          -2.718   1.241  -0.289  0.00  0.00     0.027 H 
ATOM     16  H5  <0> d          -2.752   1.360  -2.065  0.00  0.00     0.027 H 
ENDBRANCH  10  13
ENDBRANCH   1  10
BRANCH   5  17
ATOM     17  C6  <0> d           2.641   2.698   1.747  0.00  0.00    -0.050 C 
ATOM     18  H10 <0> d           2.066   3.614   1.613  0.00  0.00     0.031 H 
ATOM     19  H11 <0> d           2.948   2.610   2.789  0.00  0.00     0.031 H 
ATOM     20  H12 <0> d           3.525   2.728   1.110  0.00  0.00     0.031 H 
ENDBRANCH   5  17
TORSDOF 3
