REMARK  9 active torsions:
REMARK  status: ('A' for Active; 'I' for Inactive)
REMARK    1  A    between atoms: C1_1  and  C2_2 
REMARK    2  A    between atoms: C2_2  and  C3_3 
REMARK    3  A    between atoms: C3_3  and  C4_4 
REMARK    4  A    between atoms: C4_4  and  C5_5 
REMARK    5  A    between atoms: C5_5  and  C6_7 
REMARK    6  A    between atoms: C5_5  and  O2_12 
REMARK    7  A    between atoms: C6_7  and  C7_8 
REMARK    8  A    between atoms: C7_8  and  C8_10 
REMARK    9  A    between atoms: C7_8  and  O1_11 
ROOT
ATOM      1  C5  <0> d          -0.013   1.086   0.008  0.00  0.00     0.038 C 
ATOM      2  H1  <0> d           0.002  -0.004   0.002  0.00  0.00     0.083 H 
ENDROOT
BRANCH   1   3
ATOM      3  C4  <0> d           1.423   1.615  -0.003  0.00  0.00    -0.041 C 
ATOM      4  H10 <0> d           1.905   1.339  -0.940  0.00  0.00     0.036 H 
ATOM      5  H11 <0> d           1.410   2.701   0.093  0.00  0.00     0.036 H 
BRANCH   3   6
ATOM      6  C3  <0> d           2.199   1.009   1.168  0.00  0.00    -0.063 C 
ATOM      7  H8  <0> d           1.716   1.286   2.106  0.00  0.00     0.033 H 
ATOM      8  H9  <0> d           2.211  -0.076   1.073  0.00  0.00     0.033 H 
BRANCH   6   9
ATOM      9  C2  <0> d           3.634   1.539   1.157  0.00  0.00    -0.068 C 
ATOM     10  H6  <0> d           4.116   1.262   0.220  0.00  0.00     0.032 H 
ATOM     11  H7  <0> d           3.622   2.625   1.253  0.00  0.00     0.032 H 
BRANCH   9  12
ATOM     12  C1  <0> d           4.410   0.933   2.328  0.00  0.00    -0.077 C 
ATOM     13  H3  <0> d           5.433   1.310   2.321  0.00  0.00     0.027 H 
ATOM     14  H4  <0> d           3.928   1.210   3.266  0.00  0.00     0.027 H 
ATOM     15  H5  <0> d           4.423  -0.153   2.233  0.00  0.00     0.027 H 
ENDBRANCH   9  12
ENDBRANCH   6   9
ENDBRANCH   3   6
ENDBRANCH   1   3
BRANCH   1  16
ATOM     16  C6  <0> d          -0.753   1.593  -1.232  0.00  0.00    -0.018 C 
ATOM     17  H12 <0> d          -0.845   2.678  -1.181  0.00  0.00     0.040 H 
ATOM     18  H13 <0> d          -0.194   1.317  -2.126  0.00  0.00     0.040 H 
BRANCH  16  19
ATOM     19  C7  <0> d          -2.147   0.964  -1.286  0.00  0.00     0.034 C 
ATOM     20  H2  <0> d          -2.057  -0.122  -1.247  0.00  0.00     0.082 H 
BRANCH  19  21
ATOM     21  C8  <0> d          -2.840   1.372  -2.588  0.00  0.00    -0.052 C 
ATOM     22  H14 <0> d          -2.251   1.025  -3.437  0.00  0.00     0.030 H 
ATOM     23  H15 <0> d          -3.832   0.924  -2.627  0.00  0.00     0.030 H 
ATOM     24  H16 <0> d          -2.929   2.458  -2.627  0.00  0.00     0.030 H 
ENDBRANCH  19  21
BRANCH  19  25
ATOM     25  O1  <0> d          -2.918   1.419  -0.173  0.00  0.00    -0.396 OA
ATOM     26  H17 <0> d          -3.039   2.378  -0.143  0.00  0.00     0.210 HD
ENDBRANCH  19  25
ENDBRANCH  16  19
ENDBRANCH   1  16
BRANCH   1  27
ATOM     27  O2  <0> d          -0.682   1.547   1.184  0.00  0.00    -0.395 OA
ATOM     28  H18 <0> d          -0.732   2.510   1.256  0.00  0.00     0.210 HD
ENDBRANCH   1  27
TORSDOF 9
