REMARK  1 active torsions:
REMARK  status: ('A' for Active; 'I' for Inactive)
REMARK    1  A    between atoms: C3_3  and  O2_7 
ROOT
ATOM      1  C1  <0> d          -0.811   1.623  -1.201  0.00  0.00    -0.041 C 
ATOM      2  C2  <0> d          -0.013   1.086   0.008  0.00  0.00    -0.017 C 
ATOM      3  C3  <0> d          -0.788   1.610   1.237  0.00  0.00     0.128 C 
ATOM      4  H1  <0> d          -1.490   0.856   1.593  0.00  0.00     0.128 H 
ATOM      5  O1  <0> d          -1.501   2.772   0.753  0.00  0.00    -0.361 OA
ATOM      6  C4  <0> d          -1.978   2.408  -0.561  0.00  0.00     0.023 C 
ATOM      7  H2  <0> d          -0.191   2.285  -1.804  0.00  0.00     0.036 H 
ATOM      8  H3  <0> d          -1.191   0.799  -1.804  0.00  0.00     0.036 H 
ATOM      9  H4  <0> d           0.002  -0.004   0.002  0.00  0.00     0.040 H 
ATOM     10  H5  <0> d           1.003   1.481   0.000  0.00  0.00     0.040 H 
ATOM     11  H6  <0> d          -2.199   3.302  -1.145  0.00  0.00     0.074 H 
ATOM     12  H7  <0> d          -2.862   1.776  -0.482  0.00  0.00     0.074 H 
ENDROOT
BRANCH   3  13
ATOM     13  O2  <0> d           0.120   1.977   2.278  0.00  0.00    -0.371 OA
ATOM     14  H8  <0> d          -0.312   2.314   3.075  0.00  0.00     0.212 HD
ENDBRANCH   3  13
TORSDOF 1
