REMARK  0 active torsions:
REMARK  status: ('A' for Active; 'I' for Inactive)
ROOT
ATOM      1  C1  <0> d          -1.947   3.395  -0.015  0.00  0.00     0.021 C 
ATOM      2  C2  <0> d          -0.849   3.149  -1.034  0.00  0.00     0.038 C 
ATOM      3  H1  <0> d           0.012   3.721  -0.658  0.00  0.00     0.056 H 
ATOM      4  C3  <0> d          -0.765   1.598  -1.208  0.00  0.00    -0.011 C 
ATOM      5  H2  <0> d          -1.670   0.973  -1.250  0.00  0.00     0.046 H 
ATOM      6  C4  <0> d          -0.013   1.086   0.008  0.00  0.00     0.001 C 
ATOM      7  N1  <0> d          -0.718   1.568   1.203  0.00  0.00    -0.361 N 
ATOM      8  C5  <0> d          -1.616   2.560   1.203  0.00  0.00     0.218 C 
ATOM      9  O1  <0> d          -2.197   2.805   2.239  0.00  0.00    -0.274 OA
ATOM     10  C6  <0> d           0.015   1.560  -2.530  0.00  0.00     0.001 C 
ATOM     11  N2  <0> d          -0.568   2.693  -3.289  0.00  0.00    -0.360 N 
ATOM     12  C7  <0> d          -1.115   3.602  -2.438  0.00  0.00     0.222 C 
ATOM     13  O2  <0> d          -1.716   4.606  -2.759  0.00  0.00    -0.273 OA
ATOM     14  H3  <0> d          -2.924   3.088  -0.415  0.00  0.00     0.048 H 
ATOM     15  H4  <0> d          -1.984   4.457   0.267  0.00  0.00     0.048 H 
ATOM     16  H5  <0> d           0.005  -0.014  -0.008  0.00  0.00     0.064 H 
ATOM     17  H6  <0> d           1.018   1.470  -0.010  0.00  0.00     0.064 H 
ATOM     18  H7  <0> d          -0.520   1.107   2.182  0.00  0.00     0.162 HD
ATOM     19  H8  <0> d           1.088   1.693  -2.327  0.00  0.00     0.064 H 
ATOM     20  H9  <0> d          -0.146   0.590  -3.024  0.00  0.00     0.064 H 
ATOM     21  H10 <0> d          -0.515   2.705  -4.388  0.00  0.00     0.162 HD
ENDROOT
TORSDOF 0
