REMARK  2 active torsions:
REMARK  status: ('A' for Active; 'I' for Inactive)
REMARK    1  A    between atoms: C4_4  and  C7_7 
REMARK    2  A    between atoms: C7_7  and  C8_8 
ROOT
ATOM      1  C1  <0> d          -3.766   0.568   4.034  0.00  0.00    -0.083 A 
ATOM      2  C2  <0> d          -3.949   1.829   3.496  0.00  0.00    -0.082 A 
ATOM      3  C3  <0> d          -3.554   2.090   2.198  0.00  0.00    -0.076 A 
ATOM      4  C4  <0> d          -2.976   1.091   1.436  0.00  0.00    -0.052 A 
ATOM      5  C5  <0> d          -2.798  -0.171   1.972  0.00  0.00    -0.076 A 
ATOM      6  C6  <0> d          -3.189  -0.431   3.272  0.00  0.00    -0.082 A 
ATOM      7  H2  <0> d          -4.075   0.364   5.048  0.00  0.00     0.083 H 
ATOM      8  H3  <0> d          -4.400   2.609   4.091  0.00  0.00     0.083 H 
ATOM      9  H4  <0> d          -3.696   3.075   1.778  0.00  0.00     0.084 H 
ATOM     10  H5  <0> d          -2.351  -0.952   1.376  0.00  0.00     0.084 H 
ATOM     11  H6  <0> d          -3.047  -1.416   3.692  0.00  0.00     0.083 H 
ENDROOT
BRANCH   4  12
ATOM     12  C7  <0> d          -2.546   1.376   0.021  0.00  0.00    -0.001 C 
ATOM     13  H7  <0> d          -3.189   2.145  -0.407  0.00  0.00     0.049 H 
ATOM     14  H8  <0> d          -2.624   0.465  -0.573  0.00  0.00     0.049 H 
BRANCH  12  15
ATOM     15  C8  <0> d          -1.117   1.857   0.017  0.00  0.00     0.033 A 
ATOM     16  N2  <0> d          -0.711   3.144   0.025  0.00  0.00    -0.282 N 
ATOM     17  N1  <0> d           0.690   3.154   0.012  0.00  0.00    -0.187 NA
ATOM     18  H1  <0> d          -1.305   3.948   0.038  0.00  0.00     0.189 HD
ATOM     19  C10 <0> d           1.107   1.914   0.002  0.00  0.00     0.023 A 
ATOM     20  C9  <0> d          -0.013   1.076   0.008  0.00  0.00    -0.041 A 
ATOM     21  H10 <0> d           2.138   1.593  -0.010  0.00  0.00     0.117 H 
ATOM     22  H9  <0> d           0.002  -0.004   0.002  0.00  0.00     0.088 H 
ENDBRANCH  12  15
ENDBRANCH   4  12
TORSDOF 2
