REMARK  3 active torsions:
REMARK  status: ('A' for Active; 'I' for Inactive)
REMARK    1  A    between atoms: C1_1  and  N1_2 
REMARK    2  A    between atoms: C2_3  and  N3_10 
REMARK    3  A    between atoms: C4_5  and  C5_7 
ROOT
ATOM      1  N1  <0> d           0.002  -0.004   0.002  0.00  0.00    -0.258 N 
ATOM      2  C2  <0> d           0.008  -0.796  -1.103  0.00  0.00     0.119 A 
ATOM      3  C3  <0> d           0.027  -2.089  -0.688  0.00  0.00    -0.003 A 
ATOM      4  C4  <0> d           0.034  -2.087   0.724  0.00  0.00     0.157 A 
ATOM      5  N2  <0> d           0.025  -0.832   1.131  0.00  0.00    -0.164 NA
ATOM      6  H4  <0> d           0.036  -2.962  -1.324  0.00  0.00     0.093 H 
ENDROOT
BRANCH   1   7
ATOM      7  C1  <0> d          -0.018   1.461   0.010  0.00  0.00     0.004 C 
ATOM      8  H1  <0> d           1.005   1.838   0.002  0.00  0.00     0.059 H 
ATOM      9  H2  <0> d          -0.545   1.822  -0.873  0.00  0.00     0.059 H 
ATOM     10  H3  <0> d          -0.528   1.812   0.907  0.00  0.00     0.059 H 
ENDBRANCH   1   7
BRANCH   2  11
ATOM     11  N3  <0> d          -0.005  -0.360  -2.426  0.00  0.00    -0.384 N 
ATOM     12  H5  <0> d          -0.019   0.590  -2.623  0.00  0.00     0.157 HD
ATOM     13  H6  <0> d           0.001  -1.005  -3.150  0.00  0.00     0.157 HD
ENDBRANCH   2  11
BRANCH   4  14
ATOM     14  C5  <0> d           0.053  -3.279   1.590  0.00  0.00     0.230 C 
ATOM     15  O1  <0> d           0.066  -4.397   1.093  0.00  0.00    -0.643 OA
ATOM     16  O2  <0> d           0.057  -3.151   2.807  0.00  0.00    -0.643 OA
ENDBRANCH   4  14
TORSDOF 3
