REMARK  1 active torsions:
REMARK  status: ('A' for Active; 'I' for Inactive)
REMARK    1  A    between atoms: C3_4  and  O3_12 
ROOT
ATOM      1  C1  <0> d           2.011   0.683   0.904  0.00  0.00     0.050 C 
ATOM      2  C2  <0> d           1.396   1.768  -0.002  0.00  0.00     0.090 C 
ATOM      3  H1  <0> d           1.587   2.772   0.376  0.00  0.00     0.091 H 
ATOM      4  C3  <0> d           1.895   1.582  -1.438  0.00  0.00     0.079 C 
ATOM      5  H2  <0> d           1.550   2.415  -2.051  0.00  0.00     0.093 H 
ATOM      6  C4  <0> d           1.367   0.292  -2.005  0.00  0.00    -0.072 C 
ATOM      7  C5  <0> d           0.497  -0.439  -1.362  0.00  0.00    -0.052 C 
ATOM      8  C6  <0> d           0.002  -0.004   0.002  0.00  0.00     0.149 C 
ATOM      9  H3  <0> d          -0.967  -0.434   0.258  0.00  0.00     0.136 H 
ATOM     10  O1  <0> d           1.034  -0.373   0.944  0.00  0.00    -0.355 OA
ATOM     11  O2  <0> d          -0.018   1.442   0.010  0.00  0.00    -0.348 OA
ATOM     12  H4  <0> d           2.182   1.079   1.906  0.00  0.00     0.078 H 
ATOM     13  H5  <0> d           2.946   0.319   0.477  0.00  0.00     0.078 H 
ATOM     14  H6  <0> d           1.717  -0.038  -2.972  0.00  0.00     0.080 H 
ATOM     15  H7  <0> d           0.131  -1.354  -1.803  0.00  0.00     0.084 H 
ENDROOT
BRANCH   4  16
ATOM     16  O3  <0> d           3.324   1.550  -1.443  0.00  0.00    -0.389 OA
ATOM     17  H8  <0> d           3.711   1.435  -2.321  0.00  0.00     0.210 HD
ENDBRANCH   4  16
TORSDOF 1
