REMARK  3 active torsions:
REMARK  status: ('A' for Active; 'I' for Inactive)
REMARK    1  A    between atoms: C1_1  and  O1_2 
REMARK    2  A    between atoms: O1_2  and  C2_3 
REMARK       I    between atoms: C2_3  and  N1_5 
REMARK    3  A    between atoms: C6_9  and  O3_12 
ROOT
ATOM      1  C2  <0> d          -1.974   1.174   1.366  0.00  0.00     0.362 C 
ATOM      2  O2  <0> d          -2.509   0.470   0.532  0.00  0.00    -0.238 OA
ATOM      3  N1  <0> d          -2.662   1.574   2.453  0.00  0.00    -0.326 N 
ATOM      4  C3  <0> d          -2.028   2.425   3.469  0.00  0.00    -0.000 C 
ATOM      5  C4  <0> d          -2.191   1.761   4.840  0.00  0.00    -0.048 C 
ATOM      6  C5  <0> d          -3.674   1.479   5.093  0.00  0.00    -0.038 C 
ATOM      7  C6  <0> d          -4.201   0.518   4.025  0.00  0.00     0.051 C 
ATOM      8  H1  <0> d          -3.625  -0.407   4.051  0.00  0.00     0.085 H 
ATOM      9  C7  <0> d          -4.063   1.173   2.642  0.00  0.00     0.024 C 
ATOM     10  H5  <0> d          -0.968   2.538   3.241  0.00  0.00     0.064 H 
ATOM     11  H6  <0> d          -2.507   3.404   3.476  0.00  0.00     0.064 H 
ATOM     12  H7  <0> d          -1.634   0.824   4.859  0.00  0.00     0.035 H 
ATOM     13  H8  <0> d          -1.810   2.427   5.614  0.00  0.00     0.035 H 
ATOM     14  H9  <0> d          -3.795   1.029   6.078  0.00  0.00     0.036 H 
ATOM     15  H10 <0> d          -4.234   2.413   5.049  0.00  0.00     0.036 H 
ATOM     16  H11 <0> d          -4.706   2.051   2.584  0.00  0.00     0.068 H 
ATOM     17  H12 <0> d          -4.346   0.459   1.868  0.00  0.00     0.068 H 
ENDROOT
BRANCH   1  18
ATOM     18  O1  <0> d          -0.692   1.554   1.203  0.00  0.00    -0.309 OA
BRANCH  18  19
ATOM     19  C1  <0> d          -0.013   1.086   0.008  0.00  0.00     0.015 C 
ATOM     20  H2  <0> d           0.002  -0.004   0.002  0.00  0.00     0.067 H 
ATOM     21  H3  <0> d           1.010   1.463   0.000  0.00  0.00     0.067 H 
ATOM     22  H4  <0> d          -0.540   1.447  -0.875  0.00  0.00     0.067 H 
ENDBRANCH  18  19
ENDBRANCH   1  18
BRANCH   7  23
ATOM     23  O3  <0> d          -5.578   0.231   4.279  0.00  0.00    -0.394 OA
ATOM     24  H13 <0> d          -5.978  -0.374   3.639  0.00  0.00     0.210 HD
ENDBRANCH   7  23
TORSDOF 3
