REMARK  1 active torsions:
REMARK  status: ('A' for Active; 'I' for Inactive)
REMARK    1  A    between atoms: C4_5  and  C6_7 
ROOT
ATOM      1  C1  <0> d          -0.017   1.380   0.010  0.00  0.00    -0.079 A 
ATOM      2  C2  <0> d           1.194   2.059   0.002  0.00  0.00    -0.066 A 
ATOM      3  C3  <0> d           2.374   1.340  -0.013  0.00  0.00     0.003 A 
ATOM      4  N1  <0> d           2.364   0.022  -0.020  0.00  0.00    -0.257 NA
ATOM      5  C4  <0> d           1.229  -0.664  -0.013  0.00  0.00     0.105 A 
ATOM      6  C5  <0> d           0.002  -0.004   0.002  0.00  0.00    -0.051 A 
ATOM      7  H2  <0> d          -0.952   1.919   0.026  0.00  0.00     0.083 H 
ATOM      8  H3  <0> d           1.213   3.139   0.007  0.00  0.00     0.085 H 
ATOM      9  H4  <0> d           3.318   1.865  -0.020  0.00  0.00     0.114 H 
ATOM     10  H5  <0> d          -0.921  -0.564   0.008  0.00  0.00     0.087 H 
ENDROOT
BRANCH   5  11
ATOM     11  C6  <0> d           1.266  -2.147  -0.022  0.00  0.00     0.199 A 
ATOM     12  N4  <0> d           2.353  -2.887  -0.037  0.00  0.00    -0.151 NA
ATOM     13  N3  <0> d           1.931  -4.226  -0.037  0.00  0.00    -0.270 N 
ATOM     14  C7  <0> d           0.586  -4.203  -0.031  0.00  0.00     0.082 A 
ATOM     15  H1  <0> d           2.498  -5.013  -0.044  0.00  0.00     0.190 HD
ATOM     16  N2  <0> d           0.197  -2.955  -0.022  0.00  0.00    -0.219 NA
ATOM     17  H6  <0> d          -0.062  -5.067  -0.033  0.00  0.00     0.145 H 
ENDBRANCH   5  11
TORSDOF 1
