REMARK  2 active torsions:
REMARK  status: ('A' for Active; 'I' for Inactive)
REMARK    1  A    between atoms: N2_9  and  C8_10 
REMARK    2  A    between atoms: C8_10  and  O1_11 
ROOT
ATOM      1  C1  <0> d          -1.226   1.748   0.017  0.00  0.00    -0.081 A 
ATOM      2  C2  <0> d          -0.013   1.076   0.008  0.00  0.00    -0.081 A 
ATOM      3  C3  <0> d           1.175   1.777   0.000  0.00  0.00    -0.055 A 
ATOM      4  C4  <0> d           1.154   3.165   0.008  0.00  0.00     0.066 A 
ATOM      5  C5  <0> d          -0.075   3.845   0.022  0.00  0.00     0.085 A 
ATOM      6  C6  <0> d          -1.266   3.114   0.030  0.00  0.00    -0.053 A 
ATOM      7  N1  <0> d           0.208   5.173   0.026  0.00  0.00    -0.242 NA
ATOM      8  C7  <0> d           1.497   5.345   0.015  0.00  0.00     0.069 A 
ATOM      9  N2  <0> d           2.130   4.141   0.003  0.00  0.00    -0.317 N 
ATOM     10  H1  <0> d          -2.149   1.187   0.019  0.00  0.00     0.083 H 
ATOM     11  H2  <0> d           0.002  -0.004   0.002  0.00  0.00     0.083 H 
ATOM     12  H3  <0> d           2.116   1.248  -0.011  0.00  0.00     0.087 H 
ATOM     13  H4  <0> d          -2.216   3.627   0.042  0.00  0.00     0.087 H 
ATOM     14  H5  <0> d           1.994   6.305   0.015  0.00  0.00     0.143 H 
ENDROOT
BRANCH   9  15
ATOM     15  C8  <0> d           3.578   3.921  -0.011  0.00  0.00     0.082 C 
ATOM     16  H6  <0> d           3.868   3.354   0.874  0.00  0.00     0.107 H 
ATOM     17  H7  <0> d           3.852   3.362  -0.906  0.00  0.00     0.107 H 
BRANCH  15  18
ATOM     18  O1  <0> d           4.252   5.181  -0.011  0.00  0.00    -0.382 OA
ATOM     19  H8  <0> d           5.216   5.112  -0.020  0.00  0.00     0.211 HD
ENDBRANCH  15  18
ENDBRANCH   9  15
TORSDOF 2
