REMARK  2 active torsions:
REMARK  status: ('A' for Active; 'I' for Inactive)
REMARK    1  A    between atoms: C6_8  and  C8_11 
REMARK    2  A    between atoms: C8_11  and  O1_12 
ROOT
ATOM      1  C1  <0> d           0.836   6.216  -2.118  0.00  0.00    -0.054 A 
ATOM      2  C2  <0> d           0.735   7.374  -1.445  0.00  0.00    -0.020 A 
ATOM      3  N1  <0> d           0.769   7.135  -0.097  0.00  0.00    -0.350 N 
ATOM      4  H1  <0> d           0.712   7.816   0.590  0.00  0.00     0.166 HD
ATOM      5  C3  <0> d           0.896   5.787   0.138  0.00  0.00     0.137 A 
ATOM      6  C4  <0> d           0.944   5.152  -1.118  0.00  0.00     0.012 A 
ATOM      7  C5  <0> d           1.077   3.764  -1.182  0.00  0.00    -0.060 A 
ATOM      8  C6  <0> d           1.147   3.062   0.008  0.00  0.00    -0.016 A 
ATOM      9  C7  <0> d           1.094   3.752   1.209  0.00  0.00     0.013 A 
ATOM     10  N2  <0> d           0.973   5.062   1.247  0.00  0.00    -0.242 NA
ATOM     11  H2  <0> d           0.838   6.094  -3.191  0.00  0.00     0.087 H 
ATOM     12  H3  <0> d           0.640   8.349  -1.900  0.00  0.00     0.111 H 
ATOM     13  H4  <0> d           1.120   3.252  -2.132  0.00  0.00     0.086 H 
ATOM     14  H5  <0> d           1.153   3.201   2.136  0.00  0.00     0.115 H 
ENDROOT
BRANCH   8  15
ATOM     15  C8  <0> d           1.286   1.562  -0.002  0.00  0.00     0.042 C 
ATOM     16  H6  <0> d           1.840   1.243   0.881  0.00  0.00     0.081 H 
ATOM     17  H7  <0> d           1.823   1.252  -0.899  0.00  0.00     0.081 H 
BRANCH  15  18
ATOM     18  O1  <0> d          -0.011   0.963   0.007  0.00  0.00    -0.396 OA
ATOM     19  H8  <0> d           0.002  -0.004   0.002  0.00  0.00     0.209 HD
ENDBRANCH  15  18
ENDBRANCH   8  15
TORSDOF 2
