REMARK  2 active torsions:
REMARK  status: ('A' for Active; 'I' for Inactive)
REMARK    1  A    between atoms: C5_5  and  C7_8 
REMARK    2  A    between atoms: C7_8  and  O1_9 
ROOT
ATOM      1  C1  <0> d          -0.019   1.530   0.011  0.00  0.00    -0.061 C 
ATOM      2  C2  <0> d           1.426   2.033  -0.001  0.00  0.00    -0.050 C 
ATOM      3  C3  <0> d           2.226   1.333   1.058  0.00  0.00    -0.106 C 
ATOM      4  C4  <0> d           1.859   0.234   1.636  0.00  0.00    -0.101 C 
ATOM      5  C5  <0> d           0.578  -0.488   1.335  0.00  0.00    -0.018 C 
ATOM      6  H1  <0> d          -0.141  -0.295   2.131  0.00  0.00     0.049 H 
ATOM      7  C6  <0> d           0.002  -0.004   0.002  0.00  0.00    -0.057 C 
ATOM      8  H2  <0> d          -0.523   1.884   0.909  0.00  0.00     0.033 H 
ATOM      9  H3  <0> d          -0.540   1.894  -0.875  0.00  0.00     0.033 H 
ATOM     10  H4  <0> d           1.869   1.838  -0.977  0.00  0.00     0.038 H 
ATOM     11  H5  <0> d           1.436   3.107   0.190  0.00  0.00     0.038 H 
ATOM     12  H6  <0> d           3.166   1.773   1.357  0.00  0.00     0.076 H 
ATOM     13  H7  <0> d           2.516  -0.191   2.381  0.00  0.00     0.077 H 
ATOM     14  H8  <0> d          -1.013  -0.384  -0.118  0.00  0.00     0.034 H 
ATOM     15  H9  <0> d           0.628  -0.357  -0.818  0.00  0.00     0.034 H 
ENDROOT
BRANCH   5  16
ATOM     16  C7  <0> d           0.850  -1.991   1.250  0.00  0.00     0.023 C 
ATOM     17  H10 <0> d          -0.059  -2.508   0.945  0.00  0.00     0.074 H 
ATOM     18  H11 <0> d           1.637  -2.177   0.519  0.00  0.00     0.074 H 
BRANCH  16  19
ATOM     19  O1  <0> d           1.265  -2.472   2.530  0.00  0.00    -0.400 OA
ATOM     20  H12 <0> d           1.455  -3.420   2.551  0.00  0.00     0.209 HD
ENDBRANCH  16  19
ENDBRANCH   5  16
TORSDOF 2
