REMARK  3 active torsions:
REMARK  status: ('A' for Active; 'I' for Inactive)
REMARK    1  A    between atoms: C1_1  and  C2_2 
REMARK    2  A    between atoms: C2_2  and  O1_3 
REMARK    3  A    between atoms: O1_3  and  C3_4 
ROOT
ATOM      1  C3  <0> d           1.182   1.789   0.000  0.00  0.00     0.181 A 
ATOM      2  C4  <0> d          -0.013   1.076   0.008  0.00  0.00     0.053 A 
ATOM      3  N1  <0> d          -1.164   1.721   0.017  0.00  0.00    -0.267 NA
ATOM      4  C5  <0> d          -1.182   3.043   0.030  0.00  0.00     0.019 A 
ATOM      5  C6  <0> d           0.003   3.754   0.022  0.00  0.00     0.022 A 
ATOM      6  N2  <0> d           1.160   3.113   0.008  0.00  0.00    -0.234 NA
ATOM      7  H6  <0> d           0.002  -0.004   0.002  0.00  0.00     0.121 H 
ATOM      8  H7  <0> d          -2.126   3.569   0.042  0.00  0.00     0.117 H 
ATOM      9  H8  <0> d          -0.016   4.834   0.028  0.00  0.00     0.117 H 
ENDROOT
BRANCH   1  10
ATOM     10  O1  <0> d           2.367   1.129  -0.015  0.00  0.00    -0.334 OA
BRANCH  10  11
ATOM     11  C2  <0> d           3.554   1.926  -0.022  0.00  0.00     0.024 C 
ATOM     12  H4  <0> d           3.560   2.560  -0.908  0.00  0.00     0.074 H 
ATOM     13  H5  <0> d           3.577   2.550   0.871  0.00  0.00     0.074 H 
BRANCH  11  14
ATOM     14  C1  <0> d           4.781   1.013  -0.039  0.00  0.00    -0.056 C 
ATOM     15  H1  <0> d           4.775   0.378   0.847  0.00  0.00     0.030 H 
ATOM     16  H2  <0> d           4.758   0.389  -0.933  0.00  0.00     0.030 H 
ATOM     17  H3  <0> d           5.686   1.621  -0.045  0.00  0.00     0.030 H 
ENDBRANCH  11  14
ENDBRANCH  10  11
ENDBRANCH   1  10
TORSDOF 3
