REMARK  2 active torsions:
REMARK  status: ('A' for Active; 'I' for Inactive)
REMARK    1  A    between atoms: C1_1  and  C2_2 
REMARK    2  A    between atoms: C4_4  and  C7_11 
ROOT
ATOM      1  C2  <0> d           0.002  -0.004   0.002  0.00  0.00    -0.028 A 
ATOM      2  C3  <0> d           1.204  -0.647  -0.013  0.00  0.00    -0.050 A 
ATOM      3  C4  <0> d           2.393   0.092  -0.020  0.00  0.00     0.053 A 
ATOM      4  N1  <0> d           2.379   1.399  -0.013  0.00  0.00    -0.153 NA
ATOM      5  N2  <0> d           1.168   2.100   0.002  0.00  0.00    -0.130 N 
ATOM      6  C5  <0> d          -0.017   1.399   0.010  0.00  0.00     0.106 A 
ATOM      7  C6  <0> d          -1.019   2.359   0.019  0.00  0.00     0.055 A 
ATOM      8  N3  <0> d          -0.397   3.532   0.025  0.00  0.00    -0.140 NA
ATOM      9  N4  <0> d           0.875   3.352   0.012  0.00  0.00    -0.043 NA
ATOM     10  H4  <0> d           1.239  -1.726  -0.019  0.00  0.00     0.087 H 
ATOM     11  H5  <0> d          -2.085   2.187   0.022  0.00  0.00     0.121 H 
ENDROOT
BRANCH   1  12
ATOM     12  C1  <0> d          -1.285  -0.787   0.010  0.00  0.00    -0.049 C 
ATOM     13  H1  <0> d          -1.605  -0.971  -1.016  0.00  0.00     0.033 H 
ATOM     14  H2  <0> d          -1.129  -1.739   0.517  0.00  0.00     0.033 H 
ATOM     15  H3  <0> d          -2.054  -0.218   0.534  0.00  0.00     0.033 H 
ENDBRANCH   1  12
BRANCH   3  16
ATOM     16  C7  <0> d           3.714  -0.633  -0.036  0.00  0.00    -0.034 C 
ATOM     17  H6  <0> d           4.023  -0.803  -1.068  0.00  0.00     0.035 H 
ATOM     18  H7  <0> d           4.465  -0.030   0.473  0.00  0.00     0.035 H 
ATOM     19  H8  <0> d           3.609  -1.591   0.474  0.00  0.00     0.035 H 
ENDBRANCH   3  16
TORSDOF 2
