REMARK  0 active torsions:
REMARK  status: ('A' for Active; 'I' for Inactive)
ROOT
ATOM      1  C1  <0> d          -0.017   1.383   0.010  0.00  0.00    -0.020 A 
ATOM      2  C2  <0> d           1.194   2.061   0.002  0.00  0.00     0.054 A 
ATOM      3  C3  <0> d           2.378   1.340  -0.013  0.00  0.00     0.025 A 
ATOM      4  N1  <0> d           2.369   0.025  -0.021  0.00  0.00    -0.245 NA
ATOM      5  C4  <0> d           1.233  -0.665  -0.014  0.00  0.00     0.175 A 
ATOM      6  C5  <0> d           0.002  -0.004   0.002  0.00  0.00     0.157 A 
ATOM      7  F1  <0> d          -1.153  -0.706   0.010  0.00  0.00    -0.203 F 
ATOM      8  C6  <0> d           1.271  -2.096  -0.022  0.00  0.00     0.123 C 
ATOM      9  N2  <0> d           1.301  -3.232  -0.029  0.00  0.00    -0.190 NA
ATOM     10 Cl1  <0> d           1.225   3.797   0.010  0.00  0.00    -0.083 Cl
ATOM     11  H1  <0> d          -0.952   1.923   0.026  0.00  0.00     0.091 H 
ATOM     12  H2  <0> d           3.321   1.865  -0.020  0.00  0.00     0.117 H 
ENDROOT
TORSDOF 0
