REMARK  5 active torsions:
REMARK  status: ('A' for Active; 'I' for Inactive)
REMARK    1  A    between atoms: C1_1  and  C2_2 
REMARK    2  A    between atoms: C2_2  and  C3_3 
REMARK    3  A    between atoms: C2_2  and  C4_4 
REMARK    4  A    between atoms: C4_4  and  C5_6 
REMARK    5  A    between atoms: C4_4  and  O1_8 
ROOT
ATOM      1  C5  <0> d          -0.678   1.547   3.717  0.00  0.00    -0.085 C 
ATOM      2  C6  <0> d          -1.227   1.926   4.683  0.00  0.00    -0.151 C 
ATOM      3  H9  <0> d          -1.719   2.264   5.547  0.00  0.00     0.166 H 
ENDROOT
BRANCH   1   4
ATOM      4  C4  <0> d           0.011   1.072   2.506  0.00  0.00     0.096 C 
ATOM      5  H1  <0> d           1.034   1.450   2.499  0.00  0.00     0.103 H 
BRANCH   4   6
ATOM      6  C2  <0> d          -0.729   1.579   1.267  0.00  0.00    -0.026 C 
ATOM      7  H5  <0> d          -1.751   1.202   1.275  0.00  0.00     0.044 H 
BRANCH   6   8
ATOM      8  C1  <0> d          -0.013   1.086   0.008  0.00  0.00    -0.070 C 
ATOM      9  H2  <0> d           0.002  -0.004   0.002  0.00  0.00     0.028 H 
ATOM     10  H3  <0> d           1.010   1.463   0.000  0.00  0.00     0.028 H 
ATOM     11  H4  <0> d          -0.540   1.447  -0.875  0.00  0.00     0.028 H 
ENDBRANCH   6   8
BRANCH   6  12
ATOM     12  C3  <0> d          -0.750   3.109   1.275  0.00  0.00    -0.070 C 
ATOM     13  H6  <0> d          -1.277   3.470   0.392  0.00  0.00     0.028 H 
ATOM     14  H7  <0> d          -1.260   3.461   2.172  0.00  0.00     0.028 H 
ATOM     15  H8  <0> d           0.273   3.486   1.268  0.00  0.00     0.028 H 
ENDBRANCH   6  12
ENDBRANCH   4   6
BRANCH   4  16
ATOM     16  O1  <0> d           0.030  -0.356   2.498  0.00  0.00    -0.383 OA
ATOM     17  H10 <0> d          -0.847  -0.762   2.505  0.00  0.00     0.211 HD
ENDBRANCH   4  16
ENDBRANCH   1   4
TORSDOF 5
