REMARK  1 active torsions:
REMARK  status: ('A' for Active; 'I' for Inactive)
REMARK    1  A    between atoms: C4_4  and  O1_11 
ROOT
ATOM      1  C1  <0> d          -0.961   2.469  -3.493  0.00  0.00    -0.065 C 
ATOM      2  C2  <0> d          -1.762   3.665  -2.988  0.00  0.00    -0.062 C 
ATOM      3  C3  <0> d          -2.481   3.345  -1.668  0.00  0.00    -0.036 C 
ATOM      4  C4  <0> d          -1.419   2.928  -0.667  0.00  0.00     0.061 C 
ATOM      5  C5  <0> d          -1.935   2.494   0.710  0.00  0.00    -0.036 C 
ATOM      6  C6  <0> d          -0.778   1.605   1.250  0.00  0.00    -0.062 C 
ATOM      7  C7  <0> d          -0.013   1.086   0.008  0.00  0.00    -0.059 C 
ATOM      8  C8  <0> d          -0.789   1.610  -1.195  0.00  0.00    -0.024 C 
ATOM      9  H1  <0> d          -1.577   0.905  -1.461  0.00  0.00     0.044 H 
ATOM     10  C9  <0> d           0.023   1.960  -2.426  0.00  0.00    -0.059 C 
ATOM     11  H2  <0> d          -0.402   2.763  -4.381  0.00  0.00     0.033 H 
ATOM     12  H3  <0> d          -1.648   1.665  -3.756  0.00  0.00     0.033 H 
ATOM     13  H4  <0> d          -1.086   4.506  -2.831  0.00  0.00     0.033 H 
ATOM     14  H5  <0> d          -2.502   3.941  -3.739  0.00  0.00     0.033 H 
ATOM     15  H6  <0> d          -3.005   4.230  -1.306  0.00  0.00     0.037 H 
ATOM     16  H7  <0> d          -3.189   2.530  -1.819  0.00  0.00     0.037 H 
ATOM     17  H8  <0> d          -2.088   3.359   1.355  0.00  0.00     0.037 H 
ATOM     18  H9  <0> d          -2.855   1.918   0.614  0.00  0.00     0.037 H 
ATOM     19  H10 <0> d          -1.183   0.767   1.818  0.00  0.00     0.033 H 
ATOM     20  H11 <0> d          -0.113   2.197   1.879  0.00  0.00     0.033 H 
ATOM     21  H12 <0> d           0.002  -0.004   0.002  0.00  0.00     0.033 H 
ATOM     22  H13 <0> d           1.005   1.477   0.000  0.00  0.00     0.033 H 
ATOM     23  H14 <0> d           0.745   2.741  -2.185  0.00  0.00     0.033 H 
ATOM     24  H15 <0> d           0.543   1.075  -2.792  0.00  0.00     0.033 H 
ENDROOT
BRANCH   4  25
ATOM     25  O1  <0> d          -0.423   3.945  -0.545  0.00  0.00    -0.389 OA
ATOM     26  H16 <0> d          -0.762   4.790  -0.219  0.00  0.00     0.210 HD
ENDBRANCH   4  25
TORSDOF 1
