REMARK  2 active torsions:
REMARK  status: ('A' for Active; 'I' for Inactive)
REMARK    1  A    between atoms: C1_1  and  O1_2 
REMARK    2  A    between atoms: O1_2  and  C2_3 
ROOT
ATOM      1  C2  <0> d           1.200   1.774   0.000  0.00  0.00     0.070 A 
ATOM      2  C3  <0> d          -0.013   1.076   0.008  0.00  0.00    -0.048 A 
ATOM      3  C4  <0> d          -1.207   1.721   0.017  0.00  0.00    -0.048 A 
ATOM      4  C5  <0> d          -1.236   3.127   0.030  0.00  0.00     0.109 A 
ATOM      5  C6  <0> d           0.037   3.864   0.021  0.00  0.00     0.111 A 
ATOM      6  C7  <0> d           1.240   3.137   0.007  0.00  0.00    -0.019 A 
ATOM      7  N1  <0> d          -0.312   5.140   0.031  0.00  0.00    -0.155 NA
ATOM      8  N2  <0> d          -1.597   5.220   0.044  0.00  0.00    -0.196 N 
ATOM      9  H1  <0> d          -2.098   6.086   0.053  0.00  0.00     0.213 HD
ATOM     10  N3  <0> d          -2.168   4.066   0.043  0.00  0.00    -0.155 NA
ATOM     11  H5  <0> d           0.002  -0.004   0.002  0.00  0.00     0.087 H 
ATOM     12  H6  <0> d          -2.129   1.159   0.019  0.00  0.00     0.087 H 
ATOM     13  H7  <0> d           2.188   3.654   0.001  0.00  0.00     0.091 H 
ENDROOT
BRANCH   1  14
ATOM     14  O1  <0> d           2.367   1.077  -0.014  0.00  0.00    -0.356 OA
BRANCH  14  15
ATOM     15  C1  <0> d           2.271  -0.348  -0.020  0.00  0.00     0.010 C 
ATOM     16  H2  <0> d           1.742  -0.680   0.874  0.00  0.00     0.066 H 
ATOM     17  H3  <0> d           1.726  -0.672  -0.906  0.00  0.00     0.066 H 
ATOM     18  H4  <0> d           3.272  -0.780  -0.031  0.00  0.00     0.066 H 
ENDBRANCH  14  15
ENDBRANCH   1  14
TORSDOF 2
