REMARK  1 active torsions:
REMARK  status: ('A' for Active; 'I' for Inactive)
REMARK    1  A    between atoms: C2_2  and  C3_3 
ROOT
ATOM      1  C1  <0> d           0.018  -1.178  -0.004  0.00  0.00    -0.149 C 
ATOM      2  C2  <0> d           0.002  -0.004   0.002  0.00  0.00    -0.078 C 
ATOM      3  H1  <0> d           0.032  -2.228  -0.010  0.00  0.00     0.166 H 
ENDROOT
BRANCH   2   4
ATOM      4  C3  <0> d          -0.017   1.428   0.010  0.00  0.00     0.017 A 
ATOM      5  C12 <0> d           1.175   2.131   0.002  0.00  0.00    -0.054 A 
ATOM      6  C11 <0> d           1.149   3.534   0.004  0.00  0.00    -0.025 A 
ATOM      7  H8  <0> d           2.118   1.604  -0.009  0.00  0.00     0.087 H 
ATOM      8  C6  <0> d          -0.098   4.209   0.025  0.00  0.00    -0.026 A 
ATOM      9  C10 <0> d           2.339   4.283  -0.009  0.00  0.00    -0.072 A 
ATOM     10  C5  <0> d          -1.292   3.465   0.039  0.00  0.00    -0.071 A 
ATOM     11  C7  <0> d          -0.119   5.614   0.033  0.00  0.00    -0.072 A 
ATOM     12  C4  <0> d          -1.248   2.109   0.031  0.00  0.00    -0.064 A 
ATOM     13  H3  <0> d          -2.245   3.974   0.054  0.00  0.00     0.084 H 
ATOM     14  H2  <0> d          -2.169   1.545   0.041  0.00  0.00     0.085 H 
ATOM     15  C8  <0> d           1.054   6.306   0.021  0.00  0.00    -0.082 A 
ATOM     16  H4  <0> d          -1.060   6.142   0.049  0.00  0.00     0.084 H 
ATOM     17  C9  <0> d           2.279   5.643  -0.001  0.00  0.00    -0.082 A 
ATOM     18  H5  <0> d           1.033   7.386   0.027  0.00  0.00     0.083 H 
ATOM     19  H6  <0> d           3.194   6.216  -0.011  0.00  0.00     0.083 H 
ATOM     20  H7  <0> d           3.296   3.782  -0.026  0.00  0.00     0.084 H 
ENDBRANCH   2   4
TORSDOF 1
