REMARK  1 active torsions:
REMARK  status: ('A' for Active; 'I' for Inactive)
REMARK    1  A    between atoms: C1_1  and  C2_2 
ROOT
ATOM      1  C2  <0> d           1.576   5.274   0.014  0.00  0.00     0.049 A 
ATOM      2  C3  <0> d           2.156   4.054   0.002  0.00  0.00     0.009 A 
ATOM      3  N1  <0> d           1.148   3.128   0.007  0.00  0.00    -0.316 N 
ATOM      4  C4  <0> d           1.149   1.763   0.001  0.00  0.00    -0.014 A 
ATOM      5  C5  <0> d          -0.013   1.076   0.008  0.00  0.00    -0.067 A 
ATOM      6  C6  <0> d          -1.240   1.758   0.018  0.00  0.00    -0.078 A 
ATOM      7  C7  <0> d          -1.255   3.119   0.031  0.00  0.00    -0.038 A 
ATOM      8  C8  <0> d          -0.034   3.822   0.022  0.00  0.00     0.134 A 
ATOM      9  N2  <0> d           0.250   5.117   0.026  0.00  0.00    -0.234 NA
ATOM     10  H4  <0> d           3.216   3.848  -0.009  0.00  0.00     0.115 H 
ATOM     11  H5  <0> d           2.087   1.229  -0.011  0.00  0.00     0.112 H 
ATOM     12  H6  <0> d           0.002  -0.004   0.002  0.00  0.00     0.085 H 
ATOM     13  H7  <0> d          -2.168   1.206   0.019  0.00  0.00     0.083 H 
ATOM     14  H8  <0> d          -2.193   3.654   0.042  0.00  0.00     0.089 H 
ENDROOT
BRANCH   1  15
ATOM     15  C1  <0> d           2.304   6.594   0.014  0.00  0.00    -0.034 C 
ATOM     16  H1  <0> d           2.490   6.907   1.041  0.00  0.00     0.035 H 
ATOM     17  H2  <0> d           3.254   6.484  -0.510  0.00  0.00     0.035 H 
ATOM     18  H3  <0> d           1.696   7.345  -0.491  0.00  0.00     0.035 H 
ENDBRANCH   1  15
TORSDOF 1
