REMARK  1 active torsions:
REMARK  status: ('A' for Active; 'I' for Inactive)
REMARK    1  A    between atoms: C1_1  and  C2_2 
ROOT
ATOM      1  C2  <0> d           0.002  -0.004   0.002  0.00  0.00     0.091 A 
ATOM      2  C3  <0> d           1.464  -0.387  -0.014  0.00  0.00    -0.077 A 
ATOM      3  C4  <0> d           2.183   0.722  -0.015  0.00  0.00    -0.074 A 
ATOM      4  C5  <0> d           1.317   1.915  -0.000  0.00  0.00    -0.028 A 
ATOM      5  C6  <0> d          -0.018   1.505   0.010  0.00  0.00    -0.022 A 
ATOM      6  C7  <0> d          -1.033   2.433   0.030  0.00  0.00    -0.074 A 
ATOM      7  C8  <0> d          -0.734   3.785   0.030  0.00  0.00    -0.082 A 
ATOM      8  C9  <0> d           0.585   4.204   0.020  0.00  0.00    -0.082 A 
ATOM      9  C10 <0> d           1.610   3.281   0.005  0.00  0.00    -0.072 A 
ATOM     10  C11 <0> d          -0.649  -0.529   1.213  0.00  0.00     0.078 C 
ATOM     11  N1  <0> d          -1.151  -0.934   2.148  0.00  0.00    -0.196 NA
ATOM     12  H4  <0> d           1.854  -1.394  -0.023  0.00  0.00     0.080 H 
ATOM     13  H5  <0> d           3.262   0.750  -0.025  0.00  0.00     0.084 H 
ATOM     14  H6  <0> d          -2.063   2.107   0.042  0.00  0.00     0.084 H 
ATOM     15  H7  <0> d          -1.531   4.514   0.041  0.00  0.00     0.083 H 
ATOM     16  H8  <0> d           0.813   5.260   0.024  0.00  0.00     0.083 H 
ATOM     17  H9  <0> d           2.637   3.614  -0.003  0.00  0.00     0.084 H 
ENDROOT
BRANCH   1  18
ATOM     18  C1  <0> d          -0.699  -0.536  -1.250  0.00  0.00    -0.050 C 
ATOM     19  H1  <0> d          -0.185  -0.168  -2.138  0.00  0.00     0.030 H 
ATOM     20  H2  <0> d          -0.676  -1.626  -1.243  0.00  0.00     0.030 H 
ATOM     21  H3  <0> d          -1.733  -0.194  -1.260  0.00  0.00     0.030 H 
ENDBRANCH   1  18
TORSDOF 1
