REMARK  3 active torsions:
REMARK  status: ('A' for Active; 'I' for Inactive)
REMARK    1  A    between atoms: C1_1  and  C2_2 
REMARK    2  A    between atoms: C3_3  and  C6_8 
REMARK    3  A    between atoms: N1_5  and  C5_7 
REMARK       I    between atoms: C6_8  and  N3_10 
ROOT
ATOM      1  C2  <0> d           0.002  -0.004   0.002  0.00  0.00     0.068 A 
ATOM      2  C3  <0> d           0.008  -0.828  -1.146  0.00  0.00     0.074 A 
ATOM      3  C4  <0> d           0.028  -2.137  -0.708  0.00  0.00     0.015 A 
ATOM      4  N1  <0> d           0.034  -2.111   0.635  0.00  0.00    -0.284 N 
ATOM      5  N2  <0> d           0.023  -0.776   1.053  0.00  0.00    -0.177 NA
ATOM      6  H4  <0> d           0.037  -3.019  -1.330  0.00  0.00     0.115 H 
ENDROOT
BRANCH   2   7
ATOM      7  C6  <0> d          -0.005  -0.375  -2.549  0.00  0.00     0.252 C 
ATOM      8  O1  <0> d          -0.022   0.814  -2.803  0.00  0.00    -0.268 OA
ATOM      9  N3  <0> d           0.003  -1.278  -3.549  0.00  0.00    -0.366 N 
ATOM     10  H8  <0> d           0.017  -2.226  -3.346  0.00  0.00     0.159 HD
ATOM     11  H9  <0> d          -0.005  -0.980  -4.472  0.00  0.00     0.159 HD
ENDBRANCH   2   7
BRANCH   1  12
ATOM     12  C1  <0> d          -0.018   1.503   0.010  0.00  0.00    -0.033 C 
ATOM     13  H1  <0> d           1.004   1.880   0.003  0.00  0.00     0.035 H 
ATOM     14  H2  <0> d          -0.545   1.864  -0.873  0.00  0.00     0.035 H 
ATOM     15  H3  <0> d          -0.529   1.854   0.907  0.00  0.00     0.035 H 
ENDBRANCH   1  12
BRANCH   4  16
ATOM     16  C5  <0> d           0.055  -3.284   1.513  0.00  0.00     0.002 C 
ATOM     17  H5  <0> d           1.087  -3.560   1.726  0.00  0.00     0.059 H 
ATOM     18  H6  <0> d          -0.458  -3.048   2.446  0.00  0.00     0.059 H 
ATOM     19  H7  <0> d          -0.450  -4.115   1.021  0.00  0.00     0.059 H 
ENDBRANCH   4  16
TORSDOF 3
