REMARK  1 active torsions:
REMARK  status: ('A' for Active; 'I' for Inactive)
REMARK    1  A    between atoms: C3_6  and  N3_10 
ROOT
ATOM      1  C1  <0> d          -3.577   2.945   0.035  0.00  0.00     0.240 A 
ATOM      2  C2  <0> d          -2.378   3.670   0.033  0.00  0.00     0.303 A 
ATOM      3  O1  <0> d          -2.391   4.891   0.040  0.00  0.00    -0.264 OA
ATOM      4  N1  <0> d          -1.209   2.995   0.030  0.00  0.00    -0.152 N 
ATOM      5  H1  <0> d          -0.257   3.545   0.037  0.00  0.00     0.188 HD
ATOM      6  C3  <0> d          -1.207   1.635   0.017  0.00  0.00     0.703 A 
ATOM      7  N2  <0> d          -2.330   0.948   0.018  0.00  0.00    -0.034 NA
ATOM      8  C4  <0> d          -3.518   1.562   0.027  0.00  0.00     0.262 A 
ATOM      9  O2  <0> d          -4.659   0.833   0.028  0.00  0.00    -0.166 OA
ATOM     10  F1  <0> d          -4.768   3.583   0.044  0.00  0.00    -0.195 F 
ENDROOT
BRANCH   6  11
ATOM     11  N3  <0> d          -0.011   0.966   0.007  0.00  0.00    -0.233 N 
ATOM     12  H2  <0> d           0.004  -0.134  -0.003  0.00  0.00     0.174 HD
ATOM     13  H3  <0> d           0.934   1.529   0.010  0.00  0.00     0.174 HD
ENDBRANCH   6  11
TORSDOF 1
