REMARK  4 active torsions:
REMARK  status: ('A' for Active; 'I' for Inactive)
REMARK    1  A    between atoms: C1_1  and  C2_2 
REMARK    2  A    between atoms: C2_2  and  C3_3 
REMARK    3  A    between atoms: C3_3  and  C4_5 
REMARK    4  A    between atoms: C3_3  and  C5_6 
ROOT
ATOM      1  C5  <0> d          -2.158   0.989  -1.270  0.00  0.00     0.007 C 
ATOM      2  H2  <0> d          -2.100  -0.002  -1.390  0.00  0.00     0.052 H 
ATOM      3  C6  <0> d          -0.750   1.591  -1.233  0.00  0.00    -0.055 C 
ATOM      4  C7  <0> d          -0.013   1.086   0.008  0.00  0.00    -0.064 C 
ATOM      5  C8  <0> d          -0.726   1.578   1.269  0.00  0.00    -0.059 C 
ATOM      6  C9  <0> d          -2.132   0.975   1.328  0.00  0.00    -0.009 C 
ATOM      7  C10 <0> d          -2.850   1.306   0.038  0.00  0.00     0.131 C 
ATOM      8  O1  <0> d          -3.948   1.809   0.052  0.00  0.00    -0.298 OA
ATOM      9  H11 <0> d          -0.820   2.678  -1.197  0.00  0.00     0.034 H 
ATOM     10  H12 <0> d          -0.203   1.292  -2.128  0.00  0.00     0.034 H 
ATOM     11  H13 <0> d           0.002  -0.004   0.002  0.00  0.00     0.033 H 
ATOM     12  H14 <0> d           1.010   1.462   0.000  0.00  0.00     0.033 H 
ATOM     13  H15 <0> d          -0.162   1.268   2.149  0.00  0.00     0.033 H 
ATOM     14  H16 <0> d          -0.796   2.665   1.246  0.00  0.00     0.033 H 
ATOM     15  H17 <0> d          -2.628   1.361   2.106  0.00  0.00     0.044 H 
ATOM     16  H18 <0> d          -2.063  -0.107   1.441  0.00  0.00     0.044 H 
ENDROOT
BRANCH   1  17
ATOM     17  C3  <0> d          -2.948   1.599  -2.429  0.00  0.00    -0.048 C 
ATOM     18  H1  <0> d          -3.019   2.678  -2.293  0.00  0.00     0.040 H 
BRANCH  17  19
ATOM     19  C2  <0> d          -2.233   1.297  -3.748  0.00  0.00    -0.065 C 
ATOM     20  H6  <0> d          -1.203   1.649  -3.691  0.00  0.00     0.033 H 
ATOM     21  H7  <0> d          -2.240   0.222  -3.927  0.00  0.00     0.033 H 
BRANCH  19  22
ATOM     22  C1  <0> d          -2.953   2.010  -4.894  0.00  0.00    -0.076 C 
ATOM     23  H3  <0> d          -2.443   1.795  -5.833  0.00  0.00     0.027 H 
ATOM     24  H4  <0> d          -3.983   1.659  -4.950  0.00  0.00     0.027 H 
ATOM     25  H5  <0> d          -2.946   3.085  -4.714  0.00  0.00     0.027 H 
ENDBRANCH  19  22
ENDBRANCH  17  19
BRANCH  17  26
ATOM     26  C4  <0> d          -4.354   0.995  -2.462  0.00  0.00    -0.072 C 
ATOM     27  H8  <0> d          -4.863   1.210  -1.523  0.00  0.00     0.028 H 
ATOM     28  H9  <0> d          -4.916   1.430  -3.288  0.00  0.00     0.028 H 
ATOM     29  H10 <0> d          -4.283  -0.084  -2.598  0.00  0.00     0.028 H 
ENDBRANCH  17  26
ENDBRANCH   1  17
TORSDOF 4
