REMARK  2 active torsions:
REMARK  status: ('A' for Active; 'I' for Inactive)
REMARK    1  A    between atoms: C1_1  and  C2_2 
REMARK    2  A    between atoms: C4_4  and  C7_10 
ROOT
ATOM      1  C2  <0> d           0.002  -0.004   0.002  0.00  0.00     0.035 A 
ATOM      2  C3  <0> d           0.006  -0.700  -1.199  0.00  0.00    -0.036 A 
ATOM      3  C4  <0> d           0.025  -2.087  -1.161  0.00  0.00     0.035 A 
ATOM      4  N1  <0> d           0.039  -2.700   0.009  0.00  0.00    -0.225 NA
ATOM      5  C5  <0> d           0.035  -2.005   1.138  0.00  0.00     0.232 A 
ATOM      6  N2  <0> d           0.022  -0.679   1.138  0.00  0.00    -0.225 NA
ATOM      7  C6  <0> d           0.050  -2.703   2.389  0.00  0.00     0.141 C 
ATOM      8  N3  <0> d           0.062  -3.257   3.380  0.00  0.00    -0.188 NA
ATOM      9  H4  <0> d          -0.006  -0.173  -2.142  0.00  0.00     0.089 H 
ENDROOT
BRANCH   3  10
ATOM     10  C7  <0> d           0.029  -2.885  -2.440  0.00  0.00    -0.035 C 
ATOM     11  H5  <0> d           1.058  -3.063  -2.753  0.00  0.00     0.035 H 
ATOM     12  H6  <0> d          -0.471  -3.839  -2.275  0.00  0.00     0.035 H 
ATOM     13  H7  <0> d          -0.496  -2.329  -3.217  0.00  0.00     0.035 H 
ENDBRANCH   3  10
BRANCH   1  14
ATOM     14  C1  <0> d          -0.018   1.503   0.010  0.00  0.00    -0.035 C 
ATOM     15  H1  <0> d           1.004   1.880   0.003  0.00  0.00     0.035 H 
ATOM     16  H2  <0> d          -0.545   1.864  -0.873  0.00  0.00     0.035 H 
ATOM     17  H3  <0> d          -0.529   1.854   0.907  0.00  0.00     0.035 H 
ENDBRANCH   1  14
TORSDOF 2
