REMARK  4 active torsions:
REMARK  status: ('A' for Active; 'I' for Inactive)
REMARK    1  A    between atoms: C1_1  and  C2_2 
REMARK    2  A    between atoms: C3_3  and  C6_9 
REMARK    3  A    between atoms: C4_4  and  N3_8 
REMARK    4  A    between atoms: N1_5  and  C5_7 
REMARK       I    between atoms: C6_9  and  N4_11 
ROOT
ATOM      1  C2  <0> d          -2.033   2.352  -1.113  0.00  0.00     0.070 A 
ATOM      2  C3  <0> d          -1.295   1.929   0.019  0.00  0.00     0.102 A 
ATOM      3  C4  <0> d          -2.014   2.328   1.144  0.00  0.00     0.135 A 
ATOM      4  N1  <0> d          -3.125   2.952   0.704  0.00  0.00    -0.258 N 
ATOM      5  N2  <0> d          -3.112   2.949  -0.695  0.00  0.00    -0.175 NA
ENDROOT
BRANCH   2   6
ATOM      6  C6  <0> d          -0.014   1.213   0.009  0.00  0.00     0.255 C 
ATOM      7  O1  <0> d           0.002  -0.004   0.002  0.00  0.00    -0.268 OA
ATOM      8  N4  <0> d           1.143   1.902   0.001  0.00  0.00    -0.366 N 
ATOM      9  H9  <0> d           2.103   1.365  -0.006  0.00  0.00     0.159 HD
ATOM     10  H10 <0> d           1.129   3.002   0.003  0.00  0.00     0.159 HD
ENDBRANCH   2   6
BRANCH   1  11
ATOM     11  C1  <0> d          -1.639   2.144  -2.552  0.00  0.00    -0.033 C 
ATOM     12  H1  <0> d          -0.678   1.610  -2.596  0.00  0.00     0.035 H 
ATOM     13  H2  <0> d          -1.539   3.120  -3.050  0.00  0.00     0.035 H 
ATOM     14  H3  <0> d          -2.412   1.550  -3.062  0.00  0.00     0.035 H 
ENDBRANCH   1  11
BRANCH   3  15
ATOM     15  N3  <0> d          -1.655   2.122   2.461  0.00  0.00    -0.383 N 
ATOM     16  H7  <0> d          -2.305   2.484   3.271  0.00  0.00     0.157 HD
ATOM     17  H8  <0> d          -0.719   1.597   2.700  0.00  0.00     0.157 HD
ENDBRANCH   3  15
BRANCH   4  18
ATOM     18  C5  <0> d          -4.170   3.535   1.550  0.00  0.00     0.004 C 
ATOM     19  H4  <0> d          -4.953   3.975   0.914  0.00  0.00     0.059 H 
ATOM     20  H5  <0> d          -3.732   4.317   2.187  0.00  0.00     0.059 H 
ATOM     21  H6  <0> d          -4.610   2.750   2.182  0.00  0.00     0.059 H 
ENDBRANCH   4  18
TORSDOF 4
