REMARK  7 active torsions:
REMARK  status: ('A' for Active; 'I' for Inactive)
REMARK    1  A    between atoms: C1_1  and  C2_2 
REMARK    2  A    between atoms: C2_2  and  C3_3 
REMARK    3  A    between atoms: C3_3  and  C4_4 
REMARK    4  A    between atoms: C4_4  and  C5_5 
REMARK    5  A    between atoms: C6_6  and  C7_7 
REMARK    6  A    between atoms: C7_7  and  C8_8 
REMARK    7  A    between atoms: C8_8  and  O1_9 
ROOT
ATOM      1  C4  <0> d          -0.811   1.565   1.320  0.00  0.00    -0.050 C 
ATOM      2  H8  <0> d          -0.674   2.642   1.219  0.00  0.00     0.038 H 
ATOM      3  H9  <0> d          -1.872   1.343   1.437  0.00  0.00     0.038 H 
ENDROOT
BRANCH   1   4
ATOM      4  C3  <0> d          -0.278   0.864   0.069  0.00  0.00    -0.062 C 
ATOM      5  H6  <0> d          -0.414  -0.212   0.170  0.00  0.00     0.033 H 
ATOM      6  H7  <0> d           0.783   1.086  -0.048  0.00  0.00     0.033 H 
BRANCH   4   7
ATOM      7  C2  <0> d          -1.041   1.363  -1.160  0.00  0.00    -0.068 C 
ATOM      8  H4  <0> d          -2.102   1.140  -1.043  0.00  0.00     0.032 H 
ATOM      9  H5  <0> d          -0.905   2.439  -1.261  0.00  0.00     0.032 H 
BRANCH   7  10
ATOM     10  C1  <0> d          -0.508   0.661  -2.411  0.00  0.00    -0.077 C 
ATOM     11  H1  <0> d          -1.052   1.016  -3.286  0.00  0.00     0.027 H 
ATOM     12  H2  <0> d           0.553   0.883  -2.527  0.00  0.00     0.027 H 
ATOM     13  H3  <0> d          -0.645  -0.415  -2.310  0.00  0.00     0.027 H 
ENDBRANCH   7  10
ENDBRANCH   4   7
ENDBRANCH   1   4
BRANCH   1  14
ATOM     14  C5  <0> d          -0.059   1.075   2.530  0.00  0.00    -0.106 C 
ATOM     15  C6  <0> d           0.494   1.933   3.350  0.00  0.00    -0.105 C 
ATOM     16  H11 <0> d           1.134   1.584   4.147  0.00  0.00     0.076 H 
ATOM     17  H10 <0> d           0.024   0.015   2.721  0.00  0.00     0.076 H 
BRANCH  15  18
ATOM     18  C7  <0> d           0.238   3.409   3.182  0.00  0.00    -0.030 C 
ATOM     19  H12 <0> d           1.164   3.908   2.895  0.00  0.00     0.042 H 
ATOM     20  H13 <0> d          -0.512   3.561   2.405  0.00  0.00     0.042 H 
BRANCH  18  21
ATOM     21  C8  <0> d          -0.269   3.992   4.502  0.00  0.00     0.020 C 
ATOM     22  H14 <0> d          -1.194   3.493   4.788  0.00  0.00     0.074 H 
ATOM     23  H15 <0> d           0.482   3.840   5.278  0.00  0.00     0.074 H 
BRANCH  21  24
ATOM     24  O1  <0> d          -0.511   5.391   4.342  0.00  0.00    -0.401 OA
ATOM     25  H16 <0> d          -0.836   5.828   5.142  0.00  0.00     0.209 HD
ENDBRANCH  21  24
ENDBRANCH  18  21
ENDBRANCH  15  18
ENDBRANCH   1  14
TORSDOF 7
