REMARK  1 active torsions:
REMARK  status: ('A' for Active; 'I' for Inactive)
REMARK    1  A    between atoms: C2_2  and  C4_7 
ROOT
ATOM      1  C1  <0> d           1.065   2.297   0.004  0.00  0.00     0.036 A 
ATOM      2  C2  <0> d          -0.018   1.462   0.010  0.00  0.00     0.128 A 
ATOM      3  N1  <0> d          -1.135   2.275   0.019  0.00  0.00    -0.344 N 
ATOM      4  H1  <0> d          -2.089   1.976   0.019  0.00  0.00     0.167 HD
ATOM      5  C3  <0> d          -0.696   3.547   0.027  0.00  0.00     0.064 A 
ATOM      6  N2  <0> d           0.613   3.550   0.015  0.00  0.00    -0.254 NA
ATOM      7  H2  <0> d           2.102   1.994  -0.007  0.00  0.00     0.118 H 
ATOM      8  H3  <0> d          -1.324   4.425   0.037  0.00  0.00     0.143 H 
ENDROOT
BRANCH   2   9
ATOM      9  C4  <0> d           0.002  -0.004   0.002  0.00  0.00     0.228 C 
ATOM     10  O1  <0> d           1.063  -0.598  -0.011  0.00  0.00    -0.643 OA
ATOM     11  O2  <0> d          -1.157  -0.694   0.009  0.00  0.00    -0.643 OA
ENDBRANCH   2   9
TORSDOF 1
