REMARK  1 active torsions:
REMARK  status: ('A' for Active; 'I' for Inactive)
REMARK    1  A    between atoms: C6_6  and  N1_7 
ROOT
ATOM      1  C1  <0> d          -0.017   1.384   0.010  0.00  0.00    -0.055 A 
ATOM      2  C2  <0> d           1.170   2.088   0.002  0.00  0.00    -0.048 A 
ATOM      3  C3  <0> d           2.386   1.413  -0.012  0.00  0.00     0.075 A 
ATOM      4  C4  <0> d           2.405   0.029  -0.016  0.00  0.00    -0.022 A 
ATOM      5  C5  <0> d           1.215  -0.678  -0.011  0.00  0.00    -0.049 A 
ATOM      6  C6  <0> d           0.002  -0.004   0.002  0.00  0.00     0.026 A 
ATOM      7  C7  <0> d           3.703  -0.739  -0.020  0.00  0.00    -0.036 C 
ATOM      8  C8  <0> d           4.845   0.180  -0.463  0.00  0.00    -0.041 C 
ATOM      9  C9  <0> d           4.748   1.487   0.335  0.00  0.00     0.026 C 
ATOM     10  O1  <0> d           3.532   2.145  -0.025  0.00  0.00    -0.351 OA
ATOM     11  H1  <0> d          -0.959   1.912   0.026  0.00  0.00     0.087 H 
ATOM     12  H2  <0> d           1.155   3.168   0.007  0.00  0.00     0.087 H 
ATOM     13  H3  <0> d           1.230  -1.758  -0.018  0.00  0.00     0.087 H 
ATOM     14  H6  <0> d           3.906  -1.113   0.983  0.00  0.00     0.040 H 
ATOM     15  H7  <0> d           3.625  -1.579  -0.711  0.00  0.00     0.040 H 
ATOM     16  H8  <0> d           5.802  -0.302  -0.263  0.00  0.00     0.036 H 
ATOM     17  H9  <0> d           4.754   0.392  -1.528  0.00  0.00     0.036 H 
ATOM     18  H10 <0> d           4.744   1.266   1.402  0.00  0.00     0.075 H 
ATOM     19  H11 <0> d           5.597   2.127   0.095  0.00  0.00     0.075 H 
ENDROOT
BRANCH   6  20
ATOM     20  N1  <0> d          -1.199  -0.722   0.007  0.00  0.00    -0.399 N 
ATOM     21  H4  <0> d          -2.046  -0.250   0.017  0.00  0.00     0.156 HD
ATOM     22  H5  <0> d          -1.185  -1.692   0.002  0.00  0.00     0.156 HD
ENDBRANCH   6  20
TORSDOF 1
