REMARK  6 active torsions:
REMARK  status: ('A' for Active; 'I' for Inactive)
REMARK    1  A    between atoms: C1_1  and  C2_2 
REMARK    2  A    between atoms: C2_2  and  C3_4 
REMARK    3  A    between atoms: C2_2  and  C4_6 
REMARK    4  A    between atoms: C4_6  and  C5_7 
REMARK    5  A    between atoms: C4_6  and  C6_8 
REMARK    6  A    between atoms: C4_6  and  C7_9 
ROOT
ATOM      1  C4  <0> d          -1.329   1.940   0.019  0.00  0.00     0.054 C 
ENDROOT
BRANCH   1   2
ATOM      2  C2  <0> d          -2.479   0.930   0.019  0.00  0.00     0.043 C 
ATOM      3  H1  <0> d          -2.408   0.299   0.905  0.00  0.00     0.058 H 
BRANCH   2   4
ATOM      4  C1  <0> d          -2.392   0.058  -1.236  0.00  0.00    -0.062 C 
ATOM      5  H2  <0> d          -2.462   0.689  -2.122  0.00  0.00     0.028 H 
ATOM      6  H3  <0> d          -1.440  -0.474  -1.243  0.00  0.00     0.028 H 
ATOM      7  H4  <0> d          -3.211  -0.661  -1.236  0.00  0.00     0.028 H 
ENDBRANCH   2   4
BRANCH   2   8
ATOM      8  C3  <0> d          -3.794   1.665   0.029  0.00  0.00     0.177 C 
ATOM      9  O1  <0> d          -3.810   2.874   0.036  0.00  0.00    -0.648 OA
ATOM     10  O3  <0> d          -4.947   0.979   0.031  0.00  0.00    -0.648 OA
ENDBRANCH   2   8
ENDBRANCH   1   2
BRANCH   1  11
ATOM     11  C5  <0> d          -1.417   2.811   1.273  0.00  0.00    -0.059 C 
ATOM     12  H5  <0> d          -0.598   3.531   1.273  0.00  0.00     0.029 H 
ATOM     13  H6  <0> d          -2.368   3.344   1.281  0.00  0.00     0.029 H 
ATOM     14  H7  <0> d          -1.346   2.181   2.160  0.00  0.00     0.029 H 
ENDBRANCH   1  11
BRANCH   1  15
ATOM     15  C6  <0> d          -1.428   2.825  -1.225  0.00  0.00    -0.059 C 
ATOM     16  H8  <0> d          -1.366   2.204  -2.119  0.00  0.00     0.029 H 
ATOM     17  H9  <0> d          -2.380   3.357  -1.218  0.00  0.00     0.029 H 
ATOM     18  H10 <0> d          -0.610   3.545  -1.225  0.00  0.00     0.029 H 
ENDBRANCH   1  15
BRANCH   1  19
ATOM     19  C7  <0> d          -0.014   1.204   0.009  0.00  0.00     0.182 C 
ATOM     20  O2  <0> d           0.002  -0.004   0.002  0.00  0.00    -0.647 OA
ATOM     21  O4  <0> d           1.139   1.891   0.001  0.00  0.00    -0.647 OA
ENDBRANCH   1  19
TORSDOF 6
