REMARK  5 active torsions:
REMARK  status: ('A' for Active; 'I' for Inactive)
REMARK    1  A    between atoms: C1_1  and  O1_2 
REMARK    2  A    between atoms: O1_2  and  C2_3 
REMARK    3  A    between atoms: C6_7  and  O3_11 
REMARK    4  A    between atoms: C7_8  and  O2_9 
REMARK    5  A    between atoms: O2_9  and  C8_10 
ROOT
ATOM      1  C2  <0> d           2.401   0.022  -0.020  0.00  0.00     0.104 A 
ATOM      2  C3  <0> d           1.206  -0.682  -0.013  0.00  0.00    -0.048 A 
ATOM      3  C4  <0> d           0.002  -0.004   0.002  0.00  0.00    -0.077 A 
ATOM      4  C5  <0> d          -0.017   1.378   0.010  0.00  0.00    -0.048 A 
ATOM      5  C6  <0> d           1.173   2.090   0.002  0.00  0.00     0.101 A 
ATOM      6  C7  <0> d           2.386   1.411  -0.013  0.00  0.00     0.134 A 
ATOM      7  H4  <0> d           1.216  -1.762  -0.018  0.00  0.00     0.087 H 
ATOM      8  H5  <0> d          -0.927  -0.555   0.008  0.00  0.00     0.083 H 
ATOM      9  H6  <0> d          -0.960   1.905   0.017  0.00  0.00     0.087 H 
ENDROOT
BRANCH   1  10
ATOM     10  O1  <0> d           3.585  -0.647  -0.034  0.00  0.00    -0.353 OA
BRANCH  10  11
ATOM     11  C1  <0> d           3.524  -2.075  -0.040  0.00  0.00     0.010 C 
ATOM     12  H1  <0> d           3.003  -2.420   0.853  0.00  0.00     0.066 H 
ATOM     13  H2  <0> d           2.987  -2.412  -0.927  0.00  0.00     0.066 H 
ATOM     14  H3  <0> d           4.535  -2.481  -0.051  0.00  0.00     0.066 H 
ENDBRANCH  10  11
ENDBRANCH   1  10
BRANCH   6  15
ATOM     15  O2  <0> d           3.557   2.106  -0.021  0.00  0.00    -0.351 OA
BRANCH  15  16
ATOM     16  C8  <0> d           4.103   2.443  -1.297  0.00  0.00     0.011 C 
ATOM     17  H7  <0> d           4.300   1.531  -1.861  0.00  0.00     0.067 H 
ATOM     18  H8  <0> d           3.392   3.062  -1.845  0.00  0.00     0.067 H 
ATOM     19  H9  <0> d           5.033   2.994  -1.160  0.00  0.00     0.067 H 
ENDBRANCH  15  16
ENDBRANCH   6  15
BRANCH   5  20
ATOM     20  O3  <0> d           1.154   3.449   0.009  0.00  0.00    -0.358 OA
ATOM     21  H10 <0> d           1.157   3.838   0.894  0.00  0.00     0.217 HD
ENDBRANCH   5  20
TORSDOF 5
