REMARK  2 active torsions:
REMARK  status: ('A' for Active; 'I' for Inactive)
REMARK    1  A    between atoms: C1_1  and  C2_2 
REMARK    2  A    between atoms: C7_8  and  O1_11 
ROOT
ATOM      1  C2  <0> d          -0.718   1.572   1.248  0.00  0.00     0.049 A 
ATOM      2  C3  <0> d          -0.132   1.836   2.437  0.00  0.00     0.010 A 
ATOM      3  N1  <0> d          -1.117   2.251   3.290  0.00  0.00    -0.313 N 
ATOM      4  C4  <0> d          -1.101   2.643   4.599  0.00  0.00    -0.014 A 
ATOM      5  C5  <0> d          -2.240   3.013   5.221  0.00  0.00    -0.065 A 
ATOM      6  C6  <0> d          -3.462   3.000   4.530  0.00  0.00    -0.046 A 
ATOM      7  C7  <0> d          -3.495   2.610   3.223  0.00  0.00     0.112 A 
ATOM      8  C8  <0> d          -2.292   2.226   2.587  0.00  0.00     0.167 A 
ATOM      9  N2  <0> d          -2.025   1.819   1.354  0.00  0.00    -0.232 NA
ATOM     10  H4  <0> d           0.919   1.739   2.669  0.00  0.00     0.115 H 
ATOM     11  H5  <0> d          -0.167   2.657   5.141  0.00  0.00     0.112 H 
ATOM     12  H6  <0> d          -2.211   3.320   6.256  0.00  0.00     0.085 H 
ATOM     13  H7  <0> d          -4.372   3.297   5.031  0.00  0.00     0.087 H 
ENDROOT
BRANCH   1  14
ATOM     14  C1  <0> d          -0.013   1.086   0.008  0.00  0.00    -0.034 C 
ATOM     15  H1  <0> d           0.002  -0.004   0.002  0.00  0.00     0.035 H 
ATOM     16  H2  <0> d           1.010   1.463   0.000  0.00  0.00     0.035 H 
ATOM     17  H3  <0> d          -0.540   1.447  -0.875  0.00  0.00     0.035 H 
ENDBRANCH   1  14
BRANCH   7  18
ATOM     18  O1  <0> d          -4.670   2.593   2.540  0.00  0.00    -0.357 OA
ATOM     19  H8  <0> d          -4.876   3.424   2.090  0.00  0.00     0.218 HD
ENDBRANCH   7  18
TORSDOF 2
