REMARK  0 active torsions:
REMARK  status: ('A' for Active; 'I' for Inactive)
ROOT
ATOM      1  C1  <0> d           0.350  -0.478  -1.418  0.00  0.00    -0.046 A 
ATOM      2  C2  <0> d           1.721  -1.095  -1.339  0.00  0.00    -0.106 A 
ATOM      3  C3  <0> d           2.207  -1.042  -0.137  0.00  0.00    -0.101 A 
ATOM      4  C4  <0> d           1.262  -0.378   0.828  0.00  0.00    -0.024 A 
ATOM      5  H1  <0> d           1.026  -1.016   1.680  0.00  0.00     0.048 H 
ATOM      6  C5  <0> d           0.002  -0.004   0.002  0.00  0.00    -0.040 A 
ATOM      7  H2  <0> d          -0.914  -0.444   0.396  0.00  0.00     0.042 H 
ATOM      8  C6  <0> d          -0.019   1.554   0.011  0.00  0.00    -0.043 C 
ATOM      9  H3  <0> d          -0.617   2.029  -0.767  0.00  0.00     0.041 H 
ATOM     10  C7  <0> d           1.519   1.868  -0.002  0.00  0.00    -0.051 C 
ATOM     11  C8  <0> d           1.868   0.994   1.253  0.00  0.00     0.011 C 
ATOM     12  H4  <0> d           2.820   0.866   1.532  0.00  0.00     0.052 H 
ATOM     13  C9  <0> d           0.877   1.555   2.282  0.00  0.00     0.132 C 
ATOM     14  O1  <0> d           1.048   1.677   3.471  0.00  0.00    -0.298 OA
ATOM     15  C10 <0> d          -0.365   1.926   1.485  0.00  0.00    -0.006 C 
ATOM     16  H5  <0> d          -0.375  -1.220  -1.752  0.00  0.00     0.039 H 
ATOM     17  H6  <0> d           0.361   0.370  -2.103  0.00  0.00     0.039 H 
ATOM     18  H7  <0> d           2.238  -1.529  -2.182  0.00  0.00     0.076 H 
ATOM     19  H8  <0> d           3.177  -1.429   0.139  0.00  0.00     0.077 H 
ATOM     20  H9  <0> d           2.005   1.500  -0.906  0.00  0.00     0.034 H 
ATOM     21  H10 <0> d           1.723   2.925   0.165  0.00  0.00     0.034 H 
ATOM     22  H11 <0> d          -0.574   2.903   1.543  0.00  0.00     0.044 H 
ATOM     23  H12 <0> d          -1.223   1.350   1.831  0.00  0.00     0.044 H 
ENDROOT
TORSDOF 0
