REMARK  2 active torsions:
REMARK  status: ('A' for Active; 'I' for Inactive)
REMARK    1  A    between atoms: C1_1  and  N1_2 
REMARK    2  A    between atoms: C7_8  and  O1_9 
ROOT
ATOM      1  N1  <0> d           0.002  -0.004   0.002  0.00  0.00    -0.271 N 
ATOM      2  C2  <0> d           0.008  -0.804  -1.113  0.00  0.00     0.097 A 
ATOM      3  C3  <0> d           0.029  -2.133  -0.654  0.00  0.00     0.014 A 
ATOM      4  C4  <0> d           0.039  -3.185  -1.581  0.00  0.00    -0.069 A 
ATOM      5  C5  <0> d           0.029  -2.914  -2.918  0.00  0.00    -0.079 A 
ATOM      6  C6  <0> d           0.008  -1.603  -3.377  0.00  0.00    -0.049 A 
ATOM      7  C7  <0> d          -0.002  -0.548  -2.486  0.00  0.00     0.094 A 
ATOM      8  C8  <0> d           0.035  -2.080   0.760  0.00  0.00     0.034 A 
ATOM      9  N2  <0> d           0.025  -0.832   1.131  0.00  0.00    -0.184 NA
ATOM     10  H4  <0> d           0.055  -4.208  -1.237  0.00  0.00     0.085 H 
ATOM     11  H5  <0> d           0.037  -3.728  -3.628  0.00  0.00     0.083 H 
ATOM     12  H6  <0> d           0.001  -1.407  -4.439  0.00  0.00     0.087 H 
ATOM     13  H8  <0> d           0.049  -2.933   1.423  0.00  0.00     0.118 H 
ENDROOT
BRANCH   1  14
ATOM     14  C1  <0> d          -0.018   1.461   0.010  0.00  0.00     0.003 C 
ATOM     15  H1  <0> d           1.005   1.838   0.002  0.00  0.00     0.059 H 
ATOM     16  H2  <0> d          -0.545   1.822  -0.873  0.00  0.00     0.059 H 
ATOM     17  H3  <0> d          -0.528   1.812   0.907  0.00  0.00     0.059 H 
ENDBRANCH   1  14
BRANCH   7  18
ATOM     18  O1  <0> d          -0.022   0.732  -2.943  0.00  0.00    -0.358 OA
ATOM     19  H7  <0> d           0.855   1.115  -3.079  0.00  0.00     0.217 HD
ENDBRANCH   7  18
TORSDOF 2
