REMARK  2 active torsions:
REMARK  status: ('A' for Active; 'I' for Inactive)
REMARK    1  A    between atoms: C1_1  and  N1_2 
REMARK    2  A    between atoms: C4_5  and  C7_10 
ROOT
ATOM      1  N1  <0> d           0.883  -0.508   1.048  0.00  0.00    -0.356 N 
ATOM      2  C2  <0> d           0.002  -0.004   0.002  0.00  0.00    -0.002 C 
ATOM      3  C3  <0> d          -0.019   1.525   0.010  0.00  0.00    -0.037 C 
ATOM      4  C4  <0> d           1.427   2.036  -0.001  0.00  0.00     0.040 C 
ATOM      5  H1  <0> d           1.987   1.595  -0.839  0.00  0.00     0.057 H 
ATOM      6  C5  <0> d           2.081   1.666   1.333  0.00  0.00     0.022 C 
ATOM      7  C6  <0> d           1.833   0.217   1.640  0.00  0.00     0.220 C 
ATOM      8  O1  <0> d           2.533  -0.322   2.470  0.00  0.00    -0.273 OA
ATOM      9  H5  <0> d           0.361  -0.351  -0.978  0.00  0.00     0.064 H 
ATOM     10  H6  <0> d          -1.019  -0.376   0.171  0.00  0.00     0.064 H 
ATOM     11  H7  <0> d          -0.551   1.889  -0.881  0.00  0.00     0.036 H 
ATOM     12  H8  <0> d          -0.534   1.880   0.915  0.00  0.00     0.036 H 
ATOM     13  H9  <0> d           3.165   1.843   1.271  0.00  0.00     0.048 H 
ATOM     14  H10 <0> d           1.654   2.285   2.135  0.00  0.00     0.048 H 
ENDROOT
BRANCH   1  15
ATOM     15  C1  <0> d           0.714  -1.899   1.477  0.00  0.00    -0.016 C 
ATOM     16  H2  <0> d          -0.101  -2.363   0.902  0.00  0.00     0.056 H 
ATOM     17  H3  <0> d           0.469  -1.925   2.549  0.00  0.00     0.056 H 
ATOM     18  H4  <0> d           1.649  -2.452   1.301  0.00  0.00     0.056 H 
ENDBRANCH   1  15
BRANCH   4  19
ATOM     19  C7  <0> d           1.435   3.533  -0.172  0.00  0.00     0.177 C 
ATOM     20  O2  <0> d           0.393   4.135  -0.275  0.00  0.00    -0.648 OA
ATOM     21  O3  <0> d           2.600   4.198  -0.210  0.00  0.00    -0.648 OA
ENDBRANCH   4  19
TORSDOF 2
