REMARK  2 active torsions:
REMARK  status: ('A' for Active; 'I' for Inactive)
REMARK    1  A    between atoms: C1_1  and  C2_2 
REMARK    2  A    between atoms: C4_6  and  C7_10 
ROOT
ATOM      1  C2  <0> d           0.002  -0.004   0.002  0.00  0.00    -0.024 A 
ATOM      2  C3  <0> d           0.009  -0.804  -1.079  0.00  0.00    -0.016 A 
ATOM      3  N1  <0> d           0.029  -2.104  -0.666  0.00  0.00    -0.368 N 
ATOM      4  H1  <0> d           0.037  -2.874  -1.256  0.00  0.00     0.165 HD
ATOM      5  C4  <0> d           0.035  -2.166   0.681  0.00  0.00     0.026 A 
ATOM      6  C5  <0> d           0.025  -0.889   1.171  0.00  0.00     0.074 A 
ATOM      7  C6  <0> d           0.032  -0.496   2.548  0.00  0.00     0.102 C 
ATOM      8  N2  <0> d           0.038  -0.184   3.640  0.00  0.00    -0.191 NA
ATOM      9  H5  <0> d          -0.001  -0.472  -2.107  0.00  0.00     0.112 H 
ENDROOT
BRANCH   1  10
ATOM     10  C1  <0> d          -0.018   1.503   0.010  0.00  0.00    -0.048 C 
ATOM     11  H2  <0> d           1.004   1.880   0.003  0.00  0.00     0.033 H 
ATOM     12  H3  <0> d          -0.545   1.864  -0.873  0.00  0.00     0.033 H 
ATOM     13  H4  <0> d          -0.529   1.854   0.907  0.00  0.00     0.033 H 
ENDBRANCH   1  10
BRANCH   5  14
ATOM     14  C7  <0> d           0.057  -3.427   1.506  0.00  0.00    -0.036 C 
ATOM     15  H6  <0> d           1.090  -3.716   1.701  0.00  0.00     0.035 H 
ATOM     16  H7  <0> d          -0.456  -3.251   2.452  0.00  0.00     0.035 H 
ATOM     17  H8  <0> d          -0.448  -4.225   0.963  0.00  0.00     0.035 H 
ENDBRANCH   5  14
TORSDOF 2
