REMARK  3 active torsions:
REMARK  status: ('A' for Active; 'I' for Inactive)
REMARK    1  A    between atoms: C1_1  and  C2_2 
REMARK    2  A    between atoms: C4_4  and  N2_10 
REMARK    3  A    between atoms: C5_5  and  N1_9 
ROOT
ATOM      1  C2  <0> d          -1.230   2.405   0.021  0.00  0.00    -0.038 A 
ATOM      2  C3  <0> d          -1.255   3.788   0.034  0.00  0.00    -0.048 A 
ATOM      3  C4  <0> d          -0.067   4.503   0.027  0.00  0.00     0.052 A 
ATOM      4  C5  <0> d           1.151   3.824   0.012  0.00  0.00     0.053 A 
ATOM      5  C6  <0> d           1.169   2.438   0.004  0.00  0.00    -0.034 A 
ATOM      6  C7  <0> d          -0.021   1.732   0.012  0.00  0.00     0.042 A 
ATOM      7 Cl1  <0> d           0.002  -0.004   0.002  0.00  0.00    -0.084 Cl
ATOM      8  H4  <0> d          -2.200   4.311   0.046  0.00  0.00     0.087 H 
ATOM      9  H5  <0> d           2.110   1.910  -0.007  0.00  0.00     0.089 H 
ENDROOT
BRANCH   1  10
ATOM     10  C1  <0> d          -2.522   1.630   0.022  0.00  0.00    -0.050 C 
ATOM     11  H1  <0> d          -2.829   1.437   1.050  0.00  0.00     0.033 H 
ATOM     12  H2  <0> d          -3.294   2.209  -0.485  0.00  0.00     0.033 H 
ATOM     13  H3  <0> d          -2.378   0.683  -0.498  0.00  0.00     0.033 H 
ENDBRANCH   1  10
BRANCH   3  14
ATOM     14  N2  <0> d          -0.091   5.904   0.035  0.00  0.00    -0.397 N 
ATOM     15  H8  <0> d           0.741   6.403   0.030  0.00  0.00     0.156 HD
ATOM     16  H9  <0> d          -0.939   6.374   0.046  0.00  0.00     0.156 HD
ENDBRANCH   3  14
BRANCH   4  17
ATOM     17  N1  <0> d           2.354   4.541   0.004  0.00  0.00    -0.397 N 
ATOM     18  H6  <0> d           3.201   4.068  -0.006  0.00  0.00     0.156 HD
ATOM     19  H7  <0> d           2.341   5.511   0.010  0.00  0.00     0.156 HD
ENDBRANCH   4  17
TORSDOF 3
