REMARK  3 active torsions:
REMARK  status: ('A' for Active; 'I' for Inactive)
REMARK    1  A    between atoms: C1_1  and  C2_2 
REMARK    2  A    between atoms: C2_2  and  C3_3 
REMARK    3  A    between atoms: C2_2  and  C5_6 
ROOT
ATOM      1  C2  <0> d           0.002  -0.004   0.002  0.00  0.00     0.069 C 
ATOM      2  C4  <0> d           0.714  -0.492   1.195  0.00  0.00     0.073 C 
ATOM      3  N1  <0> d           1.263  -0.868   2.115  0.00  0.00    -0.196 NA
ENDROOT
BRANCH   1   4
ATOM      4  C1  <0> d          -1.433  -0.534   0.013  0.00  0.00    -0.053 C 
ATOM      5  H1  <0> d          -1.960  -0.173  -0.870  0.00  0.00     0.030 H 
ATOM      6  H2  <0> d          -1.419  -1.623   0.007  0.00  0.00     0.030 H 
ATOM      7  H3  <0> d          -1.944  -0.182   0.910  0.00  0.00     0.030 H 
ENDBRANCH   1   4
BRANCH   1   8
ATOM      8  C3  <0> d           0.718  -0.497  -1.257  0.00  0.00    -0.053 C 
ATOM      9  H4  <0> d           1.741  -0.120  -1.264  0.00  0.00     0.030 H 
ATOM     10  H5  <0> d           0.733  -1.587  -1.263  0.00  0.00     0.030 H 
ATOM     11  H6  <0> d           0.191  -0.136  -2.140  0.00  0.00     0.030 H 
ENDBRANCH   1   8
BRANCH   1  12
ATOM     12  C5  <0> d          -0.018   1.503   0.010  0.00  0.00    -0.036 A 
ATOM     13  C10 <0> d           1.169   2.210   0.003  0.00  0.00    -0.075 A 
ATOM     14  C9  <0> d           1.151   3.592   0.010  0.00  0.00    -0.082 A 
ATOM     15  H11 <0> d           2.112   1.683  -0.009  0.00  0.00     0.084 H 
ATOM     16  C8  <0> d          -0.056   4.267   0.025  0.00  0.00    -0.083 A 
ATOM     17  H10 <0> d           2.078   4.145   0.004  0.00  0.00     0.083 H 
ATOM     18  C7  <0> d          -1.244   3.560   0.032  0.00  0.00    -0.082 A 
ATOM     19  H9  <0> d          -0.070   5.347   0.031  0.00  0.00     0.083 H 
ATOM     20  C6  <0> d          -1.225   2.178   0.020  0.00  0.00    -0.075 A 
ATOM     21  H8  <0> d          -2.186   4.087   0.044  0.00  0.00     0.083 H 
ATOM     22  H7  <0> d          -2.153   1.625   0.021  0.00  0.00     0.084 H 
ENDBRANCH   1  12
TORSDOF 3
