REMARK  4 active torsions:
REMARK  status: ('A' for Active; 'I' for Inactive)
REMARK    1  A    between atoms: C3_3  and  C8_9 
REMARK    2  A    between atoms: C6_6  and  C7_7 
REMARK    3  A    between atoms: C7_7  and  O1_8 
REMARK    4  A    between atoms: C8_9  and  O2_10 
ROOT
ATOM      1  C1  <0> d           0.478   3.544  -1.291  0.00  0.00    -0.059 C 
ATOM      2  C2  <0> d           0.337   5.067  -1.281  0.00  0.00    -0.059 C 
ATOM      3  C3  <0> d           1.722   5.707  -1.165  0.00  0.00    -0.034 C 
ATOM      4  C4  <0> d           2.388   5.249   0.133  0.00  0.00    -0.059 C 
ATOM      5  C5  <0> d           2.530   3.725   0.124  0.00  0.00    -0.059 C 
ATOM      6  C6  <0> d           1.145   3.085   0.008  0.00  0.00    -0.034 C 
ATOM      7  H1  <0> d           1.091   3.241  -2.140  0.00  0.00     0.033 H 
ATOM      8  H2  <0> d          -0.508   3.088  -1.373  0.00  0.00     0.033 H 
ATOM      9  H3  <0> d          -0.276   5.370  -0.432  0.00  0.00     0.033 H 
ATOM     10  H4  <0> d          -0.138   5.394  -2.207  0.00  0.00     0.033 H 
ATOM     11  H5  <0> d           2.334   5.404  -2.015  0.00  0.00     0.043 H 
ATOM     12  H6  <0> d           1.776   5.551   0.983  0.00  0.00     0.033 H 
ATOM     13  H7  <0> d           3.375   5.705   0.216  0.00  0.00     0.033 H 
ATOM     14  H8  <0> d           3.005   3.399   1.049  0.00  0.00     0.033 H 
ATOM     15  H9  <0> d           3.142   3.422  -0.726  0.00  0.00     0.033 H 
ATOM     16  H10 <0> d           0.532   3.388   0.857  0.00  0.00     0.043 H 
ENDROOT
BRANCH   3  17
ATOM     17  C8  <0> d           1.580   7.231  -1.156  0.00  0.00     0.020 C 
ATOM     18  H14 <0> d           0.896   7.527  -0.360  0.00  0.00     0.074 H 
ATOM     19  H15 <0> d           2.556   7.685  -0.984  0.00  0.00     0.074 H 
BRANCH  17  20
ATOM     20  O2  <0> d           1.065   7.669  -2.415  0.00  0.00    -0.400 OA
ATOM     21  H16 <0> d           0.949   8.627  -2.480  0.00  0.00     0.209 HD
ENDBRANCH  17  20
ENDBRANCH   3  17
BRANCH   6  22
ATOM     22  C7  <0> d           1.286   1.562  -0.002  0.00  0.00     0.020 C 
ATOM     23  H11 <0> d           1.840   1.243   0.881  0.00  0.00     0.074 H 
ATOM     24  H12 <0> d           1.823   1.252  -0.899  0.00  0.00     0.074 H 
BRANCH  22  25
ATOM     25  O1  <0> d          -0.011   0.963   0.007  0.00  0.00    -0.400 OA
ATOM     26  H13 <0> d           0.002  -0.004   0.002  0.00  0.00     0.209 HD
ENDBRANCH  22  25
ENDBRANCH   6  22
TORSDOF 4
