REMARK  7 active torsions:
REMARK  status: ('A' for Active; 'I' for Inactive)
REMARK    1  A    between atoms: C1_1  and  C2_2 
REMARK    2  A    between atoms: C2_2  and  C3_3 
REMARK    3  A    between atoms: C3_3  and  C4_5 
REMARK    4  A    between atoms: C3_3  and  C5_6 
REMARK    5  A    between atoms: C5_6  and  C6_8 
REMARK    6  A    between atoms: C5_6  and  C8_10 
REMARK    7  A    between atoms: C6_8  and  C7_9 
REMARK       I    between atoms: C8_10  and  N1_12 
ROOT
ATOM      1  C5  <0> d          -0.734   1.594   1.292  0.00  0.00     0.026 C 
ATOM      2  H2  <0> d          -0.875   2.674   1.244  0.00  0.00     0.055 H 
ENDROOT
BRANCH   1   3
ATOM      3  C3  <0> d          -2.095   0.908   1.428  0.00  0.00    -0.046 C 
ATOM      4  H1  <0> d          -1.950  -0.161   1.584  0.00  0.00     0.040 H 
BRANCH   3   5
ATOM      5  C2  <0> d          -2.847   1.500   2.623  0.00  0.00    -0.065 C 
ATOM      6  H6  <0> d          -2.229   1.420   3.517  0.00  0.00     0.033 H 
ATOM      7  H7  <0> d          -3.071   2.549   2.428  0.00  0.00     0.033 H 
BRANCH   5   8
ATOM      8  C1  <0> d          -4.153   0.731   2.835  0.00  0.00    -0.076 C 
ATOM      9  H3  <0> d          -4.688   1.153   3.686  0.00  0.00     0.027 H 
ATOM     10  H4  <0> d          -4.771   0.811   1.941  0.00  0.00     0.027 H 
ATOM     11  H5  <0> d          -3.929  -0.318   3.030  0.00  0.00     0.027 H 
ENDBRANCH   5   8
ENDBRANCH   3   5
BRANCH   3  12
ATOM     12  C4  <0> d          -2.909   1.132   0.152  0.00  0.00    -0.072 C 
ATOM     13  H8  <0> d          -3.843   0.573   0.214  0.00  0.00     0.028 H 
ATOM     14  H9  <0> d          -3.128   2.194   0.042  0.00  0.00     0.028 H 
ATOM     15  H10 <0> d          -2.336   0.789  -0.709  0.00  0.00     0.028 H 
ENDBRANCH   3  12
ENDBRANCH   1   3
BRANCH   1  16
ATOM     16  C6  <0> d          -0.046   1.111   0.014  0.00  0.00    -0.057 C 
ATOM     17  H11 <0> d           0.957   1.534  -0.040  0.00  0.00     0.033 H 
ATOM     18  H12 <0> d          -0.623   1.434  -0.853  0.00  0.00     0.033 H 
BRANCH  16  19
ATOM     19  C7  <0> d           0.043  -0.416   0.028  0.00  0.00    -0.076 C 
ATOM     20  H13 <0> d           0.456  -0.764  -0.919  0.00  0.00     0.027 H 
ATOM     21  H14 <0> d           0.691  -0.734   0.845  0.00  0.00     0.027 H 
ATOM     22  H15 <0> d          -0.952  -0.837   0.168  0.00  0.00     0.027 H 
ENDBRANCH  16  19
ENDBRANCH   1  16
BRANCH   1  23
ATOM     23  C8  <0> d           0.122   1.251   2.484  0.00  0.00     0.219 C 
ATOM     24  O1  <0> d          -0.313   0.530   3.356  0.00  0.00    -0.273 OA
ATOM     25  N1  <0> d           1.372   1.746   2.580  0.00  0.00    -0.370 N 
ATOM     26  H16 <0> d           1.720   2.323   1.882  0.00  0.00     0.159 HD
ATOM     27  H17 <0> d           1.923   1.526   3.347  0.00  0.00     0.159 HD
ENDBRANCH   1  23
TORSDOF 7
