REMARK  4 active torsions:
REMARK  status: ('A' for Active; 'I' for Inactive)
REMARK    1  A    between atoms: C2_2  and  C3_3 
REMARK    2  A    between atoms: C3_3  and  O1_4 
REMARK    3  A    between atoms: O1_4  and  C4_5 
REMARK    4  A    between atoms: C8_9  and  N1_11 
ROOT
ATOM      1  C4  <0> d           1.228  -2.068  -0.020  0.00  0.00     0.071 A 
ATOM      2  C5  <0> d           0.033  -2.774  -0.012  0.00  0.00    -0.051 A 
ATOM      3  C6  <0> d          -1.172  -2.097   0.003  0.00  0.00    -0.078 A 
ATOM      4  C7  <0> d          -1.191  -0.716   0.015  0.00  0.00    -0.058 A 
ATOM      5  C8  <0> d           0.002  -0.004   0.002  0.00  0.00     0.028 A 
ATOM      6  C9  <0> d           1.213  -0.683  -0.013  0.00  0.00    -0.026 A 
ATOM      7  H6  <0> d           0.044  -3.854  -0.018  0.00  0.00     0.087 H 
ATOM      8  H7  <0> d          -2.100  -2.649   0.009  0.00  0.00     0.083 H 
ATOM      9  H8  <0> d          -2.134  -0.189   0.031  0.00  0.00     0.086 H 
ATOM     10  H9  <0> d           2.142  -0.132  -0.020  0.00  0.00     0.091 H 
ENDROOT
BRANCH   1  11
ATOM     11  O1  <0> d           2.411  -2.736  -0.035  0.00  0.00    -0.347 OA
BRANCH  11  12
ATOM     12  C3  <0> d           2.351  -4.163  -0.041  0.00  0.00     0.040 C 
ATOM     13  H4  <0> d           1.831  -4.509   0.852  0.00  0.00     0.081 H 
ATOM     14  H5  <0> d           1.814  -4.500  -0.928  0.00  0.00     0.081 H 
BRANCH  12  15
ATOM     15  C2  <0> d           3.749  -4.725  -0.057  0.00  0.00    -0.089 C 
ATOM     16  C1  <0> d           4.066  -5.718   0.737  0.00  0.00    -0.123 C 
ATOM     17  H1  <0> d           3.324  -6.133   1.403  0.00  0.00     0.066 H 
ATOM     18  H2  <0> d           5.068  -6.120   0.726  0.00  0.00     0.066 H 
ATOM     19  H3  <0> d           4.491  -4.309  -0.724  0.00  0.00     0.078 H 
ENDBRANCH  12  15
ENDBRANCH  11  12
ENDBRANCH   1  11
BRANCH   5  20
ATOM     20  N1  <0> d          -0.017   1.393   0.010  0.00  0.00    -0.399 N 
ATOM     21  H10 <0> d           0.817   1.889   0.004  0.00  0.00     0.156 HD
ATOM     22  H11 <0> d          -0.863   1.866   0.016  0.00  0.00     0.156 HD
ENDBRANCH   5  20
TORSDOF 4
