REMARK  4 active torsions:
REMARK  status: ('A' for Active; 'I' for Inactive)
REMARK    1  A    between atoms: C3_3  and  O4_14 
REMARK    2  A    between atoms: C4_5  and  O3_13 
REMARK    3  A    between atoms: C5_7  and  O2_12 
REMARK    4  A    between atoms: C6_9  and  O1_11 
ROOT
ATOM      1  C1  <0> d          -0.018   1.496   0.010  0.00  0.00    -0.074 C 
ATOM      2  C2  <0> d           1.044   2.236   0.004  0.00  0.00    -0.074 C 
ATOM      3  C3  <0> d           2.444   1.697  -0.023  0.00  0.00     0.079 C 
ATOM      4  H1  <0> d           2.850   1.796  -1.029  0.00  0.00     0.093 H 
ATOM      5  C4  <0> d           2.448   0.221   0.383  0.00  0.00     0.091 C 
ATOM      6  H2  <0> d           2.221   0.133   1.445  0.00  0.00     0.091 H 
ATOM      7  C5  <0> d           1.378  -0.510  -0.437  0.00  0.00     0.091 C 
ATOM      8  H3  <0> d           1.448  -1.583  -0.257  0.00  0.00     0.091 H 
ATOM      9  C6  <0> d           0.002  -0.004   0.002  0.00  0.00     0.079 C 
ATOM     10  H4  <0> d          -0.216  -0.374   1.004  0.00  0.00     0.093 H 
ATOM     11  H5  <0> d          -0.979   1.990   0.027  0.00  0.00     0.080 H 
ATOM     12  H6  <0> d           0.914   3.308   0.019  0.00  0.00     0.080 H 
ENDROOT
BRANCH   3  13
ATOM     13  O4  <0> d           3.255   2.439   0.890  0.00  0.00    -0.389 OA
ATOM     14  H10 <0> d           3.308   3.383   0.691  0.00  0.00     0.210 HD
ENDBRANCH   3  13
BRANCH   5  15
ATOM     15  O3  <0> d           3.733  -0.346   0.118  0.00  0.00    -0.390 OA
ATOM     16  H9  <0> d           4.457   0.081   0.594  0.00  0.00     0.210 HD
ENDBRANCH   5  15
BRANCH   7  17
ATOM     17  O2  <0> d           1.571  -0.242  -1.827  0.00  0.00    -0.390 OA
ATOM     18  H8  <0> d           0.927  -0.675  -2.404  0.00  0.00     0.210 HD
ENDBRANCH   7  17
BRANCH   9  19
ATOM     19  O1  <0> d          -0.992  -0.486  -0.905  0.00  0.00    -0.389 OA
ATOM     20  H7  <0> d          -1.892  -0.213  -0.683  0.00  0.00     0.210 HD
ENDBRANCH   9  19
TORSDOF 4
