REMARK  5 active torsions:
REMARK  status: ('A' for Active; 'I' for Inactive)
REMARK    1  A    between atoms: C1_1  and  C2_2 
REMARK    2  A    between atoms: C2_2  and  C3_3 
REMARK    3  A    between atoms: C3_3  and  C4_4 
REMARK    4  A    between atoms: C5_6  and  C8_12 
REMARK    5  A    between atoms: C6_8  and  C7_11 
ROOT
ATOM      1  C4  <0> d          -0.013   1.086   0.008  0.00  0.00     0.132 C 
ATOM      2  O1  <0> d          -0.638   1.578  -1.189  0.00  0.00    -0.354 OA
ATOM      3  C5  <0> d           0.411   1.836  -2.140  0.00  0.00     0.062 C 
ATOM      4  H1  <0> d           0.404   2.885  -2.436  0.00  0.00     0.086 H 
ATOM      5  C6  <0> d           1.720   1.497  -1.395  0.00  0.00     0.062 C 
ATOM      6  H2  <0> d           2.047   0.484  -1.630  0.00  0.00     0.086 H 
ATOM      7  O2  <0> d           1.336   1.601  -0.002  0.00  0.00    -0.354 OA
ATOM      8  H10 <0> d           0.002  -0.004   0.002  0.00  0.00     0.129 H 
ENDROOT
BRANCH   1   9
ATOM      9  C3  <0> d          -0.761   1.595   1.242  0.00  0.00    -0.019 C 
ATOM     10  H8  <0> d          -0.206   1.325   2.140  0.00  0.00     0.040 H 
ATOM     11  H9  <0> d          -0.858   2.679   1.187  0.00  0.00     0.040 H 
BRANCH   9  12
ATOM     12  C2  <0> d          -2.152   0.960   1.292  0.00  0.00    -0.064 C 
ATOM     13  H6  <0> d          -2.707   1.230   0.394  0.00  0.00     0.032 H 
ATOM     14  H7  <0> d          -2.055  -0.124   1.348  0.00  0.00     0.032 H 
BRANCH  12  15
ATOM     15  C1  <0> d          -2.900   1.469   2.526  0.00  0.00    -0.076 C 
ATOM     16  H3  <0> d          -3.892   1.017   2.562  0.00  0.00     0.027 H 
ATOM     17  H4  <0> d          -2.345   1.199   3.425  0.00  0.00     0.027 H 
ATOM     18  H5  <0> d          -2.997   2.553   2.471  0.00  0.00     0.027 H 
ENDBRANCH  12  15
ENDBRANCH   9  12
ENDBRANCH   1   9
BRANCH   5  19
ATOM     19  C7  <0> d           2.817   2.509  -1.731  0.00  0.00    -0.050 C 
ATOM     20  H11 <0> d           3.701   2.302  -1.128  0.00  0.00     0.031 H 
ATOM     21  H12 <0> d           3.072   2.431  -2.788  0.00  0.00     0.031 H 
ATOM     22  H13 <0> d           2.459   3.517  -1.517  0.00  0.00     0.031 H 
ENDBRANCH   5  19
BRANCH   3  23
ATOM     23  C8  <0> d           0.249   0.935  -3.366  0.00  0.00    -0.050 C 
ATOM     24  H14 <0> d           0.218  -0.108  -3.050  0.00  0.00     0.031 H 
ATOM     25  H15 <0> d          -0.679   1.186  -3.881  0.00  0.00     0.031 H 
ATOM     26  H16 <0> d           1.091   1.085  -4.041  0.00  0.00     0.031 H 
ENDBRANCH   3  23
TORSDOF 5
