REMARK  3 active torsions:
REMARK  status: ('A' for Active; 'I' for Inactive)
REMARK    1  A    between atoms: C1_1  and  O1_2 
REMARK    2  A    between atoms: O1_2  and  C2_3 
REMARK    3  A    between atoms: C5_6  and  C8_9 
ROOT
ATOM      1  C8  <0> d           1.245  -2.115  -0.021  0.00  0.00    -0.078 C 
ATOM      2  C9  <0> d           1.264  -3.289  -0.027  0.00  0.00    -0.149 C 
ATOM      3  H8  <0> d           1.282  -4.339  -0.032  0.00  0.00     0.166 H 
ENDROOT
BRANCH   1   4
ATOM      4  C5  <0> d           1.221  -0.684  -0.013  0.00  0.00     0.017 A 
ATOM      5  C4  <0> d           0.002  -0.004   0.002  0.00  0.00    -0.062 A 
ATOM      6  C3  <0> d          -0.017   1.374   0.010  0.00  0.00    -0.049 A 
ATOM      7  H5  <0> d          -0.925  -0.557   0.008  0.00  0.00     0.085 H 
ATOM      8  C2  <0> d           1.175   2.087   0.002  0.00  0.00     0.068 A 
ATOM      9  H4  <0> d          -0.960   1.901   0.017  0.00  0.00     0.087 H 
ATOM     10  C7  <0> d           2.390   1.414  -0.013  0.00  0.00    -0.049 A 
ATOM     11  C6  <0> d           2.417   0.036  -0.021  0.00  0.00    -0.062 A 
ATOM     12  H7  <0> d           3.315   1.972  -0.019  0.00  0.00     0.087 H 
ATOM     13  H6  <0> d           3.362  -0.486  -0.032  0.00  0.00     0.085 H 
BRANCH   8  14
ATOM     14  O1  <0> d           1.153   3.445   0.010  0.00  0.00    -0.356 OA
BRANCH  14  15
ATOM     15  C1  <0> d           2.415   4.115   0.001  0.00  0.00     0.010 C 
ATOM     16  H1  <0> d           2.985   3.827   0.884  0.00  0.00     0.066 H 
ATOM     17  H2  <0> d           2.968   3.836  -0.896  0.00  0.00     0.066 H 
ATOM     18  H3  <0> d           2.254   5.193   0.009  0.00  0.00     0.066 H 
ENDBRANCH  14  15
ENDBRANCH   8  14
ENDBRANCH   1   4
TORSDOF 3
