REMARK  5 active torsions:
REMARK  status: ('A' for Active; 'I' for Inactive)
REMARK    1  A    between atoms: C1_1  and  C2_2 
REMARK    2  A    between atoms: C2_2  and  C3_3 
REMARK    3  A    between atoms: C3_3  and  C9_11 
REMARK    4  A    between atoms: C5_6  and  C7_9 
REMARK    5  A    between atoms: C5_6  and  C8_10 
ROOT
ATOM      1  C3  <0> d          -0.729   1.579   1.267  0.00  0.00     0.160 C 
ATOM      2  O1  <0> d          -0.748   3.009   1.275  0.00  0.00    -0.355 OA
ATOM      3  C4  <0> d           0.553   3.603   1.293  0.00  0.00     0.031 C 
ATOM      4  C5  <0> d           1.311   3.103   2.528  0.00  0.00    -0.004 C 
ATOM      5  C6  <0> d           1.312   1.571   2.521  0.00  0.00     0.031 C 
ATOM      6  O2  <0> d          -0.037   1.106   2.425  0.00  0.00    -0.355 OA
ATOM      7  H6  <0> d           0.458   4.688   1.337  0.00  0.00     0.075 H 
ATOM      8  H7  <0> d           1.097   3.319   0.392  0.00  0.00     0.075 H 
ATOM      9  H8  <0> d           1.760   1.202   3.444  0.00  0.00     0.075 H 
ATOM     10  H9  <0> d           1.885   1.208   1.668  0.00  0.00     0.075 H 
ENDROOT
BRANCH   1  11
ATOM     11  C2  <0> d          -2.164   1.050   1.278  0.00  0.00    -0.017 C 
ATOM     12  H4  <0> d          -2.150  -0.037   1.361  0.00  0.00     0.040 H 
ATOM     13  H5  <0> d          -2.701   1.472   2.127  0.00  0.00     0.040 H 
BRANCH  11  14
ATOM     14  C1  <0> d          -2.866   1.452  -0.021  0.00  0.00    -0.072 C 
ATOM     15  H1  <0> d          -2.880   2.539  -0.104  0.00  0.00     0.027 H 
ATOM     16  H2  <0> d          -2.329   1.029  -0.870  0.00  0.00     0.027 H 
ATOM     17  H3  <0> d          -3.889   1.075  -0.013  0.00  0.00     0.027 H 
ENDBRANCH  11  14
ENDBRANCH   1  11
BRANCH   1  18
ATOM     18  C9  <0> d          -0.013   1.086   0.008  0.00  0.00    -0.025 C 
ATOM     19  H16 <0> d           0.002  -0.004   0.002  0.00  0.00     0.035 H 
ATOM     20  H17 <0> d           1.010   1.463   0.000  0.00  0.00     0.035 H 
ATOM     21  H18 <0> d          -0.540   1.447  -0.875  0.00  0.00     0.035 H 
ENDBRANCH   1  18
BRANCH   4  22
ATOM     22  C7  <0> d           0.618   3.610   3.794  0.00  0.00    -0.065 C 
ATOM     23  H10 <0> d           1.152   3.244   4.672  0.00  0.00     0.028 H 
ATOM     24  H11 <0> d           0.618   4.700   3.797  0.00  0.00     0.028 H 
ATOM     25  H12 <0> d          -0.409   3.247   3.817  0.00  0.00     0.028 H 
ENDBRANCH   4  22
BRANCH   4  26
ATOM     26  C8  <0> d           2.752   3.618   2.488  0.00  0.00    -0.065 C 
ATOM     27  H13 <0> d           3.240   3.259   1.582  0.00  0.00     0.028 H 
ATOM     28  H14 <0> d           2.749   4.707   2.493  0.00  0.00     0.028 H 
ATOM     29  H15 <0> d           3.292   3.252   3.361  0.00  0.00     0.028 H 
ENDBRANCH   4  26
TORSDOF 5
