REMARK  4 active torsions:
REMARK  status: ('A' for Active; 'I' for Inactive)
REMARK    1  A    between atoms: C1_1  and  C2_2 
REMARK    2  A    between atoms: C2_2  and  O1_3 
REMARK    3  A    between atoms: O1_3  and  C3_4 
REMARK    4  A    between atoms: C3_4  and  C4_5 
ROOT
ATOM      1  O1  <0> d          -2.074   1.394   1.279  0.00  0.00    -0.322 OA
ENDROOT
BRANCH   1   2
ATOM      2  C2  <0> d          -2.834   1.799   2.419  0.00  0.00     0.023 C 
ATOM      3  H4  <0> d          -2.350   1.436   3.326  0.00  0.00     0.074 H 
ATOM      4  H5  <0> d          -2.892   2.887   2.449  0.00  0.00     0.074 H 
BRANCH   2   5
ATOM      5  C1  <0> d          -4.245   1.215   2.324  0.00  0.00    -0.056 C 
ATOM      6  H1  <0> d          -4.825   1.524   3.194  0.00  0.00     0.030 H 
ATOM      7  H2  <0> d          -4.729   1.578   1.417  0.00  0.00     0.030 H 
ATOM      8  H3  <0> d          -4.187   0.127   2.295  0.00  0.00     0.030 H 
ENDBRANCH   2   5
ENDBRANCH   1   2
BRANCH   1   9
ATOM      9  C3  <0> d          -0.733   1.888   1.268  0.00  0.00     0.413 C 
ATOM     10  F3  <0> d          -0.056   1.425   2.402  0.00  0.00    -0.169 F 
ATOM     11  F4  <0> d          -0.752   3.287   1.276  0.00  0.00    -0.169 F 
BRANCH   9  12
ATOM     12  C4  <0> d          -0.017   1.395   0.010  0.00  0.00     0.296 C 
ATOM     13  F1  <0> d           0.002  -0.004   0.002  0.00  0.00    -0.205 F 
ATOM     14  F2  <0> d           1.296   1.879  -0.000  0.00  0.00    -0.205 F 
ATOM     15  H6  <0> d          -0.544   1.756  -0.873  0.00  0.00     0.159 H 
ENDBRANCH   9  12
ENDBRANCH   1   9
TORSDOF 4
