REMARK  3 active torsions:
REMARK  status: ('A' for Active; 'I' for Inactive)
REMARK    1  A    between atoms: C1_1  and  N1_2 
REMARK    2  A    between atoms: C4_6  and  C5_7 
REMARK    3  A    between atoms: C5_7  and  C6_8 
ROOT
ATOM      1  N1  <0> d          -0.016   1.346   0.009  0.00  0.00    -0.348 N 
ATOM      2  C2  <0> d           1.286   1.769  -0.001  0.00  0.00    -0.003 A 
ATOM      3  C3  <0> d           2.054   0.663  -0.014  0.00  0.00     0.019 A 
ATOM      4  N2  <0> d           1.244  -0.406  -0.012  0.00  0.00    -0.245 NA
ATOM      5  C4  <0> d           0.002  -0.004   0.002  0.00  0.00     0.115 A 
ATOM      6  H4  <0> d           1.630   2.792   0.001  0.00  0.00     0.113 H 
ATOM      7  H5  <0> d           3.134   0.641  -0.025  0.00  0.00     0.117 H 
ENDROOT
BRANCH   5   8
ATOM      8  C5  <0> d          -1.210  -0.899   0.009  0.00  0.00     0.070 C 
ATOM      9  H6  <0> d          -0.969  -1.833   0.516  0.00  0.00     0.060 H 
ATOM     10  H7  <0> d          -2.026  -0.401   0.534  0.00  0.00     0.060 H 
BRANCH   8  11
ATOM     11  C6  <0> d          -1.629  -1.190  -1.409  0.00  0.00     0.179 C 
ATOM     12  O1  <0> d          -1.007  -0.719  -2.331  0.00  0.00    -0.648 OA
ATOM     13  O2  <0> d          -2.693  -1.972  -1.647  0.00  0.00    -0.648 OA
ENDBRANCH   8  11
ENDBRANCH   5   8
BRANCH   1  14
ATOM     14  C1  <0> d          -1.207   2.199   0.020  0.00  0.00    -0.013 C 
ATOM     15  H1  <0> d          -1.497   2.405   1.050  0.00  0.00     0.057 H 
ATOM     16  H2  <0> d          -0.987   3.137  -0.490  0.00  0.00     0.057 H 
ATOM     17  H3  <0> d          -2.023   1.690  -0.493  0.00  0.00     0.057 H 
ENDBRANCH   1  14
TORSDOF 3
