REMARK  0 active torsions:
REMARK  status: ('A' for Active; 'I' for Inactive)
ROOT
ATOM      1  C1  <0> d           1.235  -0.637  -0.014  0.00  0.00    -0.065 A 
ATOM      2  C2  <0> d           0.002  -0.004   0.002  0.00  0.00    -0.064 A 
ATOM      3  C3  <0> d          -0.017   1.390   0.010  0.00  0.00     0.056 A 
ATOM      4  C4  <0> d           1.189   2.095   0.002  0.00  0.00     0.051 A 
ATOM      5  N1  <0> d           2.335   1.448  -0.014  0.00  0.00    -0.264 NA
ATOM      6  C5  <0> d           2.387   0.129  -0.022  0.00  0.00     0.003 A 
ATOM      7  C6  <0> d           1.153   3.602   0.013  0.00  0.00    -0.009 C 
ATOM      8  C7  <0> d          -0.055   4.099  -0.777  0.00  0.00     0.001 C 
ATOM      9  N2  <0> d          -1.282   3.445  -0.328  0.00  0.00    -0.356 N 
ATOM     10  C8  <0> d          -1.288   2.143   0.020  0.00  0.00     0.253 C 
ATOM     11  O1  <0> d          -2.325   1.597   0.340  0.00  0.00    -0.268 OA
ATOM     12  H1  <0> d           1.296  -1.715  -0.021  0.00  0.00     0.085 H 
ATOM     13  H2  <0> d          -0.916  -0.573   0.009  0.00  0.00     0.085 H 
ATOM     14  H3  <0> d           3.349  -0.362  -0.035  0.00  0.00     0.114 H 
ATOM     15  H4  <0> d           1.083   3.954   1.042  0.00  0.00     0.044 H 
ATOM     16  H5  <0> d           2.066   3.989  -0.440  0.00  0.00     0.044 H 
ATOM     17  H6  <0> d          -0.153   5.176  -0.640  0.00  0.00     0.064 H 
ATOM     18  H7  <0> d           0.097   3.885  -1.835  0.00  0.00     0.064 H 
ATOM     19  H8  <0> d          -2.105   3.956  -0.282  0.00  0.00     0.162 HD
ENDROOT
TORSDOF 0
