REMARK  3 active torsions:
REMARK  status: ('A' for Active; 'I' for Inactive)
REMARK    1  A    between atoms: C2_2  and  C3_3 
REMARK    2  A    between atoms: C3_3  and  C4_5 
REMARK    3  A    between atoms: C3_3  and  O1_11 
ROOT
ATOM      1  C4  <0> d           1.171   2.086   0.002  0.00  0.00    -0.026 A 
ATOM      2  C5  <0> d          -0.017   1.378   0.010  0.00  0.00    -0.074 A 
ATOM      3  C6  <0> d           0.002  -0.004   0.002  0.00  0.00    -0.082 A 
ATOM      4  C7  <0> d           1.208  -0.679  -0.014  0.00  0.00    -0.083 A 
ATOM      5  C8  <0> d           2.396   0.029  -0.021  0.00  0.00    -0.082 A 
ATOM      6  C9  <0> d           2.377   1.411  -0.014  0.00  0.00    -0.074 A 
ATOM      7  H5  <0> d          -0.959   1.905   0.017  0.00  0.00     0.084 H 
ATOM      8  H6  <0> d          -0.926  -0.557   0.008  0.00  0.00     0.083 H 
ATOM      9  H7  <0> d           1.223  -1.759  -0.020  0.00  0.00     0.083 H 
ATOM     10  H8  <0> d           3.339  -0.499  -0.033  0.00  0.00     0.083 H 
ATOM     11  H9  <0> d           3.305   1.963  -0.019  0.00  0.00     0.084 H 
ENDROOT
BRANCH   1  12
ATOM     12  C3  <0> d           1.151   3.592   0.010  0.00  0.00     0.076 C 
ATOM     13  H1  <0> d           0.218   3.941   0.455  0.00  0.00     0.097 H 
BRANCH  12  14
ATOM     14  C2  <0> d           1.254   4.104  -1.404  0.00  0.00    -0.081 C 
ATOM     15  C1  <0> d           0.298   4.846  -1.904  0.00  0.00    -0.122 C 
ATOM     16  H2  <0> d          -0.565   5.093  -1.302  0.00  0.00     0.066 H 
ATOM     17  H3  <0> d           0.372   5.213  -2.917  0.00  0.00     0.066 H 
ATOM     18  H4  <0> d           2.117   3.857  -2.005  0.00  0.00     0.080 H 
ENDBRANCH  12  14
BRANCH  12  19
ATOM     19  O1  <0> d           2.255   4.080   0.775  0.00  0.00    -0.387 OA
ATOM     20  H10 <0> d           3.119   3.808   0.436  0.00  0.00     0.210 HD
ENDBRANCH  12  19
ENDBRANCH   1  12
TORSDOF 3
