REMARK  2 active torsions:
REMARK  status: ('A' for Active; 'I' for Inactive)
REMARK    1  A    between atoms: C3_3  and  C6_9 
REMARK    2  A    between atoms: C4_5  and  O1_8 
REMARK       I    between atoms: C6_9  and  N1_11 
ROOT
ATOM      1  C1  <0> d          -0.019   1.538   0.011  0.00  0.00    -0.062 C 
ATOM      2  C2  <0> d           1.477   1.939  -0.002  0.00  0.00    -0.051 C 
ATOM      3  C3  <0> d           2.107   0.881  -0.942  0.00  0.00     0.048 C 
ATOM      4  H1  <0> d           1.946   1.155  -1.985  0.00  0.00     0.058 H 
ATOM      5  C4  <0> d           1.353  -0.422  -0.604  0.00  0.00     0.047 C 
ATOM      6  H2  <0> d           1.923  -1.005   0.120  0.00  0.00     0.084 H 
ATOM      7  C5  <0> d           0.002  -0.004   0.002  0.00  0.00    -0.040 C 
ATOM      8  H3  <0> d          -0.505   1.908   0.913  0.00  0.00     0.033 H 
ATOM      9  H4  <0> d          -0.522   1.918  -0.878  0.00  0.00     0.033 H 
ATOM     10  H5  <0> d           1.606   2.942  -0.408  0.00  0.00     0.034 H 
ATOM     11  H6  <0> d           1.904   1.868   0.999  0.00  0.00     0.034 H 
ATOM     12  H7  <0> d          -0.084  -0.384   1.020  0.00  0.00     0.036 H 
ATOM     13  H8  <0> d          -0.815  -0.385  -0.610  0.00  0.00     0.036 H 
ENDROOT
BRANCH   3  14
ATOM     14  C6  <0> d           3.579   0.732  -0.658  0.00  0.00     0.222 C 
ATOM     15  O2  <0> d           4.020  -0.336  -0.287  0.00  0.00    -0.273 OA
ATOM     16  N1  <0> d           4.406   1.784  -0.816  0.00  0.00    -0.370 N 
ATOM     17  H10 <0> d           4.053   2.638  -1.113  0.00  0.00     0.159 HD
ATOM     18  H11 <0> d           5.354   1.688  -0.633  0.00  0.00     0.159 HD
ENDBRANCH   3  14
BRANCH   5  19
ATOM     19  O1  <0> d           1.143  -1.188  -1.792  0.00  0.00    -0.395 OA
ATOM     20  H9  <0> d           0.673  -2.021  -1.644  0.00  0.00     0.210 HD
ENDBRANCH   5  19
TORSDOF 2
