REMARK  1 active torsions:
REMARK  status: ('A' for Active; 'I' for Inactive)
REMARK    1  A    between atoms: C5_5  and  C9_9 
ROOT
ATOM      1  C1  <0> d          -0.016   1.310   0.009  0.00  0.00    -0.082 A 
ATOM      2  C2  <0> d           1.216   2.107   0.002  0.00  0.00    -0.082 A 
ATOM      3  C3  <0> d           2.407   1.554  -0.013  0.00  0.00    -0.071 A 
ATOM      4  C4  <0> d           2.532   0.085  -0.022  0.00  0.00    -0.009 A 
ATOM      5  C5  <0> d           3.244  -1.017  -0.035  0.00  0.00     0.052 A 
ATOM      6  C6  <0> d           2.006  -1.818  -0.027  0.00  0.00    -0.055 A 
ATOM      7  C7  <0> d           1.291  -0.719  -0.014  0.00  0.00    -0.024 A 
ATOM      8  C8  <0> d           0.002  -0.004   0.002  0.00  0.00    -0.072 A 
ATOM      9  H1  <0> d          -0.968   1.819   0.026  0.00  0.00     0.083 H 
ATOM     10  H2  <0> d           1.140   3.185   0.008  0.00  0.00     0.083 H 
ATOM     11  H3  <0> d           3.292   2.173  -0.019  0.00  0.00     0.084 H 
ATOM     12  H4  <0> d           1.782  -2.875  -0.031  0.00  0.00     0.086 H 
ATOM     13  H5  <0> d          -0.925  -0.558   0.008  0.00  0.00     0.084 H 
ENDROOT
BRANCH   5  14
ATOM     14  C9  <0> d           4.684  -1.326  -0.051  0.00  0.00     0.210 C 
ATOM     15  O1  <0> d           5.501  -0.422  -0.055  0.00  0.00    -0.644 OA
ATOM     16  O2  <0> d           5.058  -2.486  -0.061  0.00  0.00    -0.644 OA
ENDBRANCH   5  14
TORSDOF 1
