REMARK  1 active torsions:
REMARK  status: ('A' for Active; 'I' for Inactive)
REMARK    1  A    between atoms: C2_2  and  C4_7 
ROOT
ATOM      1  C1  <0> d           0.986   3.710  -1.370  0.00  0.00     0.037 A 
ATOM      2  C2  <0> d           1.235   3.094   0.007  0.00  0.00     0.104 A 
ATOM      3  H1  <0> d           0.612   3.531   0.787  0.00  0.00     0.090 H 
ATOM      4  N1  <0> d           2.603   3.615   0.008  0.00  0.00    -0.346 N 
ATOM      5  C3  <0> d           2.411   4.167  -1.204  0.00  0.00     0.220 A 
ATOM      6  O1  <0> d           3.141   4.816  -1.923  0.00  0.00    -0.274 OA
ATOM      7  H2  <0> d           0.837   2.982  -2.168  0.00  0.00     0.051 H 
ATOM      8  H3  <0> d           0.253   4.516  -1.376  0.00  0.00     0.051 H 
ATOM      9  H4  <0> d           3.346   3.577   0.630  0.00  0.00     0.163 HD
ENDROOT
BRANCH   2  10
ATOM     10  C4  <0> d           1.177   1.588  -0.001  0.00  0.00     0.197 C 
ATOM     11  O2  <0> d           2.199   0.944  -0.014  0.00  0.00    -0.646 OA
ATOM     12  O3  <0> d          -0.011   0.963   0.007  0.00  0.00    -0.646 OA
ENDBRANCH   2  10
TORSDOF 1
