REMARK  0 active torsions:
REMARK  status: ('A' for Active; 'I' for Inactive)
ROOT
ATOM      1  C1  <0> d          -0.019   1.541   0.011  0.00  0.00    -0.056 C 
ATOM      2  C2  <0> d           1.486   1.881  -0.002  0.00  0.00    -0.022 C 
ATOM      3  C3  <0> d           2.179   0.680   0.630  0.00  0.00     0.072 A 
ATOM      4  C4  <0> d           1.322  -0.371   0.617  0.00  0.00     0.029 A 
ATOM      5  S1  <0> d           2.206  -1.601   1.326  0.00  0.00     0.032 SA
ATOM      6  N1  <0> d           3.580  -0.797   1.616  0.00  0.00    -0.110 NA
ATOM      7  N2  <0> d           3.360   0.388   1.174  0.00  0.00    -0.146 NA
ATOM      8  C5  <0> d           0.002  -0.004   0.002  0.00  0.00    -0.031 C 
ATOM      9  H1  <0> d          -0.496   1.919   0.915  0.00  0.00     0.034 H 
ATOM     10  H2  <0> d          -0.513   1.929  -0.880  0.00  0.00     0.034 H 
ATOM     11  H3  <0> d           1.833   2.021  -1.026  0.00  0.00     0.042 H 
ATOM     12  H4  <0> d           1.675   2.779   0.587  0.00  0.00     0.042 H 
ATOM     13  H5  <0> d          -0.819  -0.398   0.601  0.00  0.00     0.041 H 
ATOM     14  H6  <0> d          -0.058  -0.379  -1.020  0.00  0.00     0.041 H 
ENDROOT
TORSDOF 0
