REMARK  1 active torsions:
REMARK  status: ('A' for Active; 'I' for Inactive)
REMARK    1  A    between atoms: C3_3  and  C5_7 
ROOT
ATOM      1  C1  <0> d           4.711   1.496  -0.034  0.00  0.00    -0.066 A 
ATOM      2  C2  <0> d           3.566   2.309  -0.019  0.00  0.00    -0.053 A 
ATOM      3  C3  <0> d           2.480   1.482  -0.013  0.00  0.00     0.066 A 
ATOM      4  N1  <0> d           2.937   0.188  -0.018  0.00  0.00    -0.364 N 
ATOM      5  H1  <0> d           2.383  -0.608  -0.013  0.00  0.00     0.165 HD
ATOM      6  C4  <0> d           4.301   0.209  -0.036  0.00  0.00    -0.022 A 
ATOM      7  H2  <0> d           5.735   1.839  -0.041  0.00  0.00     0.085 H 
ATOM      8  H3  <0> d           3.548   3.389  -0.014  0.00  0.00     0.087 H 
ATOM      9  H4  <0> d           4.946  -0.657  -0.047  0.00  0.00     0.111 H 
ENDROOT
BRANCH   3  10
ATOM     10  C5  <0> d           1.069   1.903   0.002  0.00  0.00     0.101 A 
ATOM     11  O1  <0> d           0.623   3.175   0.012  0.00  0.00    -0.321 OA
ATOM     12  C8  <0> d          -0.721   3.177   0.025  0.00  0.00     0.019 A 
ATOM     13  C7  <0> d          -1.155   1.901   0.017  0.00  0.00    -0.059 A 
ATOM     14  H7  <0> d          -1.349   4.055   0.035  0.00  0.00     0.123 H 
ATOM     15  C6  <0> d          -0.013   1.076   0.008  0.00  0.00    -0.046 A 
ATOM     16  H6  <0> d          -2.183   1.573   0.020  0.00  0.00     0.086 H 
ATOM     17  H5  <0> d           0.002  -0.004   0.002  0.00  0.00     0.087 H 
ENDBRANCH   3  10
TORSDOF 1
