REMARK  4 active torsions:
REMARK  status: ('A' for Active; 'I' for Inactive)
REMARK    1  A    between atoms: C1_1  and  C2_2 
REMARK    2  A    between atoms: C6_6  and  C9_9 
REMARK    3  A    between atoms: C7_7  and  C8_8 
REMARK    4  A    between atoms: C9_9  and  C10_11 
ROOT
ATOM      1  C2  <0> d           2.442   0.144   0.248  0.00  0.00    -0.055 A 
ATOM      2  C3  <0> d           1.316  -0.661   0.212  0.00  0.00    -0.077 A 
ATOM      3  C4  <0> d           0.072  -0.111  -0.042  0.00  0.00    -0.082 A 
ATOM      4  C5  <0> d          -0.056   1.244  -0.261  0.00  0.00    -0.069 A 
ATOM      5  C6  <0> d           1.077   2.064  -0.226  0.00  0.00     0.016 A 
ATOM      6  C7  <0> d           2.331   1.501   0.032  0.00  0.00    -0.042 A 
ATOM      7  H4  <0> d           1.410  -1.723   0.382  0.00  0.00     0.084 H 
ATOM      8  H5  <0> d          -0.802  -0.746  -0.069  0.00  0.00     0.083 H 
ATOM      9  H6  <0> d          -1.027   1.671  -0.464  0.00  0.00     0.085 H 
ENDROOT
BRANCH   5  10
ATOM     10  C9  <0> d           0.949   3.512  -0.459  0.00  0.00     0.156 C 
ATOM     11  O1  <0> d           1.942   4.203  -0.535  0.00  0.00    -0.293 OA
BRANCH  10  12
ATOM     12  C10 <0> d          -0.415   4.135  -0.602  0.00  0.00    -0.017 C 
ATOM     13  H10 <0> d          -0.309   5.216  -0.770  0.00  0.00     0.038 H 
ATOM     14  H11 <0> d          -0.996   3.961   0.316  0.00  0.00     0.038 H 
ATOM     15  H12 <0> d          -0.937   3.681  -1.458  0.00  0.00     0.038 H 
ENDBRANCH  10  12
ENDBRANCH   5  10
BRANCH   6  16
ATOM     16  C8  <0> d           3.558   2.376   0.073  0.00  0.00    -0.050 C 
ATOM     17  H7  <0> d           3.270   3.420  -0.121  0.00  0.00     0.033 H 
ATOM     18  H8  <0> d           4.271   2.043  -0.694  0.00  0.00     0.033 H 
ATOM     19  H9  <0> d           4.026   2.303   1.066  0.00  0.00     0.033 H 
ENDBRANCH   6  16
BRANCH   1  20
ATOM     20  C1  <0> d           3.792  -0.465   0.526  0.00  0.00    -0.051 C 
ATOM     21  H1  <0> d           3.683  -1.549   0.671  0.00  0.00     0.033 H 
ATOM     22  H2  <0> d           4.218  -0.014   1.435  0.00  0.00     0.033 H 
ATOM     23  H3  <0> d           4.462  -0.275  -0.326  0.00  0.00     0.033 H 
ENDBRANCH   1  20
TORSDOF 4
