REMARK  3 active torsions:
REMARK  status: ('A' for Active; 'I' for Inactive)
REMARK    1  A    between atoms: C1_1  and  C2_2 
REMARK    2  A    between atoms: C4_4  and  O1_9 
REMARK    3  A    between atoms: O1_9  and  C7_10 
ROOT
ATOM      1  C2  <0> d           1.171   1.793   0.001  0.00  0.00    -0.018 A 
ATOM      2  C3  <0> d          -0.013   1.076   0.008  0.00  0.00    -0.023 A 
ATOM      3  C4  <0> d          -1.219   1.763   0.017  0.00  0.00     0.164 A 
ATOM      4  N1  <0> d          -1.243   3.085   0.029  0.00  0.00    -0.234 NA
ATOM      5  C5  <0> d          -0.133   3.798   0.023  0.00  0.00     0.043 A 
ATOM      6  C6  <0> d           1.105   3.181   0.008  0.00  0.00     0.140 A 
ATOM      7  F1  <0> d           2.236   3.919   0.001  0.00  0.00    -0.204 F 
ATOM      8  H4  <0> d           0.002  -0.004   0.002  0.00  0.00     0.091 H 
ATOM      9  H5  <0> d          -0.191   4.876   0.029  0.00  0.00     0.119 H 
ENDROOT
BRANCH   3  10
ATOM     10  O1  <0> d          -2.386   1.070   0.019  0.00  0.00    -0.339 OA
BRANCH  10  11
ATOM     11  C7  <0> d          -3.594   1.834   0.029  0.00  0.00     0.012 C 
ATOM     12  H6  <0> d          -3.622   2.457   0.922  0.00  0.00     0.067 H 
ATOM     13  H7  <0> d          -3.631   2.467  -0.858  0.00  0.00     0.067 H 
ATOM     14  H8  <0> d          -4.450   1.159   0.029  0.00  0.00     0.067 H 
ENDBRANCH  10  11
ENDBRANCH   3  10
BRANCH   1  15
ATOM     15  C1  <0> d           2.502   1.085  -0.015  0.00  0.00    -0.048 C 
ATOM     16  H1  <0> d           2.813   0.919  -1.046  0.00  0.00     0.033 H 
ATOM     17  H2  <0> d           3.245   1.698   0.495  0.00  0.00     0.033 H 
ATOM     18  H3  <0> d           2.409   0.126   0.495  0.00  0.00     0.033 H 
ENDBRANCH   1  15
TORSDOF 3
