REMARK  7 active torsions:
REMARK  status: ('A' for Active; 'I' for Inactive)
REMARK    1  A    between atoms: C1_1  and  C2_2 
REMARK    2  A    between atoms: C2_2  and  C3_3 
REMARK    3  A    between atoms: C2_2  and  C4_4 
REMARK    4  A    between atoms: C4_4  and  C5_5 
REMARK    5  A    between atoms: C5_5  and  C6_6 
REMARK    6  A    between atoms: C6_6  and  C7_7 
REMARK    7  A    between atoms: C7_7  and  C8_8 
ROOT
ATOM      1  C4  <0> d           4.217   5.531  -0.009  0.00  0.00    -0.062 C 
ATOM      2  H8  <0> d           4.724   5.143   0.875  0.00  0.00     0.033 H 
ATOM      3  H9  <0> d           4.707   5.152  -0.905  0.00  0.00     0.033 H 
ENDROOT
BRANCH   1   4
ATOM      4  C2  <0> d           4.276   7.059  -0.001  0.00  0.00    -0.061 C 
ATOM      5  H4  <0> d           3.693   7.450  -0.835  0.00  0.00     0.038 H 
BRANCH   4   6
ATOM      6  C1  <0> d           3.699   7.586   1.315  0.00  0.00    -0.073 C 
ATOM      7  H1  <0> d           3.741   8.675   1.320  0.00  0.00     0.028 H 
ATOM      8  H2  <0> d           2.663   7.262   1.413  0.00  0.00     0.028 H 
ATOM      9  H3  <0> d           4.282   7.195   2.149  0.00  0.00     0.028 H 
ENDBRANCH   4   6
BRANCH   4  10
ATOM     10  C3  <0> d           5.730   7.514  -0.138  0.00  0.00    -0.073 C 
ATOM     11  H5  <0> d           6.141   7.139  -1.075  0.00  0.00     0.028 H 
ATOM     12  H6  <0> d           5.773   8.603  -0.133  0.00  0.00     0.028 H 
ATOM     13  H7  <0> d           6.313   7.124   0.696  0.00  0.00     0.028 H 
ENDBRANCH   4  10
ENDBRANCH   1   4
BRANCH   1  14
ATOM     14  C5  <0> d           2.755   5.077   0.003  0.00  0.00    -0.064 C 
ATOM     15  H10 <0> d           2.248   5.465  -0.880  0.00  0.00     0.033 H 
ATOM     16  H11 <0> d           2.265   5.455   0.900  0.00  0.00     0.033 H 
BRANCH  14  17
ATOM     17  C6  <0> d           2.696   3.548  -0.005  0.00  0.00    -0.056 C 
ATOM     18  H12 <0> d           3.204   3.160   0.878  0.00  0.00     0.033 H 
ATOM     19  H13 <0> d           3.187   3.170  -0.901  0.00  0.00     0.033 H 
BRANCH  17  20
ATOM     20  C7  <0> d           1.235   3.094   0.007  0.00  0.00     0.016 C 
ATOM     21  H14 <0> d           0.727   3.482  -0.876  0.00  0.00     0.049 H 
ATOM     22  H15 <0> d           0.744   3.473   0.904  0.00  0.00     0.049 H 
BRANCH  20  23
ATOM     23  C8  <0> d           1.177   1.588  -0.001  0.00  0.00     0.172 C 
ATOM     24  O1  <0> d           2.199   0.944  -0.014  0.00  0.00    -0.648 OA
ATOM     25  O2  <0> d          -0.011   0.963   0.007  0.00  0.00    -0.648 OA
ENDBRANCH  20  23
ENDBRANCH  17  20
ENDBRANCH  14  17
ENDBRANCH   1  14
TORSDOF 7
