REMARK  0 active torsions:
REMARK  status: ('A' for Active; 'I' for Inactive)
ROOT
ATOM      1  C1  <0> d          -0.017   1.373   0.010  0.00  0.00    -0.082 A 
ATOM      2  C2  <0> d          -1.222   2.063   0.019  0.00  0.00    -0.081 A 
ATOM      3  C3  <0> d          -2.421   1.388   0.021  0.00  0.00    -0.054 A 
ATOM      4  C4  <0> d          -2.429  -0.009   0.013  0.00  0.00     0.073 A 
ATOM      5  C5  <0> d          -1.201  -0.707   0.004  0.00  0.00     0.061 A 
ATOM      6  C6  <0> d           0.002  -0.004   0.002  0.00  0.00    -0.065 A 
ATOM      7  C7  <0> d          -1.243  -2.177  -0.003  0.00  0.00     0.258 A 
ATOM      8  O1  <0> d          -0.222  -2.839  -0.011  0.00  0.00    -0.267 OA
ATOM      9  N1  <0> d          -2.462  -2.765  -0.000  0.00  0.00    -0.317 N 
ATOM     10  C8  <0> d          -3.593  -2.013   0.009  0.00  0.00     0.067 A 
ATOM     11  N2  <0> d          -3.587  -0.714   0.016  0.00  0.00    -0.243 NA
ATOM     12  H1  <0> d          -2.529  -3.733  -0.005  0.00  0.00     0.169 HD
ATOM     13  H2  <0> d           0.914   1.921   0.004  0.00  0.00     0.083 H 
ATOM     14  H3  <0> d          -1.218   3.143   0.025  0.00  0.00     0.083 H 
ATOM     15  H4  <0> d          -3.352   1.935   0.029  0.00  0.00     0.087 H 
ATOM     16  H5  <0> d           0.942  -0.535  -0.010  0.00  0.00     0.085 H 
ATOM     17  H6  <0> d          -4.546  -2.520   0.010  0.00  0.00     0.143 H 
ENDROOT
TORSDOF 0
