REMARK  3 active torsions:
REMARK  status: ('A' for Active; 'I' for Inactive)
REMARK    1  A    between atoms: C1_1  and  C2_2 
REMARK    2  A    between atoms: C2_2  and  C3_3 
REMARK    3  A    between atoms: C3_3  and  C6_7 
ROOT
ATOM      1  C3  <0> d          -0.983   1.692  -1.044  0.00  0.00     0.090 C 
ATOM      2  C4  <0> d          -0.060   1.086   0.031  0.00  0.00     0.038 C 
ATOM      3  O1  <0> d          -0.985   1.646   0.985  0.00  0.00    -0.388 OA
ATOM      4  C5  <0> d          -1.451   2.655   0.063  0.00  0.00     0.038 C 
ATOM      5  H6  <0> d          -0.008  -0.005  -0.103  0.00  0.00     0.076 H 
ATOM      6  H7  <0> d           0.948   1.516  -0.068  0.00  0.00     0.076 H 
ATOM      7  H8  <0> d          -0.906   3.607  -0.025  0.00  0.00     0.076 H 
ATOM      8  H9  <0> d          -2.530   2.840  -0.044  0.00  0.00     0.076 H 
ENDROOT
BRANCH   1   9
ATOM      9  C2  <0> d          -0.233   2.380  -2.186  0.00  0.00    -0.048 C 
ATOM     10  H4  <0> d           0.320   3.246  -1.792  0.00  0.00     0.034 H 
ATOM     11  H5  <0> d          -0.953   2.719  -2.946  0.00  0.00     0.034 H 
BRANCH   9  12
ATOM     12  C1  <0> d           0.750   1.392  -2.819  0.00  0.00    -0.075 C 
ATOM     13  H1  <0> d           1.289   1.887  -3.640  0.00  0.00     0.027 H 
ATOM     14  H2  <0> d           0.197   0.526  -3.212  0.00  0.00     0.027 H 
ATOM     15  H3  <0> d           1.470   1.054  -2.059  0.00  0.00     0.027 H 
ENDBRANCH   9  12
ENDBRANCH   1   9
BRANCH   1  16
ATOM     16  C6  <0> d          -2.055   0.749  -1.526  0.00  0.00     0.186 C 
ATOM     17  O2  <0> d          -2.170   0.519  -2.707  0.00  0.00    -0.647 OA
ATOM     18  O3  <0> d          -2.882   0.165  -0.645  0.00  0.00    -0.647 OA
ENDBRANCH   1  16
TORSDOF 3
