REMARK  4 active torsions:
REMARK  status: ('A' for Active; 'I' for Inactive)
REMARK    1  A    between atoms: C1_1  and  C2_2 
REMARK    2  A    between atoms: C2_2  and  S1_3 
REMARK    3  A    between atoms: S1_3  and  C3_4 
REMARK    4  A    between atoms: N3_8  and  N4_9 
ROOT
ATOM      1  C3  <0> d           0.580   3.172   0.014  0.00  0.00     0.205 A 
ATOM      2  N1  <0> d          -0.729   3.072   0.025  0.00  0.00    -0.122 NA
ATOM      3  N2  <0> d          -1.073   1.834   0.017  0.00  0.00    -0.141 NA
ATOM      4  C4  <0> d          -0.013   1.076   0.008  0.00  0.00     0.105 A 
ATOM      5  N3  <0> d           1.078   1.901   0.002  0.00  0.00    -0.247 N 
ATOM      6  H6  <0> d           0.002  -0.004   0.002  0.00  0.00     0.148 H 
ENDROOT
BRANCH   1   7
ATOM      7  S1  <0> d           1.516   4.665   0.013  0.00  0.00    -0.089 SA
BRANCH   7   8
ATOM      8  C2  <0> d           0.174   5.878   0.032  0.00  0.00    -0.019 C 
ATOM      9  H4  <0> d          -0.449   5.746  -0.853  0.00  0.00     0.049 H 
ATOM     10  H5  <0> d          -0.432   5.736   0.927  0.00  0.00     0.049 H 
BRANCH   8  11
ATOM     11  C1  <0> d           0.762   7.290   0.035  0.00  0.00    -0.068 C 
ATOM     12  H1  <0> d           1.385   7.423   0.920  0.00  0.00     0.028 H 
ATOM     13  H2  <0> d           1.368   7.433  -0.860  0.00  0.00     0.028 H 
ATOM     14  H3  <0> d          -0.046   8.021   0.046  0.00  0.00     0.028 H 
ENDBRANCH   8  11
ENDBRANCH   7   8
ENDBRANCH   1   7
BRANCH   5  15
ATOM     15  N4  <0> d           2.393   1.531  -0.013  0.00  0.00    -0.240 NA
ATOM     16  H7  <0> d           2.732   1.437  -0.958  0.00  0.00     0.143 HD
ATOM     17  H8  <0> d           2.958   2.182   0.511  0.00  0.00     0.143 HD
ENDBRANCH   5  15
TORSDOF 4
