REMARK  3 active torsions:
REMARK  status: ('A' for Active; 'I' for Inactive)
REMARK    1  A    between atoms: C3_3  and  C5_6 
REMARK    2  A    between atoms: C5_6  and  C6_8 
REMARK    3  A    between atoms: C6_8  and  O3_9 
ROOT
ATOM      1  C1  <0> d          -3.425   2.379   0.031  0.00  0.00    -0.059 A 
ATOM      2  C2  <0> d          -2.502   1.324   0.021  0.00  0.00    -0.045 A 
ATOM      3  C3  <0> d          -1.248   1.900   0.018  0.00  0.00     0.122 A 
ATOM      4  O1  <0> d          -1.410   3.240   0.032  0.00  0.00    -0.319 OA
ATOM      5  C4  <0> d          -2.716   3.531   0.034  0.00  0.00     0.019 A 
ATOM      6  H1  <0> d          -4.501   2.288   0.035  0.00  0.00     0.086 H 
ATOM      7  H2  <0> d          -2.728   0.268   0.016  0.00  0.00     0.088 H 
ATOM      8  H3  <0> d          -3.137   4.526   0.042  0.00  0.00     0.123 H 
ENDROOT
BRANCH   3   9
ATOM      9  C5  <0> d          -0.014   1.210   0.009  0.00  0.00     0.206 C 
ATOM     10  O2  <0> d           0.002  -0.004   0.002  0.00  0.00    -0.288 OA
BRANCH   9  11
ATOM     11  C6  <0> d           1.280   1.981   0.001  0.00  0.00     0.078 C 
ATOM     12  H4  <0> d           1.318   2.561  -0.813  0.00  0.00     0.086 H 
ATOM     13  H5  <0> d           1.338   2.604   0.893  0.00  0.00     0.086 H 
BRANCH  11  14
ATOM     14  O3  <0> d           2.379   1.068  -0.015  0.00  0.00    -0.393 OA
ATOM     15  H6  <0> d           3.246   1.495  -0.021  0.00  0.00     0.209 HD
ENDBRANCH  11  14
ENDBRANCH   9  11
ENDBRANCH   3   9
TORSDOF 3
