REMARK  1 active torsions:
REMARK  status: ('A' for Active; 'I' for Inactive)
REMARK    1  A    between atoms: C1_1  and  C2_2 
ROOT
ATOM      1  C2  <0> d           0.002  -0.004   0.002  0.00  0.00     0.073 C 
ATOM      2  N1  <0> d           0.005  -0.643  -1.131  0.00  0.00    -0.346 N 
ATOM      3  C3  <0> d           0.025  -2.012  -1.172  0.00  0.00     0.041 A 
ATOM      4  C4  <0> d           0.345  -2.680  -2.354  0.00  0.00    -0.057 A 
ATOM      5  C5  <0> d           0.362  -4.060  -2.378  0.00  0.00    -0.081 A 
ATOM      6  C6  <0> d           0.064  -4.782  -1.236  0.00  0.00    -0.082 A 
ATOM      7  C7  <0> d          -0.255  -4.125  -0.059  0.00  0.00    -0.073 A 
ATOM      8  C8  <0> d          -0.276  -2.749  -0.024  0.00  0.00    -0.014 A 
ATOM      9  C9  <0> d          -0.624  -2.013   1.247  0.00  0.00     0.019 C 
ATOM     10  N2  <0> d           0.023  -0.690   1.188  0.00  0.00    -0.376 N 
ATOM     11  H4  <0> d           0.578  -2.120  -3.247  0.00  0.00     0.086 H 
ATOM     12  H5  <0> d           0.609  -4.578  -3.292  0.00  0.00     0.083 H 
ATOM     13  H6  <0> d           0.080  -5.861  -1.262  0.00  0.00     0.083 H 
ATOM     14  H7  <0> d          -0.488  -4.692   0.830  0.00  0.00     0.084 H 
ATOM     15  H8  <0> d          -1.706  -1.896   1.321  0.00  0.00     0.071 H 
ATOM     16  H9  <0> d          -0.252  -2.566   2.108  0.00  0.00     0.071 H 
ATOM     17  H10 <0> d           0.451  -0.311   1.972  0.00  0.00     0.161 HD
ATOM     18  H11 <0> d          -0.007  -0.141  -1.961  0.00  0.00     0.167 HD
ENDROOT
BRANCH   1  19
ATOM     19  C1  <0> d          -0.018   1.503   0.010  0.00  0.00    -0.023 C 
ATOM     20  H1  <0> d           1.004   1.880   0.003  0.00  0.00     0.037 H 
ATOM     21  H2  <0> d          -0.545   1.864  -0.873  0.00  0.00     0.037 H 
ATOM     22  H3  <0> d          -0.529   1.854   0.907  0.00  0.00     0.037 H 
ENDBRANCH   1  19
TORSDOF 1
