REMARK  2 active torsions:
REMARK  status: ('A' for Active; 'I' for Inactive)
REMARK    1  A    between atoms: C2_2  and  C6_8 
REMARK    2  A    between atoms: C5_6  and  N2_7 
ROOT
ATOM      1  C1  <0> d          -0.017   1.386   0.010  0.00  0.00    -0.038 A 
ATOM      2  C2  <0> d           1.208   2.064   0.002  0.00  0.00     0.060 A 
ATOM      3  C3  <0> d           2.392   1.323  -0.014  0.00  0.00     0.018 A 
ATOM      4  N1  <0> d           2.360   0.006  -0.021  0.00  0.00    -0.270 NA
ATOM      5  C4  <0> d           1.225  -0.665  -0.014  0.00  0.00     0.027 A 
ATOM      6  C5  <0> d           0.002  -0.004   0.002  0.00  0.00     0.044 A 
ATOM      7  H1  <0> d          -0.951   1.927   0.026  0.00  0.00     0.088 H 
ATOM      8  H2  <0> d           3.343   1.834  -0.020  0.00  0.00     0.116 H 
ATOM      9  H3  <0> d           1.246  -1.745  -0.020  0.00  0.00     0.118 H 
ENDROOT
BRANCH   2  10
ATOM     10  C6  <0> d           1.248   3.539   0.009  0.00  0.00     0.210 C 
ATOM     11  O1  <0> d           0.206   4.179   0.022  0.00  0.00    -0.644 OA
ATOM     12  O2  <0> d           2.323   4.122   0.002  0.00  0.00    -0.644 OA
ENDBRANCH   2  10
BRANCH   6  13
ATOM     13  N2  <0> d          -1.193  -0.728   0.010  0.00  0.00    -0.398 N 
ATOM     14  H4  <0> d          -2.043  -0.261   0.021  0.00  0.00     0.156 HD
ATOM     15  H5  <0> d          -1.173  -1.698   0.005  0.00  0.00     0.156 HD
ENDBRANCH   6  13
TORSDOF 2
