REMARK  2 active torsions:
REMARK  status: ('A' for Active; 'I' for Inactive)
REMARK    1  A    between atoms: C1_1  and  C2_2 
REMARK    2  A    between atoms: C6_7  and  O1_9 
ROOT
ATOM      1  C2  <0> d          -2.268   1.485   0.789  0.00  0.00    -0.033 C 
ATOM      2  H1  <0> d          -2.618   0.459   0.909  0.00  0.00     0.043 H 
ATOM      3  C3  <0> d          -0.789   1.611   1.242  0.00  0.00    -0.060 C 
ATOM      4  C4  <0> d          -0.013   1.086   0.008  0.00  0.00    -0.062 C 
ATOM      5  C5  <0> d          -0.809   1.622  -1.200  0.00  0.00    -0.041 C 
ATOM      6  C6  <0> d          -2.243   1.875  -0.703  0.00  0.00     0.038 C 
ATOM      7  H2  <0> d          -2.946   1.258  -1.263  0.00  0.00     0.083 H 
ATOM      8  H6  <0> d          -0.595   0.987   2.114  0.00  0.00     0.033 H 
ATOM      9  H7  <0> d          -0.534   2.651   1.444  0.00  0.00     0.033 H 
ATOM     10  H8  <0> d           0.002  -0.004   0.002  0.00  0.00     0.033 H 
ATOM     11  H9  <0> d           1.003   1.480   0.000  0.00  0.00     0.033 H 
ATOM     12  H10 <0> d          -0.367   2.552  -1.555  0.00  0.00     0.036 H 
ATOM     13  H11 <0> d          -0.816   0.882  -2.000  0.00  0.00     0.036 H 
ENDROOT
BRANCH   1  14
ATOM     14  C1  <0> d          -3.154   2.450   1.580  0.00  0.00    -0.071 C 
ATOM     15  H3  <0> d          -4.170   2.415   1.188  0.00  0.00     0.028 H 
ATOM     16  H4  <0> d          -3.160   2.159   2.631  0.00  0.00     0.028 H 
ATOM     17  H5  <0> d          -2.762   3.463   1.486  0.00  0.00     0.028 H 
ENDBRANCH   1  14
BRANCH   6  18
ATOM     18  O1  <0> d          -2.576   3.257  -0.854  0.00  0.00    -0.395 OA
ATOM     19  H12 <0> d          -2.556   3.569  -1.768  0.00  0.00     0.210 HD
ENDBRANCH   6  18
TORSDOF 2
