REMARK  1 active torsions:
REMARK  status: ('A' for Active; 'I' for Inactive)
REMARK    1  A    between atoms: C3_3  and  C6_9 
ROOT
ATOM      1  C1  <0> d           2.345   1.442  -0.013  0.00  0.00    -0.067 A 
ATOM      2  C2  <0> d           2.423   0.050  -0.021  0.00  0.00    -0.060 A 
ATOM      3  C3  <0> d           1.243  -0.692  -0.014  0.00  0.00     0.108 A 
ATOM      4  C4  <0> d           0.002  -0.004   0.002  0.00  0.00     0.262 A 
ATOM      5  O1  <0> d          -1.044  -0.630   0.009  0.00  0.00    -0.267 OA
ATOM      6  N1  <0> d          -0.016   1.342   0.009  0.00  0.00    -0.333 N 
ATOM      7  H1  <0> d          -0.867   1.808   0.016  0.00  0.00     0.168 HD
ATOM      8  C5  <0> d           1.134   2.057   0.002  0.00  0.00    -0.020 A 
ATOM      9  H2  <0> d           3.249   2.033  -0.018  0.00  0.00     0.085 H 
ATOM     10  H3  <0> d           3.383  -0.445  -0.032  0.00  0.00     0.085 H 
ATOM     11  H4  <0> d           1.088   3.136   0.008  0.00  0.00     0.111 H 
ENDROOT
BRANCH   3  12
ATOM     12  C6  <0> d           1.284  -2.161  -0.021  0.00  0.00     0.215 C 
ATOM     13  O2  <0> d           2.353  -2.739  -0.035  0.00  0.00    -0.644 OA
ATOM     14  O3  <0> d           0.136  -2.867  -0.014  0.00  0.00    -0.644 OA
ENDBRANCH   3  12
TORSDOF 1
