REMARK  5 active torsions:
REMARK  status: ('A' for Active; 'I' for Inactive)
REMARK    1  A    between atoms: C1_1  and  C2_2 
REMARK    2  A    between atoms: C3_3  and  C4_4 
REMARK    3  A    between atoms: C4_4  and  N1_5 
REMARK    4  A    between atoms: N1_5  and  C5_6 
REMARK    5  A    between atoms: C8_9  and  C11_12 
ROOT
ATOM      1  C5  <0> d           1.215  -0.681  -0.013  0.00  0.00     0.028 A 
ATOM      2  C6  <0> d           0.002  -0.004   0.002  0.00  0.00    -0.057 A 
ATOM      3  C7  <0> d          -0.017   1.377   0.010  0.00  0.00    -0.075 A 
ATOM      4  C8  <0> d           1.171   2.086   0.002  0.00  0.00    -0.062 A 
ATOM      5  C9  <0> d           2.380   1.416  -0.013  0.00  0.00    -0.075 A 
ATOM      6  C10 <0> d           2.406   0.035  -0.021  0.00  0.00    -0.057 A 
ATOM      7  H7  <0> d          -0.925  -0.557   0.008  0.00  0.00     0.086 H 
ATOM      8  H8  <0> d          -0.960   1.903   0.017  0.00  0.00     0.084 H 
ATOM      9  H9  <0> d           3.305   1.973  -0.019  0.00  0.00     0.084 H 
ATOM     10  H10 <0> d           3.351  -0.488  -0.032  0.00  0.00     0.086 H 
ENDROOT
BRANCH   1  11
ATOM     11  N1  <0> d           1.238  -2.077  -0.021  0.00  0.00    -0.380 N 
ATOM     12  H6  <0> d           0.406  -2.576  -0.015  0.00  0.00     0.160 HD
BRANCH  11  13
ATOM     13  C4  <0> d           2.518  -2.789  -0.037  0.00  0.00     0.048 C 
ATOM     14  H4  <0> d           3.077  -2.512  -0.931  0.00  0.00     0.083 H 
ATOM     15  H5  <0> d           3.094  -2.521   0.849  0.00  0.00     0.083 H 
BRANCH  13  16
ATOM     16  C3  <0> d           2.273  -4.240  -0.042  0.00  0.00    -0.087 C 
ATOM     17  C2  <0> d           2.077  -5.398  -0.045  0.00  0.00    -0.109 C 
BRANCH  17  18
ATOM     18  C1  <0> d           1.831  -6.849  -0.050  0.00  0.00    -0.021 C 
ATOM     19  H1  <0> d           2.784  -7.379  -0.062  0.00  0.00     0.044 H 
ATOM     20  H2  <0> d           1.273  -7.126   0.844  0.00  0.00     0.044 H 
ATOM     21  H3  <0> d           1.255  -7.117  -0.936  0.00  0.00     0.044 H 
ENDBRANCH  17  18
ENDBRANCH  13  16
ENDBRANCH  11  13
ENDBRANCH   1  11
BRANCH   4  22
ATOM     22  C11 <0> d           1.146   3.593   0.010  0.00  0.00    -0.051 C 
ATOM     23  H11 <0> d           1.150   3.951   1.040  0.00  0.00     0.033 H 
ATOM     24  H12 <0> d           2.025   3.973  -0.510  0.00  0.00     0.033 H 
ATOM     25  H13 <0> d           0.246   3.944  -0.494  0.00  0.00     0.033 H 
ENDBRANCH   4  22
TORSDOF 5
