REMARK  5 active torsions:
REMARK  status: ('A' for Active; 'I' for Inactive)
REMARK    1  A    between atoms: C1_1  and  C2_2 
REMARK    2  A    between atoms: C2_2  and  C3_3 
REMARK    3  A    between atoms: C3_3  and  C4_5 
REMARK    4  A    between atoms: C3_3  and  C5_7 
REMARK    5  A    between atoms: C4_5  and  O1_6 
ROOT
ATOM      1  C3  <0> d           1.129   3.084   0.014  0.00  0.00     0.008 C 
ATOM      2  H1  <0> d           0.490   3.466   0.810  0.00  0.00     0.052 H 
ENDROOT
BRANCH   1   3
ATOM      3  C2  <0> d           0.594   3.555  -1.340  0.00  0.00    -0.058 C 
ATOM      4  H5  <0> d           1.287   3.259  -2.128  0.00  0.00     0.033 H 
ATOM      5  H6  <0> d          -0.380   3.100  -1.524  0.00  0.00     0.033 H 
BRANCH   3   6
ATOM      6  C1  <0> d           0.452   5.078  -1.331  0.00  0.00    -0.076 C 
ATOM      7  H2  <0> d          -0.023   5.405  -2.256  0.00  0.00     0.027 H 
ATOM      8  H3  <0> d          -0.160   5.381  -0.481  0.00  0.00     0.027 H 
ATOM      9  H4  <0> d           1.439   5.534  -1.248  0.00  0.00     0.027 H 
ENDBRANCH   3   6
ENDBRANCH   1   3
BRANCH   1  10
ATOM     10  C4  <0> d           1.135   1.554   0.056  0.00  0.00     0.025 C 
ATOM     11  H7  <0> d           1.581   1.218   0.991  0.00  0.00     0.075 H 
ATOM     12  H8  <0> d           1.716   1.170  -0.783  0.00  0.00     0.075 H 
BRANCH  10  13
ATOM     13  O1  <0> d          -0.207   1.070  -0.033  0.00  0.00    -0.400 OA
ATOM     14  H9  <0> d          -0.279   0.106  -0.013  0.00  0.00     0.209 HD
ENDBRANCH  10  13
ENDBRANCH   1  10
BRANCH   1  15
ATOM     15  C5  <0> d           2.533   3.597   0.205  0.00  0.00     0.040 A 
ATOM     16  N1  <0> d           2.731   4.719   0.869  0.00  0.00    -0.265 NA
ATOM     17  C9  <0> d           3.942   5.206   1.061  0.00  0.00     0.003 A 
ATOM     18  C8  <0> d           5.054   4.551   0.568  0.00  0.00    -0.066 A 
ATOM     19  H13 <0> d           4.065   6.128   1.610  0.00  0.00     0.114 H 
ATOM     20  C7  <0> d           4.884   3.367  -0.136  0.00  0.00    -0.080 A 
ATOM     21  H12 <0> d           6.042   4.955   0.728  0.00  0.00     0.085 H 
ATOM     22  C6  <0> d           3.597   2.883  -0.312  0.00  0.00    -0.059 A 
ATOM     23  H11 <0> d           5.735   2.833  -0.532  0.00  0.00     0.083 H 
ATOM     24  H10 <0> d           3.428   1.963  -0.851  0.00  0.00     0.086 H 
ENDBRANCH   1  15
TORSDOF 5
