REMARK  4 active torsions:
REMARK  status: ('A' for Active; 'I' for Inactive)
REMARK    1  A    between atoms: C1_1  and  C2_2 
REMARK    2  A    between atoms: C4_4  and  C8_10 
REMARK    3  A    between atoms: C5_5  and  N2_9 
REMARK    4  A    between atoms: C7_7  and  N1_8 
ROOT
ATOM      1  C2  <0> d           0.002  -0.004   0.002  0.00  0.00    -0.035 A 
ATOM      2  C3  <0> d          -0.017   1.377   0.010  0.00  0.00    -0.067 A 
ATOM      3  C4  <0> d           1.168   2.087   0.002  0.00  0.00    -0.035 A 
ATOM      4  C5  <0> d           2.384   1.414  -0.013  0.00  0.00     0.033 A 
ATOM      5  C6  <0> d           2.406   0.026  -0.021  0.00  0.00    -0.032 A 
ATOM      6  C7  <0> d           1.214  -0.684  -0.013  0.00  0.00     0.033 A 
ATOM      7  H4  <0> d          -0.960   1.903   0.017  0.00  0.00     0.085 H 
ATOM      8  H5  <0> d           3.349  -0.500  -0.032  0.00  0.00     0.090 H 
ENDROOT
BRANCH   1   9
ATOM      9  C1  <0> d          -1.293  -0.774   0.010  0.00  0.00    -0.049 C 
ATOM     10  H1  <0> d          -1.615  -0.955  -1.016  0.00  0.00     0.033 H 
ATOM     11  H2  <0> d          -1.146  -1.728   0.517  0.00  0.00     0.033 H 
ATOM     12  H3  <0> d          -2.056  -0.198   0.534  0.00  0.00     0.033 H 
ENDBRANCH   1   9
BRANCH   6  13
ATOM     13  N1  <0> d           1.232  -2.081  -0.020  0.00  0.00    -0.399 N 
ATOM     14  H6  <0> d           0.398  -2.576  -0.015  0.00  0.00     0.156 HD
ATOM     15  H7  <0> d           2.078  -2.555  -0.031  0.00  0.00     0.156 HD
ENDBRANCH   6  13
BRANCH   3  16
ATOM     16  C8  <0> d           1.143   3.594   0.010  0.00  0.00    -0.049 C 
ATOM     17  H10 <0> d           1.147   3.952   1.039  0.00  0.00     0.033 H 
ATOM     18  H11 <0> d           2.022   3.975  -0.510  0.00  0.00     0.033 H 
ATOM     19  H12 <0> d           0.242   3.945  -0.494  0.00  0.00     0.033 H 
ENDBRANCH   3  16
BRANCH   4  20
ATOM     20  N2  <0> d           3.582   2.132  -0.021  0.00  0.00    -0.399 N 
ATOM     21  H8  <0> d           4.429   1.661  -0.032  0.00  0.00     0.156 HD
ATOM     22  H9  <0> d           3.565   3.102  -0.016  0.00  0.00     0.156 HD
ENDBRANCH   4  20
TORSDOF 4
