REMARK  5 active torsions:
REMARK  status: ('A' for Active; 'I' for Inactive)
REMARK    1  A    between atoms: C1_1  and  C2_2 
REMARK    2  A    between atoms: C2_2  and  O1_3 
REMARK    3  A    between atoms: O1_3  and  C3_4 
REMARK    4  A    between atoms: C3_4  and  C4_6 
REMARK    5  A    between atoms: C3_4  and  O2_9 
ROOT
ATOM      1  O1  <0> d          -0.855   3.311   1.220  0.00  0.00    -0.356 OA
ENDROOT
BRANCH   1   2
ATOM      2  C2  <0> d          -1.612   3.866   2.298  0.00  0.00     0.019 C 
ATOM      3  H5  <0> d          -2.621   3.456   2.283  0.00  0.00     0.073 H 
ATOM      4  H6  <0> d          -1.132   3.617   3.244  0.00  0.00     0.073 H 
BRANCH   2   5
ATOM      5  C1  <0> d          -1.677   5.387   2.145  0.00  0.00    -0.056 C 
ATOM      6  H2  <0> d          -2.254   5.811   2.967  0.00  0.00     0.030 H 
ATOM      7  H3  <0> d          -0.667   5.798   2.160  0.00  0.00     0.030 H 
ATOM      8  H4  <0> d          -2.156   5.637   1.198  0.00  0.00     0.030 H 
ENDBRANCH   2   5
ENDBRANCH   1   2
BRANCH   1   9
ATOM      9  C3  <0> d          -0.733   1.888   1.268  0.00  0.00     0.184 C 
ATOM     10  H1  <0> d          -1.725   1.440   1.321  0.00  0.00     0.137 H 
BRANCH   9  11
ATOM     11  C4  <0> d          -0.017   1.395   0.010  0.00  0.00     0.254 C 
ATOM     12  F1  <0> d           0.002  -0.004   0.002  0.00  0.00    -0.209 F 
ATOM     13  F2  <0> d           1.296   1.879  -0.000  0.00  0.00    -0.209 F 
ATOM     14  H7  <0> d          -0.544   1.756  -0.873  0.00  0.00     0.153 H 
ENDBRANCH   9  11
BRANCH   9  15
ATOM     15  O2  <0> d           0.021   1.514   2.423  0.00  0.00    -0.366 OA
ATOM     16  H8  <0> d           0.917   1.878   2.443  0.00  0.00     0.212 HD
ENDBRANCH   9  15
ENDBRANCH   1   9
TORSDOF 5
