REMARK  4 active torsions:
REMARK  status: ('A' for Active; 'I' for Inactive)
REMARK    1  A    between atoms: C1_1  and  C2_2 
REMARK    2  A    between atoms: C5_5  and  N1_9 
REMARK    3  A    between atoms: C7_7  and  C8_8 
REMARK    4  A    between atoms: N1_9  and  C9_10 
ROOT
ATOM      1  C2  <0> d          -3.645   2.998   0.036  0.00  0.00    -0.056 A 
ATOM      2  C3  <0> d          -2.458   3.708   0.034  0.00  0.00    -0.075 A 
ATOM      3  C4  <0> d          -1.251   3.037   0.030  0.00  0.00    -0.057 A 
ATOM      4  C5  <0> d          -1.230   1.648   0.017  0.00  0.00     0.028 A 
ATOM      5  C6  <0> d          -2.424   0.939   0.019  0.00  0.00    -0.051 A 
ATOM      6  C7  <0> d          -3.628   1.616   0.029  0.00  0.00    -0.054 A 
ATOM      7  H4  <0> d          -2.474   4.788   0.041  0.00  0.00     0.084 H 
ATOM      8  H5  <0> d          -0.324   3.591   0.033  0.00  0.00     0.086 H 
ATOM      9  H6  <0> d          -2.412  -0.141   0.013  0.00  0.00     0.087 H 
ENDROOT
BRANCH   4  10
ATOM     10  N1  <0> d          -0.011   0.966   0.007  0.00  0.00    -0.394 N 
ATOM     11  H10 <0> d           0.004  -0.134   0.006  0.00  0.00     0.159 HD
BRANCH  10  12
ATOM     12  C9  <0> d           1.248   1.716  -0.001  0.00  0.00    -0.021 C 
ATOM     13  H11 <0> d           2.093   1.012  -0.007  0.00  0.00     0.056 H 
ATOM     14  H12 <0> d           1.304   2.348   0.898  0.00  0.00     0.056 H 
ATOM     15  H13 <0> d           1.291   2.350  -0.898  0.00  0.00     0.056 H 
ENDBRANCH  10  12
ENDBRANCH   4  10
BRANCH   6  16
ATOM     16  C8  <0> d          -4.924   0.847   0.030  0.00  0.00    -0.051 C 
ATOM     17  H7  <0> d          -4.711  -0.232   0.024  0.00  0.00     0.033 H 
ATOM     18  H8  <0> d          -5.508   1.111  -0.864  0.00  0.00     0.033 H 
ATOM     19  H9  <0> d          -5.500   1.101   0.933  0.00  0.00     0.033 H 
ENDBRANCH   6  16
BRANCH   1  20
ATOM     20  C1  <0> d          -4.960   3.734   0.046  0.00  0.00    -0.051 C 
ATOM     21  H1  <0> d          -4.774   4.818   0.051  0.00  0.00     0.033 H 
ATOM     22  H2  <0> d          -5.529   3.456   0.945  0.00  0.00     0.033 H 
ATOM     23  H3  <0> d          -5.537   3.465  -0.851  0.00  0.00     0.033 H 
ENDBRANCH   1  20
TORSDOF 4
