REMARK  5 active torsions:
REMARK  status: ('A' for Active; 'I' for Inactive)
REMARK    1  A    between atoms: C1_1  and  C2_2 
REMARK    2  A    between atoms: C2_2  and  O1_3 
REMARK    3  A    between atoms: O1_3  and  C3_4 
REMARK    4  A    between atoms: C3_4  and  C4_6 
REMARK    5  A    between atoms: C3_4  and  O2_9 
ROOT
ATOM      1  O1  <0> d          -0.682   1.547   1.184  0.00  0.00    -0.356 OA
ENDROOT
BRANCH   1   2
ATOM      2  C2  <0> d          -1.951   0.931   1.409  0.00  0.00     0.019 C 
ATOM      3  H5  <0> d          -1.818  -0.156   1.517  0.00  0.00     0.073 H 
ATOM      4  H6  <0> d          -2.615   1.136   0.557  0.00  0.00     0.073 H 
BRANCH   2   5
ATOM      5  C1  <0> d          -2.573   1.497   2.688  0.00  0.00    -0.056 C 
ATOM      6  H2  <0> d          -3.550   1.023   2.861  0.00  0.00     0.030 H 
ATOM      7  H3  <0> d          -2.706   2.584   2.580  0.00  0.00     0.030 H 
ATOM      8  H4  <0> d          -1.909   1.292   3.540  0.00  0.00     0.030 H 
ENDBRANCH   2   5
ENDBRANCH   1   2
BRANCH   1   9
ATOM      9  C3  <0> d          -0.013   1.086   0.008  0.00  0.00     0.184 C 
ATOM     10  H1  <0> d          -0.069  -0.013   0.003  0.00  0.00     0.137 H 
BRANCH   9  11
ATOM     11  C4  <0> d           1.423   1.615  -0.003  0.00  0.00     0.254 C 
ATOM     12  F1  <0> d           2.099   1.152   1.131  0.00  0.00    -0.209 F 
ATOM     13  F2  <0> d           2.078   1.164  -1.154  0.00  0.00    -0.209 F 
ATOM     14  H7  <0> d           1.502   2.712   0.003  0.00  0.00     0.153 H 
ENDBRANCH   9  11
BRANCH   9  15
ATOM     15  O2  <0> d          -0.704   1.559  -1.150  0.00  0.00    -0.366 OA
ATOM     16  H8  <0> d          -0.334   1.304  -2.154  0.00  0.00     0.212 HD
ENDBRANCH   9  15
ENDBRANCH   1   9
TORSDOF 5
