REMARK  2 active torsions:
REMARK  status: ('A' for Active; 'I' for Inactive)
REMARK    1  A    between atoms: C1_1  and  C2_2 
REMARK    2  A    between atoms: C5_5  and  C10_12 
ROOT
ATOM      1  C2  <0> d          -1.358   4.455   0.039  0.00  0.00    -0.049 A 
ATOM      2  C3  <0> d          -0.643   5.620   0.039  0.00  0.00    -0.076 A 
ATOM      3  C4  <0> d           0.744   5.595   0.026  0.00  0.00    -0.074 A 
ATOM      4  C5  <0> d           1.426   4.398   0.013  0.00  0.00    -0.034 A 
ATOM      5  C6  <0> d           0.719   3.200   0.012  0.00  0.00     0.048 A 
ATOM      6  C7  <0> d          -0.688   3.230   0.026  0.00  0.00    -0.002 A 
ATOM      7  C8  <0> d          -1.122   1.831   0.017  0.00  0.00    -0.056 A 
ATOM      8  C9  <0> d          -0.013   1.076   0.008  0.00  0.00    -0.022 A 
ATOM      9  N1  <0> d           1.097   1.876   0.002  0.00  0.00    -0.365 N 
ATOM     10  H1  <0> d           2.014   1.559  -0.008  0.00  0.00     0.165 HD
ATOM     11  H5  <0> d          -1.163   6.566   0.050  0.00  0.00     0.084 H 
ATOM     12  H6  <0> d           1.295   6.524   0.027  0.00  0.00     0.084 H 
ATOM     13  H7  <0> d          -2.142   1.475   0.019  0.00  0.00     0.087 H 
ATOM     14  H8  <0> d           0.002  -0.004   0.002  0.00  0.00     0.111 H 
ENDROOT
BRANCH   1  15
ATOM     15  C1  <0> d          -2.865   4.492   0.053  0.00  0.00    -0.050 C 
ATOM     16  H2  <0> d          -3.218   4.494   1.085  0.00  0.00     0.033 H 
ATOM     17  H3  <0> d          -3.211   5.393  -0.452  0.00  0.00     0.033 H 
ATOM     18  H4  <0> d          -3.254   3.614  -0.462  0.00  0.00     0.033 H 
ENDBRANCH   1  15
BRANCH   4  19
ATOM     19  C10 <0> d           2.933   4.387  -0.002  0.00  0.00    -0.049 C 
ATOM     20  H9  <0> d           3.287   4.390  -1.033  0.00  0.00     0.033 H 
ATOM     21  H10 <0> d           3.308   5.271   0.514  0.00  0.00     0.033 H 
ATOM     22  H11 <0> d           3.294   3.491   0.504  0.00  0.00     0.033 H 
ENDBRANCH   4  19
TORSDOF 2
