REMARK  2 active torsions:
REMARK  status: ('A' for Active; 'I' for Inactive)
REMARK    1  A    between atoms: C1_1  and  N1_2 
REMARK    2  A    between atoms: C7_8  and  O1_11 
ROOT
ATOM      1  N1  <0> d           0.002  -0.004   0.002  0.00  0.00    -0.284 N 
ATOM      2  C2  <0> d           0.007  -0.768  -1.100  0.00  0.00     0.010 A 
ATOM      3  C3  <0> d           0.028  -2.091  -0.700  0.00  0.00     0.014 A 
ATOM      4  C4  <0> d           0.042  -3.333  -1.372  0.00  0.00    -0.069 A 
ATOM      5  C5  <0> d           0.061  -4.484  -0.654  0.00  0.00    -0.079 A 
ATOM      6  C6  <0> d           0.068  -4.479   0.743  0.00  0.00    -0.049 A 
ATOM      7  C7  <0> d           0.055  -3.319   1.455  0.00  0.00     0.097 A 
ATOM      8  C8  <0> d           0.035  -2.080   0.770  0.00  0.00     0.121 A 
ATOM      9  N2  <0> d           0.024  -0.814   1.143  0.00  0.00    -0.170 NA
ATOM     10  H4  <0> d          -0.002  -0.413  -2.120  0.00  0.00     0.115 H 
ATOM     11  H5  <0> d           0.037  -3.367  -2.451  0.00  0.00     0.085 H 
ATOM     12  H6  <0> d           0.071  -5.429  -1.176  0.00  0.00     0.083 H 
ATOM     13  H7  <0> d           0.084  -5.420   1.271  0.00  0.00     0.087 H 
ENDROOT
BRANCH   1  14
ATOM     14  C1  <0> d          -0.018   1.461   0.010  0.00  0.00     0.002 C 
ATOM     15  H1  <0> d           1.005   1.838   0.002  0.00  0.00     0.059 H 
ATOM     16  H2  <0> d          -0.545   1.822  -0.873  0.00  0.00     0.059 H 
ATOM     17  H3  <0> d          -0.528   1.812   0.907  0.00  0.00     0.059 H 
ENDBRANCH   1  14
BRANCH   7  18
ATOM     18  O1  <0> d           0.062  -3.350   2.813  0.00  0.00    -0.358 OA
ATOM     19  H8  <0> d           0.947  -3.347   3.202  0.00  0.00     0.217 HD
ENDBRANCH   7  18
TORSDOF 2
