REMARK  0 active torsions:
REMARK  status: ('A' for Active; 'I' for Inactive)
ROOT
ATOM      1  C1  <0> d          -1.224   2.033   0.019  0.00  0.00    -0.002 A 
ATOM      2  C2  <0> d          -0.016   1.347   0.009  0.00  0.00     0.137 A 
ATOM      3  C3  <0> d           1.167   2.063   0.002  0.00  0.00     0.043 A 
ATOM      4  N1  <0> d           1.159   3.382   0.009  0.00  0.00    -0.227 NA
ATOM      5  C4  <0> d           0.032   4.069   0.023  0.00  0.00     0.248 A 
ATOM      6  C5  <0> d          -1.194   3.420   0.031  0.00  0.00     0.177 A 
ATOM      7  F1  <0> d          -2.345   4.129   0.045  0.00  0.00    -0.201 F 
ATOM      8  F2  <0> d           0.073   5.420   0.030  0.00  0.00    -0.181 F 
ATOM      9  F3  <0> d           0.002  -0.004   0.002  0.00  0.00    -0.204 F 
ATOM     10  H1  <0> d          -2.163   1.500   0.020  0.00  0.00     0.093 H 
ATOM     11  H2  <0> d           2.110   1.536  -0.009  0.00  0.00     0.119 H 
ENDROOT
TORSDOF 0
