REMARK  4 active torsions:
REMARK  status: ('A' for Active; 'I' for Inactive)
REMARK    1  A    between atoms: C1_1  and  C2_2 
REMARK    2  A    between atoms: C2_2  and  C3_3 
REMARK    3  A    between atoms: C3_3  and  C4_5 
REMARK    4  A    between atoms: C3_3  and  N1_6 
ROOT
ATOM      1  C3  <0> d           0.718  -0.497  -1.257  0.00  0.00     0.011 C 
ATOM      2  H1  <0> d           0.244  -0.064  -2.138  0.00  0.00     0.072 H 
ENDROOT
BRANCH   1   3
ATOM      3  C2  <0> d           0.002  -0.004   0.002  0.00  0.00    -0.050 C 
ATOM      4  H5  <0> d           0.529  -0.365   0.885  0.00  0.00     0.035 H 
ATOM      5  H6  <0> d          -1.020  -0.381   0.010  0.00  0.00     0.035 H 
BRANCH   3   6
ATOM      6  C1  <0> d          -0.019   1.526   0.010  0.00  0.00    -0.075 C 
ATOM      7  H2  <0> d           1.004   1.903   0.003  0.00  0.00     0.027 H 
ATOM      8  H3  <0> d          -0.546   1.887  -0.873  0.00  0.00     0.027 H 
ATOM      9  H4  <0> d          -0.529   1.877   0.907  0.00  0.00     0.027 H 
ENDBRANCH   3   6
ENDBRANCH   1   3
BRANCH   1  10
ATOM     10  C4  <0> d           0.630  -2.023  -1.329  0.00  0.00    -0.057 C 
ATOM     11  H7  <0> d           1.104  -2.456  -0.448  0.00  0.00     0.030 H 
ATOM     12  H8  <0> d          -0.416  -2.326  -1.364  0.00  0.00     0.030 H 
ATOM     13  H9  <0> d           1.141  -2.375  -2.225  0.00  0.00     0.030 H 
ENDBRANCH   1  10
BRANCH   1  14
ATOM     14  N1  <0> d           2.125  -0.091  -1.209  0.00  0.00    -0.348 N 
ATOM     15  C8  <0> d           2.988  -0.457  -0.246  0.00  0.00     0.220 C 
ATOM     16  C7  <0> d           4.349   0.148  -0.510  0.00  0.00     0.011 C 
ATOM     17  O1  <0> d           2.716  -1.170   0.696  0.00  0.00    -0.273 OA
ATOM     18  C6  <0> d           4.071   1.272  -1.534  0.00  0.00    -0.042 C 
ATOM     19  H14 <0> d           5.026  -0.595  -0.933  0.00  0.00     0.047 H 
ATOM     20  H15 <0> d           4.764   0.564   0.409  0.00  0.00     0.047 H 
ATOM     21  C5  <0> d           2.771   0.773  -2.204  0.00  0.00    -0.002 C 
ATOM     22  H12 <0> d           4.880   1.347  -2.261  0.00  0.00     0.036 H 
ATOM     23  H13 <0> d           3.909   2.226  -1.033  0.00  0.00     0.036 H 
ATOM     24  H10 <0> d           3.005   0.203  -3.103  0.00  0.00     0.064 H 
ATOM     25  H11 <0> d           2.125   1.616  -2.449  0.00  0.00     0.064 H 
ENDBRANCH   1  14
TORSDOF 4
