REMARK  0 active torsions:
REMARK  status: ('A' for Active; 'I' for Inactive)
ROOT
ATOM      1  C1  <0> d           1.082   2.262   0.004  0.00  0.00     0.017 A 
ATOM      2  C2  <0> d          -0.017   1.428   0.010  0.00  0.00     0.080 A 
ATOM      3  C3  <0> d          -1.166   2.251   0.019  0.00  0.00     0.043 A 
ATOM      4  N1  <0> d          -0.772   3.495   0.027  0.00  0.00    -0.186 NA
ATOM      5  N2  <0> d           0.627   3.527   0.014  0.00  0.00    -0.288 N 
ATOM      6  H1  <0> d           1.193   4.351   0.013  0.00  0.00     0.188 HD
ATOM      7  C4  <0> d           0.002  -0.004   0.002  0.00  0.00     0.102 C 
ATOM      8  N3  <0> d           0.018  -1.140  -0.004  0.00  0.00    -0.191 NA
ATOM      9  H2  <0> d           2.118   1.955  -0.008  0.00  0.00     0.116 H 
ATOM     10  H3  <0> d          -2.190   1.910   0.022  0.00  0.00     0.119 H 
ENDROOT
TORSDOF 0
