REMARK  0 active torsions:
REMARK  status: ('A' for Active; 'I' for Inactive)
ROOT
ATOM      1  C1  <0> d           1.265  -0.400  -0.012  0.00  0.00     0.046 A 
ATOM      2  C2  <0> d           0.002  -0.004   0.002  0.00  0.00     0.046 A 
ATOM      3  O1  <0> d          -0.016   1.351   0.009  0.00  0.00    -0.266 OA
ATOM      4  C3  <0> d           1.255   1.782  -0.000  0.00  0.00     0.415 A 
ATOM      5  O2  <0> d           1.619   2.942   0.002  0.00  0.00    -0.229 OA
ATOM      6  O3  <0> d           2.054   0.702  -0.014  0.00  0.00    -0.266 OA
ATOM      7  H1  <0> d           1.607  -1.424  -0.021  0.00  0.00     0.126 H 
ATOM      8  H2  <0> d          -0.864  -0.649   0.007  0.00  0.00     0.126 H 
ENDROOT
TORSDOF 0
