REMARK  3 active torsions:
REMARK  status: ('A' for Active; 'I' for Inactive)
REMARK    1  A    between atoms: C1_1  and  C2_2 
REMARK    2  A    between atoms: C2_2  and  C3_3 
REMARK    3  A    between atoms: C3_3  and  C4_4 
ROOT
ATOM      1  C4  <0> d           0.763  -2.041   1.233  0.00  0.00    -0.031 C 
ATOM      2  H1  <0> d           1.178  -2.418   0.299  0.00  0.00     0.043 H 
ATOM      3  C5  <0> d          -0.651  -2.615   1.482  0.00  0.00     0.014 C 
ATOM      4  C6  <0> d          -0.409  -3.841   2.333  0.00  0.00     0.217 C 
ATOM      5  O1  <0> d          -1.215  -4.730   2.516  0.00  0.00    -0.274 OA
ATOM      6  N1  <0> d           0.828  -3.804   2.857  0.00  0.00    -0.361 N 
ATOM      7  C7  <0> d           1.544  -2.590   2.447  0.00  0.00    -0.001 C 
ATOM      8  H9  <0> d          -1.267  -1.893   2.019  0.00  0.00     0.047 H 
ATOM      9  H10 <0> d          -1.122  -2.892   0.538  0.00  0.00     0.047 H 
ATOM     10  H11 <0> d           1.200  -4.492   3.431  0.00  0.00     0.162 HD
ATOM     11  H12 <0> d           2.567  -2.833   2.159  0.00  0.00     0.064 H 
ATOM     12  H13 <0> d           1.544  -1.860   3.257  0.00  0.00     0.064 H 
ENDROOT
BRANCH   1  13
ATOM     13  C3  <0> d           0.742  -0.511   1.242  0.00  0.00    -0.060 C 
ATOM     14  H7  <0> d           1.765  -0.134   1.234  0.00  0.00     0.033 H 
ATOM     15  H8  <0> d           0.232  -0.159   2.138  0.00  0.00     0.033 H 
BRANCH  13  16
ATOM     16  C2  <0> d           0.002  -0.004   0.002  0.00  0.00    -0.068 C 
ATOM     17  H5  <0> d          -1.020  -0.381   0.010  0.00  0.00     0.032 H 
ATOM     18  H6  <0> d           0.512  -0.356  -0.895  0.00  0.00     0.032 H 
BRANCH  16  19
ATOM     19  C1  <0> d          -0.019   1.526   0.010  0.00  0.00    -0.077 C 
ATOM     20  H2  <0> d           1.004   1.903   0.003  0.00  0.00     0.027 H 
ATOM     21  H3  <0> d          -0.546   1.887  -0.873  0.00  0.00     0.027 H 
ATOM     22  H4  <0> d          -0.529   1.877   0.907  0.00  0.00     0.027 H 
ENDBRANCH  16  19
ENDBRANCH  13  16
ENDBRANCH   1  13
TORSDOF 3
