REMARK  0 active torsions:
REMARK  status: ('A' for Active; 'I' for Inactive)
ROOT
ATOM      1  C1  <0> d          -0.017   1.382   0.010  0.00  0.00    -0.065 A 
ATOM      2  C2  <0> d           1.179   2.078   0.002  0.00  0.00    -0.064 A 
ATOM      3  C3  <0> d           2.364   1.340  -0.013  0.00  0.00     0.060 A 
ATOM      4  C4  <0> d           3.682   1.996  -0.022  0.00  0.00     0.187 A 
ATOM      5  C5  <0> d           4.830   1.167  -0.037  0.00  0.00    -0.019 A 
ATOM      6  C6  <0> d           4.691  -0.174  -0.043  0.00  0.00    -0.017 A 
ATOM      7  N1  <0> d           3.480  -0.784  -0.035  0.00  0.00    -0.350 N 
ATOM      8  C7  <0> d           2.308  -0.066  -0.020  0.00  0.00     0.141 A 
ATOM      9  N2  <0> d           1.133  -0.679  -0.012  0.00  0.00    -0.242 NA
ATOM     10  C8  <0> d           0.002  -0.004   0.002  0.00  0.00     0.004 A 
ATOM     11  O1  <0> d           3.782   3.212  -0.017  0.00  0.00    -0.287 OA
ATOM     12  H1  <0> d          -0.956   1.914   0.026  0.00  0.00     0.085 H 
ATOM     13  H2  <0> d           1.195   3.157   0.007  0.00  0.00     0.085 H 
ATOM     14  H3  <0> d           5.815   1.609  -0.044  0.00  0.00     0.091 H 
ATOM     15  H4  <0> d           5.580  -0.787  -0.055  0.00  0.00     0.111 H 
ATOM     16  H5  <0> d          -0.933  -0.544   0.008  0.00  0.00     0.114 H 
ATOM     17  H6  <0> d           3.440  -1.753  -0.040  0.00  0.00     0.166 HD
ENDROOT
TORSDOF 0
