REMARK  0 active torsions:
REMARK  status: ('A' for Active; 'I' for Inactive)
ROOT
ATOM      1  C1  <0> d          -0.017   1.385   0.010  0.00  0.00    -0.064 A 
ATOM      2  C2  <0> d           0.002  -0.004   0.002  0.00  0.00    -0.051 A 
ATOM      3  C3  <0> d           1.232  -0.642  -0.013  0.00  0.00     0.088 A 
ATOM      4  C4  <0> d           2.401   0.122  -0.019  0.00  0.00     0.192 A 
ATOM      5  N1  <0> d           2.335   1.441  -0.012  0.00  0.00    -0.235 NA
ATOM      6  C5  <0> d           1.178   2.077   0.002  0.00  0.00     0.005 A 
ATOM      7  O1  <0> d           3.604  -0.510  -0.032  0.00  0.00    -0.323 OA
ATOM      8  C6  <0> d           3.682  -1.761   0.655  0.00  0.00     0.101 C 
ATOM      9  C7  <0> d           2.502  -2.621   0.280  0.00  0.00     0.246 C 
ATOM     10  O2  <0> d           2.613  -3.829   0.249  0.00  0.00    -0.271 OA
ATOM     11  N2  <0> d           1.320  -2.039  -0.022  0.00  0.00    -0.322 N 
ATOM     12  H1  <0> d          -0.956   1.918   0.017  0.00  0.00     0.085 H 
ATOM     13  H2  <0> d          -0.917  -0.571   0.007  0.00  0.00     0.087 H 
ATOM     14  H3  <0> d           1.165   3.156   0.008  0.00  0.00     0.114 H 
ATOM     15  H4  <0> d           4.605  -2.270   0.378  0.00  0.00     0.089 H 
ATOM     16  H5  <0> d           3.674  -1.585   1.731  0.00  0.00     0.089 H 
ATOM     17  H6  <0> d           0.545  -2.581  -0.241  0.00  0.00     0.169 HD
ENDROOT
TORSDOF 0
