REMARK  3 active torsions:
REMARK  status: ('A' for Active; 'I' for Inactive)
REMARK    1  A    between atoms: C1_1  and  C2_2 
REMARK    2  A    between atoms: C6_6  and  C8_8 
REMARK    3  A    between atoms: C8_8  and  C9_9 
ROOT
ATOM      1  C2  <0> d           0.002  -0.004   0.002  0.00  0.00    -0.061 A 
ATOM      2  C3  <0> d           0.006  -0.689  -1.199  0.00  0.00    -0.077 A 
ATOM      3  C4  <0> d           0.025  -2.071  -1.207  0.00  0.00    -0.082 A 
ATOM      4  C5  <0> d           0.040  -2.768  -0.013  0.00  0.00    -0.077 A 
ATOM      5  C6  <0> d           0.037  -2.084   1.188  0.00  0.00    -0.054 A 
ATOM      6  C7  <0> d           0.023  -0.702   1.195  0.00  0.00    -0.071 A 
ATOM      7  H4  <0> d          -0.006  -0.144  -2.131  0.00  0.00     0.084 H 
ATOM      8  H5  <0> d           0.027  -2.606  -2.145  0.00  0.00     0.083 H 
ATOM      9  H6  <0> d           0.054  -3.848  -0.019  0.00  0.00     0.084 H 
ATOM     10  H7  <0> d           0.025  -0.167   2.133  0.00  0.00     0.085 H 
ENDROOT
BRANCH   5  11
ATOM     11  C8  <0> d           0.054  -2.845   2.489  0.00  0.00    -0.027 C 
ATOM     12  H8  <0> d          -0.464  -2.266   3.254  0.00  0.00     0.045 H 
ATOM     13  H9  <0> d          -0.448  -3.803   2.356  0.00  0.00     0.045 H 
BRANCH  11  14
ATOM     14  C9  <0> d           1.480  -3.080   2.915  0.00  0.00    -0.108 C 
ATOM     15  C10 <0> d           1.882  -2.692   4.100  0.00  0.00    -0.124 C 
ATOM     16  H11 <0> d           1.191  -2.204   4.771  0.00  0.00     0.066 H 
ATOM     17  H12 <0> d           2.904  -2.861   4.405  0.00  0.00     0.066 H 
ATOM     18  H10 <0> d           2.171  -3.568   2.243  0.00  0.00     0.076 H 
ENDBRANCH  11  14
ENDBRANCH   5  11
BRANCH   1  19
ATOM     19  C1  <0> d          -0.018   1.503   0.010  0.00  0.00    -0.051 C 
ATOM     20  H1  <0> d           1.004   1.880   0.003  0.00  0.00     0.033 H 
ATOM     21  H2  <0> d          -0.545   1.864  -0.873  0.00  0.00     0.033 H 
ATOM     22  H3  <0> d          -0.529   1.854   0.907  0.00  0.00     0.033 H 
ENDBRANCH   1  19
TORSDOF 3
