REMARK  5 active torsions:
REMARK  status: ('A' for Active; 'I' for Inactive)
REMARK    1  A    between atoms: C1_1  and  C2_2 
REMARK    2  A    between atoms: C2_2  and  O1_3 
REMARK    3  A    between atoms: O1_3  and  C3_4 
REMARK    4  A    between atoms: C3_4  and  C4_6 
REMARK    5  A    between atoms: C6_9  and  C7_11 
ROOT
ATOM      1  C4  <0> d          -0.817   1.643   3.667  0.00  0.00     0.034 A 
ATOM      2  H1  <0> d          -1.276   2.631   3.640  0.00  0.00     0.056 H 
ATOM      3  C5  <0> d          -1.490   0.573   4.529  0.00  0.00    -0.049 A 
ATOM      4  C6  <0> d          -0.169   1.199   4.980  0.00  0.00    -0.045 A 
ATOM      5  H2  <0> d           0.728   0.583   4.916  0.00  0.00     0.040 H 
ATOM      6  H8  <0> d          -2.393   0.857   5.070  0.00  0.00     0.034 H 
ATOM      7  H9  <0> d          -1.463  -0.455   4.168  0.00  0.00     0.034 H 
ENDROOT
BRANCH   1   8
ATOM      8  C3  <0> d          -0.166   1.194   2.384  0.00  0.00     0.263 C 
ATOM      9  O2  <0> d           0.829   0.510   2.418  0.00  0.00    -0.265 OA
BRANCH   8  10
ATOM     10  O1  <0> d          -0.692   1.554   1.203  0.00  0.00    -0.322 OA
BRANCH  10  11
ATOM     11  C2  <0> d          -0.013   1.086   0.008  0.00  0.00     0.025 C 
ATOM     12  H6  <0> d           0.002  -0.004   0.002  0.00  0.00     0.074 H 
ATOM     13  H7  <0> d           1.010   1.463   0.000  0.00  0.00     0.074 H 
BRANCH  11  14
ATOM     14  C1  <0> d          -0.753   1.593  -1.232  0.00  0.00    -0.056 C 
ATOM     15  H3  <0> d          -0.767   2.683  -1.226  0.00  0.00     0.030 H 
ATOM     16  H4  <0> d          -0.242   1.241  -2.128  0.00  0.00     0.030 H 
ATOM     17  H5  <0> d          -1.775   1.215  -1.224  0.00  0.00     0.030 H 
ENDBRANCH  11  14
ENDBRANCH  10  11
ENDBRANCH   8  10
ENDBRANCH   1   8
BRANCH   4  18
ATOM     18  C7  <0> d          -0.216   2.177   6.156  0.00  0.00    -0.072 C 
ATOM     19  H10 <0> d          -1.254   2.396   6.406  0.00  0.00     0.028 H 
ATOM     20  H11 <0> d           0.280   1.732   7.019  0.00  0.00     0.028 H 
ATOM     21  H12 <0> d           0.294   3.101   5.881  0.00  0.00     0.028 H 
ENDBRANCH   4  18
TORSDOF 5
