REMARK  4 active torsions:
REMARK  status: ('A' for Active; 'I' for Inactive)
REMARK    1  A    between atoms: C1_1  and  C2_2 
REMARK    2  A    between atoms: C2_2  and  C3_3 
REMARK    3  A    between atoms: C3_3  and  C4_4 
REMARK    4  A    between atoms: C5_5  and  N3_9 
ROOT
ATOM      1  C3  <0> d          -0.735   2.019   1.269  0.00  0.00    -0.019 C 
ATOM      2  H6  <0> d          -1.767   1.639   1.277  0.00  0.00     0.042 H 
ATOM      3  H7  <0> d          -0.203   1.655   2.160  0.00  0.00     0.042 H 
ENDROOT
BRANCH   1   4
ATOM      4  C2  <0> d          -0.019   1.526   0.010  0.00  0.00    -0.063 C 
ATOM      5  H4  <0> d           1.013   1.907   0.003  0.00  0.00     0.033 H 
ATOM      6  H5  <0> d          -0.551   1.890  -0.881  0.00  0.00     0.033 H 
BRANCH   4   7
ATOM      7  C1  <0> d           0.002  -0.004   0.002  0.00  0.00    -0.076 C 
ATOM      8  H1  <0> d           0.517  -0.359  -0.903  0.00  0.00     0.027 H 
ATOM      9  H2  <0> d          -1.030  -0.385   0.010  0.00  0.00     0.027 H 
ATOM     10  H3  <0> d           0.534  -0.368   0.893  0.00  0.00     0.027 H 
ENDBRANCH   4   7
ENDBRANCH   1   4
BRANCH   1  11
ATOM     11  C4  <0> d          -0.755   3.526   1.278  0.00  0.00     0.111 A 
ATOM     12  N2  <0> d           0.149   4.294   1.805  0.00  0.00    -0.106 NA
ATOM     13  O1  <0> d          -0.243   5.639   1.595  0.00  0.00    -0.105 OA
ATOM     14  N1  <0> d          -1.477   5.618   0.898  0.00  0.00    -0.085 NA
ATOM     15  C5  <0> d          -1.799   4.368   0.699  0.00  0.00     0.178 A 
BRANCH  15  16
ATOM     16  N3  <0> d          -2.942   3.916   0.048  0.00  0.00    -0.380 N 
ATOM     17  H8  <0> d          -3.669   4.638  -0.353  0.00  0.00     0.157 HD
ATOM     18  H9  <0> d          -3.119   2.837  -0.067  0.00  0.00     0.157 HD
ENDBRANCH  15  16
ENDBRANCH   1  11
TORSDOF 4
