REMARK  6 active torsions:
REMARK  status: ('A' for Active; 'I' for Inactive)
REMARK    1  A    between atoms: C1_1  and  C2_2 
REMARK    2  A    between atoms: C2_2  and  C3_4 
REMARK    3  A    between atoms: C2_2  and  C6_8 
REMARK    4  A    between atoms: C3_4  and  C4_5 
REMARK    5  A    between atoms: C4_5  and  C5_6 
REMARK    6  A    between atoms: C6_8  and  C7_9 
ROOT
ATOM      1  C2  <0> d          -2.479   0.930   0.019  0.00  0.00    -0.048 C 
ATOM      2  H1  <0> d          -2.367   0.252  -0.827  0.00  0.00     0.040 H 
ENDROOT
BRANCH   1   3
ATOM      3  C1  <0> d          -2.453   0.128   1.322  0.00  0.00    -0.072 C 
ATOM      4  H2  <0> d          -2.566   0.806   2.168  0.00  0.00     0.028 H 
ATOM      5  H3  <0> d          -3.272  -0.591   1.322  0.00  0.00     0.028 H 
ATOM      6  H4  <0> d          -1.504  -0.402   1.404  0.00  0.00     0.028 H 
ENDBRANCH   1   3
BRANCH   1   7
ATOM      7  C3  <0> d          -3.811   1.673  -0.097  0.00  0.00    -0.053 C 
ATOM      8  H5  <0> d          -3.964   2.284   0.793  0.00  0.00     0.034 H 
ATOM      9  H6  <0> d          -3.795   2.313  -0.979  0.00  0.00     0.034 H 
BRANCH   7  10
ATOM     10  C4  <0> d          -4.951   0.661  -0.222  0.00  0.00     0.016 C 
ATOM     11  H7  <0> d          -4.798   0.049  -1.111  0.00  0.00     0.049 H 
ATOM     12  H8  <0> d          -4.967   0.021   0.660  0.00  0.00     0.049 H 
BRANCH  10  13
ATOM     13  C5  <0> d          -6.263   1.393  -0.336  0.00  0.00     0.172 C 
ATOM     14  O1  <0> d          -6.285   2.601  -0.318  0.00  0.00    -0.648 OA
ATOM     15  O3  <0> d          -7.408   0.703  -0.456  0.00  0.00    -0.648 OA
ENDBRANCH  10  13
ENDBRANCH   7  10
ENDBRANCH   1   7
BRANCH   1  16
ATOM     16  C6  <0> d          -1.329   1.940   0.019  0.00  0.00     0.019 C 
ATOM     17  H9  <0> d          -1.391   2.561   0.913  0.00  0.00     0.049 H 
ATOM     18  H10 <0> d          -1.400   2.570  -0.867  0.00  0.00     0.049 H 
BRANCH  16  19
ATOM     19  C7  <0> d          -0.014   1.204   0.009  0.00  0.00     0.172 C 
ATOM     20  O2  <0> d           0.002  -0.004   0.002  0.00  0.00    -0.648 OA
ATOM     21  O4  <0> d           1.139   1.891   0.001  0.00  0.00    -0.648 OA
ENDBRANCH  16  19
ENDBRANCH   1  16
TORSDOF 6
