REMARK  2 active torsions:
REMARK  status: ('A' for Active; 'I' for Inactive)
REMARK    1  A    between atoms: C1_1  and  N1_2 
REMARK    2  A    between atoms: C5_6  and  C6_7 
ROOT
ATOM      1  N1  <0> d           0.161   3.912   0.021  0.00  0.00    -0.354 N 
ATOM      2  C2  <0> d           0.621   5.187   0.025  0.00  0.00     0.001 A 
ATOM      3  C3  <0> d           1.976   5.165   0.012  0.00  0.00     0.051 A 
ATOM      4  C4  <0> d           2.383   3.827   0.006  0.00  0.00    -0.028 A 
ATOM      5  C5  <0> d           1.239   3.055   0.007  0.00  0.00     0.113 A 
ATOM      6 Cl1  <0> d           3.021   6.551   0.010  0.00  0.00    -0.083 Cl
ATOM      7  H4  <0> d           0.007   6.076   0.036  0.00  0.00     0.114 H 
ATOM      8  H5  <0> d           3.401   3.466  -0.000  0.00  0.00     0.090 H 
ENDROOT
BRANCH   1   9
ATOM      9  C1  <0> d          -1.248   3.511   0.033  0.00  0.00    -0.014 C 
ATOM     10  H1  <0> d          -1.588   3.406   1.063  0.00  0.00     0.057 H 
ATOM     11  H2  <0> d          -1.846   4.271  -0.471  0.00  0.00     0.057 H 
ATOM     12  H3  <0> d          -1.359   2.558  -0.485  0.00  0.00     0.057 H 
ENDBRANCH   1   9
BRANCH   5  13
ATOM     13  C6  <0> d           1.182   1.591  -0.001  0.00  0.00     0.227 C 
ATOM     14  O1  <0> d           2.211   0.943  -0.014  0.00  0.00    -0.643 OA
ATOM     15  O2  <0> d          -0.011   0.963   0.007  0.00  0.00    -0.643 OA
ENDBRANCH   5  13
TORSDOF 2
