REMARK  5 active torsions:
REMARK  status: ('A' for Active; 'I' for Inactive)
REMARK    1  A    between atoms: C1_1  and  C2_2 
REMARK    2  A    between atoms: C2_2  and  C3_3 
REMARK    3  A    between atoms: C2_2  and  C4_4 
REMARK    4  A    between atoms: C2_2  and  O1_11 
REMARK    5  A    between atoms: C4_4  and  C5_5 
ROOT
ATOM      1  C4  <0> d          -0.070   5.347   0.031  0.00  0.00    -0.013 C 
ATOM      2  H7  <0> d          -0.960   5.696   0.555  0.00  0.00     0.044 H 
ATOM      3  H8  <0> d           0.819   5.720   0.538  0.00  0.00     0.044 H 
ENDROOT
BRANCH   1   4
ATOM      4  C2  <0> d          -0.091   5.865  -1.409  0.00  0.00     0.054 C 
BRANCH   4   5
ATOM      5  C1  <0> d           0.014   7.391  -1.403  0.00  0.00    -0.048 C 
ATOM      6  H1  <0> d           0.946   7.690  -0.923  0.00  0.00     0.031 H 
ATOM      7  H2  <0> d          -0.001   7.760  -2.429  0.00  0.00     0.031 H 
ATOM      8  H3  <0> d          -0.829   7.811  -0.854  0.00  0.00     0.031 H 
ENDBRANCH   4   5
BRANCH   4   9
ATOM      9  C3  <0> d           1.091   5.275  -2.180  0.00  0.00    -0.048 C 
ATOM     10  H4  <0> d           1.016   4.188  -2.183  0.00  0.00     0.031 H 
ATOM     11  H5  <0> d           1.077   5.644  -3.205  0.00  0.00     0.031 H 
ATOM     12  H6  <0> d           2.023   5.573  -1.700  0.00  0.00     0.031 H 
ENDBRANCH   4   9
BRANCH   4  13
ATOM     13  O1  <0> d          -1.313   5.474  -2.038  0.00  0.00    -0.390 OA
ATOM     14  H14 <0> d          -1.395   5.769  -2.955  0.00  0.00     0.210 HD
ENDBRANCH   4  13
ENDBRANCH   1   4
BRANCH   1  15
ATOM     15  C5  <0> d          -0.050   3.840   0.023  0.00  0.00    -0.055 A 
ATOM     16  C10 <0> d          -1.238   3.133   0.030  0.00  0.00    -0.077 A 
ATOM     17  C9  <0> d          -1.219   1.751   0.017  0.00  0.00    -0.082 A 
ATOM     18  H13 <0> d          -2.180   3.660   0.041  0.00  0.00     0.084 H 
ATOM     19  C8  <0> d          -0.013   1.076   0.008  0.00  0.00    -0.083 A 
ATOM     20  H12 <0> d          -2.147   1.198   0.019  0.00  0.00     0.083 H 
ATOM     21  C7  <0> d           1.175   1.783   0.000  0.00  0.00    -0.082 A 
ATOM     22  H11 <0> d           0.002  -0.004   0.002  0.00  0.00     0.083 H 
ATOM     23  C6  <0> d           1.156   3.165   0.008  0.00  0.00    -0.077 A 
ATOM     24  H10 <0> d           2.118   1.256  -0.011  0.00  0.00     0.083 H 
ATOM     25  H9  <0> d           2.084   3.718   0.002  0.00  0.00     0.084 H 
ENDBRANCH   1  15
TORSDOF 5
