REMARK  4 active torsions:
REMARK  status: ('A' for Active; 'I' for Inactive)
REMARK    1  A    between atoms: C1_1  and  C2_2 
REMARK    2  A    between atoms: C5_5  and  C8_10 
REMARK    3  A    between atoms: C6_6  and  N2_9 
REMARK    4  A    between atoms: C7_7  and  N1_8 
ROOT
ATOM      1  C2  <0> d          -1.254   3.035   0.030  0.00  0.00    -0.034 A 
ATOM      2  C3  <0> d          -2.462   3.708   0.034  0.00  0.00    -0.074 A 
ATOM      3  C4  <0> d          -3.651   3.003   0.036  0.00  0.00    -0.074 A 
ATOM      4  C5  <0> d          -3.639   1.620   0.028  0.00  0.00    -0.034 A 
ATOM      5  C6  <0> d          -2.433   0.937   0.019  0.00  0.00     0.058 A 
ATOM      6  C7  <0> d          -1.233   1.649   0.017  0.00  0.00     0.058 A 
ATOM      7  H4  <0> d          -2.477   4.788   0.041  0.00  0.00     0.084 H 
ATOM      8  H5  <0> d          -4.592   3.534   0.043  0.00  0.00     0.084 H 
ENDROOT
BRANCH   1   9
ATOM      9  C1  <0> d           0.039   3.809   0.035  0.00  0.00    -0.049 C 
ATOM     10  H1  <0> d           0.349   4.005  -0.991  0.00  0.00     0.033 H 
ATOM     11  H2  <0> d          -0.104   4.754   0.558  0.00  0.00     0.033 H 
ATOM     12  H3  <0> d           0.809   3.226   0.542  0.00  0.00     0.033 H 
ENDBRANCH   1   9
BRANCH   6  13
ATOM     13  N1  <0> d          -0.011   0.966   0.007  0.00  0.00    -0.397 N 
ATOM     14  H6  <0> d           0.002  -0.004   0.002  0.00  0.00     0.156 HD
ATOM     15  H7  <0> d           0.822   1.462   0.002  0.00  0.00     0.156 HD
ENDBRANCH   6  13
BRANCH   5  16
ATOM     16  N2  <0> d          -2.418  -0.463   0.011  0.00  0.00    -0.397 N 
ATOM     17  H8  <0> d          -1.574  -0.939   0.005  0.00  0.00     0.156 HD
ATOM     18  H9  <0> d          -3.254  -0.956   0.013  0.00  0.00     0.156 HD
ENDBRANCH   5  16
BRANCH   4  19
ATOM     19  C8  <0> d          -4.938   0.856   0.030  0.00  0.00    -0.049 C 
ATOM     20  H10 <0> d          -5.246   0.665   1.058  0.00  0.00     0.033 H 
ATOM     21  H11 <0> d          -5.705   1.441  -0.477  0.00  0.00     0.033 H 
ATOM     22  H12 <0> d          -4.802  -0.093  -0.490  0.00  0.00     0.033 H 
ENDBRANCH   4  19
TORSDOF 4
