REMARK  7 active torsions:
REMARK  status: ('A' for Active; 'I' for Inactive)
REMARK    1  A    between atoms: C1_1  and  C2_2 
REMARK    2  A    between atoms: C2_2  and  O1_3 
REMARK    3  A    between atoms: O1_3  and  C3_4 
REMARK       I    between atoms: C3_4  and  N1_6 
REMARK    4  A    between atoms: N1_6  and  C4_7 
REMARK    5  A    between atoms: N1_6  and  C5_8 
REMARK    6  A    between atoms: C5_8  and  C6_9 
REMARK    7  A    between atoms: C6_9  and  O3_10 
ROOT
ATOM      1  C3  <0> d           0.776  -1.798  -1.335  0.00  0.00     0.362 C 
ATOM      2  O2  <0> d           0.312  -2.549  -0.500  0.00  0.00    -0.238 OA
ATOM      3  N1  <0> d           1.395  -2.298  -2.422  0.00  0.00    -0.330 N 
ENDROOT
BRANCH   3   4
ATOM      4  C4  <0> d           1.954  -1.393  -3.429  0.00  0.00    -0.014 C 
ATOM      5  H6  <0> d           2.988  -1.159  -3.173  0.00  0.00     0.056 H 
ATOM      6  H7  <0> d           1.922  -1.872  -4.407  0.00  0.00     0.056 H 
ATOM      7  H8  <0> d           1.369  -0.473  -3.455  0.00  0.00     0.056 H 
ENDBRANCH   3   4
BRANCH   3   8
ATOM      8  C5  <0> d           1.509  -3.748  -2.597  0.00  0.00     0.019 C 
ATOM      9  H9  <0> d           2.417  -3.977  -3.155  0.00  0.00     0.067 H 
ATOM     10  H10 <0> d           1.553  -4.230  -1.620  0.00  0.00     0.067 H 
BRANCH   8  11
ATOM     11  C6  <0> d           0.293  -4.266  -3.367  0.00  0.00     0.032 C 
ATOM     12  H11 <0> d           0.333  -5.354  -3.421  0.00  0.00     0.076 H 
ATOM     13  H12 <0> d          -0.619  -3.961  -2.854  0.00  0.00     0.076 H 
BRANCH  11  14
ATOM     14  O3  <0> d           0.300  -3.724  -4.689  0.00  0.00    -0.399 OA
ATOM     15  H13 <0> d          -0.444  -4.011  -5.236  0.00  0.00     0.209 HD
ENDBRANCH  11  14
ENDBRANCH   8  11
ENDBRANCH   3   8
BRANCH   1  16
ATOM     16  O1  <0> d           0.671  -0.465  -1.174  0.00  0.00    -0.304 OA
BRANCH  16  17
ATOM     17  C2  <0> d           0.002  -0.004   0.002  0.00  0.00     0.027 C 
ATOM     18  H4  <0> d           0.529  -0.365   0.885  0.00  0.00     0.074 H 
ATOM     19  H5  <0> d          -1.020  -0.381   0.010  0.00  0.00     0.074 H 
BRANCH  17  20
ATOM     20  C1  <0> d          -0.019   1.526   0.010  0.00  0.00    -0.056 C 
ATOM     21  H1  <0> d           1.004   1.903   0.003  0.00  0.00     0.030 H 
ATOM     22  H2  <0> d          -0.546   1.887  -0.873  0.00  0.00     0.030 H 
ATOM     23  H3  <0> d          -0.529   1.877   0.907  0.00  0.00     0.030 H 
ENDBRANCH  17  20
ENDBRANCH  16  17
ENDBRANCH   1  16
TORSDOF 7
