REMARK  2 active torsions:
REMARK  status: ('A' for Active; 'I' for Inactive)
REMARK    1  A    between atoms: C1_1  and  C2_2 
REMARK    2  A    between atoms: C2_2  and  C3_4 
ROOT
ATOM      1  C3  <0> d          -1.297   1.926   0.019  0.00  0.00     0.012 A 
ATOM      2  C4  <0> d          -1.320   3.325   0.032  0.00  0.00    -0.066 A 
ATOM      3  C5  <0> d          -2.525   3.993   0.036  0.00  0.00    -0.042 A 
ATOM      4  C6  <0> d          -3.715   3.282   0.038  0.00  0.00     0.154 A 
ATOM      5  C7  <0> d          -3.702   1.893   0.030  0.00  0.00     0.155 A 
ATOM      6  C8  <0> d          -2.501   1.213   0.021  0.00  0.00    -0.029 A 
ATOM      7  F1  <0> d          -4.865   1.207   0.032  0.00  0.00    -0.203 F 
ATOM      8  F2  <0> d          -4.894   3.943   0.048  0.00  0.00    -0.203 F 
ATOM      9  H4  <0> d          -0.394   3.881   0.035  0.00  0.00     0.085 H 
ATOM     10  H5  <0> d          -2.542   5.073   0.042  0.00  0.00     0.088 H 
ATOM     11  H6  <0> d          -2.491   0.133   0.015  0.00  0.00     0.089 H 
ENDROOT
BRANCH   1  12
ATOM     12  C2  <0> d          -0.014   1.208   0.009  0.00  0.00     0.155 C 
ATOM     13  O1  <0> d           0.002  -0.004   0.002  0.00  0.00    -0.293 OA
BRANCH  12  14
ATOM     14  C1  <0> d           1.280   1.980   0.001  0.00  0.00    -0.017 C 
ATOM     15  H1  <0> d           2.049   1.340  -0.010  0.00  0.00     0.038 H 
ATOM     16  H2  <0> d           1.321   2.612  -0.887  0.00  0.00     0.038 H 
ATOM     17  H3  <0> d           1.338   2.602   0.893  0.00  0.00     0.038 H 
ENDBRANCH  12  14
ENDBRANCH   1  12
TORSDOF 2
