REMARK  1 active torsions:
REMARK  status: ('A' for Active; 'I' for Inactive)
REMARK    1  A    between atoms: C3_3  and  C7_9 
REMARK       I    between atoms: C7_9  and  N1_11 
ROOT
ATOM      1  C1  <0> d          -3.629  -1.229   0.013  0.00  0.00    -0.079 A 
ATOM      2  C2  <0> d          -2.441  -0.528   0.011  0.00  0.00    -0.065 A 
ATOM      3  C3  <0> d          -2.456   0.868   0.018  0.00  0.00     0.073 A 
ATOM      4  C4  <0> d          -3.678   1.547   0.034  0.00  0.00     0.170 A 
ATOM      5  C5  <0> d          -4.863   0.830   0.029  0.00  0.00     0.155 A 
ATOM      6  C6  <0> d          -4.837  -0.554   0.022  0.00  0.00    -0.043 A 
ATOM      7  F1  <0> d          -6.046   1.482   0.038  0.00  0.00    -0.203 F 
ATOM      8  F2  <0> d          -3.703   2.898   0.047  0.00  0.00    -0.202 F 
ATOM      9  H1  <0> d          -3.616  -2.309   0.006  0.00  0.00     0.083 H 
ATOM     10  H2  <0> d          -1.500  -1.059   0.003  0.00  0.00     0.085 H 
ATOM     11  H3  <0> d          -5.763  -1.109   0.023  0.00  0.00     0.088 H 
ENDROOT
BRANCH   3  12
ATOM     12  C7  <0> d          -1.187   1.624   0.017  0.00  0.00     0.252 C 
ATOM     13  O1  <0> d          -1.204   2.839   0.023  0.00  0.00    -0.268 OA
ATOM     14  N1  <0> d          -0.011   0.966   0.007  0.00  0.00    -0.366 N 
ATOM     15  H4  <0> d           0.002  -0.004   0.002  0.00  0.00     0.159 HD
ATOM     16  H5  <0> d           0.822   1.462   0.002  0.00  0.00     0.159 HD
ENDBRANCH   3  12
TORSDOF 1
