REMARK  2 active torsions:
REMARK  status: ('A' for Active; 'I' for Inactive)
REMARK    1  A    between atoms: C3_5  and  C4_6 
REMARK    2  A    between atoms: C4_6  and  C5_7 
ROOT
ATOM      1  C1  <0> d          -3.519   0.865   0.954  0.00  0.00    -0.033 A 
ATOM      2  C2  <0> d          -4.263  -0.180   0.519  0.00  0.00     0.045 A 
ATOM      3  O1  <0> d          -3.652  -0.650  -0.578  0.00  0.00    -0.226 OA
ATOM      4  N1  <0> d          -2.656  -0.015  -0.839  0.00  0.00    -0.133 NA
ATOM      5  C3  <0> d          -2.462   0.945   0.019  0.00  0.00     0.073 A 
ATOM      6  H1  <0> d          -3.694   1.493   1.815  0.00  0.00     0.089 H 
ATOM      7  H2  <0> d          -5.167  -0.562   0.969  0.00  0.00     0.126 H 
ENDROOT
BRANCH   5   8
ATOM      8  C4  <0> d          -1.329   1.940   0.019  0.00  0.00     0.058 C 
ATOM      9  H3  <0> d          -1.401   2.576  -0.875  0.00  0.00     0.058 H 
ATOM     10  H4  <0> d          -1.392   2.566   0.921  0.00  0.00     0.058 H 
BRANCH   8  11
ATOM     11  C5  <0> d          -0.014   1.204   0.009  0.00  0.00     0.178 C 
ATOM     12  O2  <0> d           0.002  -0.004   0.002  0.00  0.00    -0.648 OA
ATOM     13  O3  <0> d           1.139   1.891   0.001  0.00  0.00    -0.648 OA
ENDBRANCH   8  11
ENDBRANCH   5   8
TORSDOF 2
