REMARK  5 active torsions:
REMARK  status: ('A' for Active; 'I' for Inactive)
REMARK    1  A    between atoms: C1_1  and  C2_2 
REMARK    2  A    between atoms: C2_2  and  C3_3 
REMARK    3  A    between atoms: C4_4  and  C7_9 
REMARK    4  A    between atoms: C5_6  and  C6_8 
REMARK    5  A    between atoms: C7_9  and  O1_10 
ROOT
ATOM      1  C3  <0> d          -0.898  -0.881  -0.511  0.00  0.00     0.050 A 
ATOM      2  C4  <0> d           0.002  -0.004   0.002  0.00  0.00     0.032 A 
ATOM      3  S1  <0> d           1.214  -1.133   0.672  0.00  0.00    -0.075 SA
ATOM      4  C5  <0> d           0.426  -2.610   0.208  0.00  0.00     0.072 A 
ATOM      5  N1  <0> d          -0.653  -2.169  -0.396  0.00  0.00    -0.250 NA
ENDROOT
BRANCH   1   6
ATOM      6  C2  <0> d          -2.146  -0.391  -1.201  0.00  0.00    -0.027 C 
ATOM      7  H4  <0> d          -2.452   0.571  -0.765  0.00  0.00     0.041 H 
ATOM      8  H5  <0> d          -2.952  -1.127  -1.066  0.00  0.00     0.041 H 
BRANCH   6   9
ATOM      9  C1  <0> d          -1.865  -0.209  -2.694  0.00  0.00    -0.071 C 
ATOM     10  H1  <0> d          -2.776   0.148  -3.197  0.00  0.00     0.028 H 
ATOM     11  H2  <0> d          -1.560  -1.172  -3.129  0.00  0.00     0.028 H 
ATOM     12  H3  <0> d          -1.059   0.527  -2.828  0.00  0.00     0.028 H 
ENDBRANCH   6   9
ENDBRANCH   1   6
BRANCH   2  13
ATOM     13  C7  <0> d          -0.018   1.503   0.010  0.00  0.00     0.048 C 
ATOM     14  H9  <0> d           1.014   1.884   0.002  0.00  0.00     0.082 H 
ATOM     15  H10 <0> d          -0.550   1.867  -0.881  0.00  0.00     0.082 H 
BRANCH  13  16
ATOM     16  O1  <0> d          -0.687   1.964   1.186  0.00  0.00    -0.396 OA
ATOM     17  H11 <0> d          -0.801   3.043   1.367  0.00  0.00     0.209 HD
ENDBRANCH  13  16
ENDBRANCH   2  13
BRANCH   4  18
ATOM     18  C6  <0> d           0.868  -4.032   0.440  0.00  0.00    -0.029 C 
ATOM     19  H6  <0> d           0.125  -4.721   0.012  0.00  0.00     0.036 H 
ATOM     20  H7  <0> d           0.958  -4.216   1.521  0.00  0.00     0.036 H 
ATOM     21  H8  <0> d           1.843  -4.196  -0.043  0.00  0.00     0.036 H 
ENDBRANCH   4  18
TORSDOF 5
