REMARK  2 active torsions:
REMARK  status: ('A' for Active; 'I' for Inactive)
REMARK    1  A    between atoms: C2_2  and  C5_8 
REMARK    2  A    between atoms: C3_3  and  O1_7 
ROOT
ATOM      1  C1  <0> d           0.071   3.837   0.016  0.00  0.00     0.043 A 
ATOM      2  C2  <0> d           1.238   3.067   0.007  0.00  0.00     0.094 A 
ATOM      3  C3  <0> d           2.470   3.749  -0.001  0.00  0.00     0.103 A 
ATOM      4  C4  <0> d           2.437   5.143   0.006  0.00  0.00     0.057 A 
ATOM      5  N1  <0> d           1.280   5.771   0.021  0.00  0.00    -0.160 NA
ATOM      6  N2  <0> d           0.157   5.153   0.028  0.00  0.00    -0.162 NA
ATOM      7  H1  <0> d          -0.896   3.356   0.018  0.00  0.00     0.119 H 
ATOM      8  H2  <0> d           3.358   5.706   0.000  0.00  0.00     0.121 H 
ENDROOT
BRANCH   2   9
ATOM      9  C5  <0> d           1.181   1.591  -0.001  0.00  0.00     0.213 C 
ATOM     10  O2  <0> d           2.208   0.943  -0.014  0.00  0.00    -0.644 OA
ATOM     11  O3  <0> d          -0.011   0.963   0.007  0.00  0.00    -0.644 OA
ENDBRANCH   2   9
BRANCH   3  12
ATOM     12  O1  <0> d           3.645   3.075  -0.017  0.00  0.00    -0.358 OA
ATOM     13  H3  <0> d           4.510   3.577  -0.022  0.00  0.00     0.217 HD
ENDBRANCH   3  12
TORSDOF 2
