REMARK  4 active torsions:
REMARK  status: ('A' for Active; 'I' for Inactive)
REMARK    1  A    between atoms: C1_1  and  O1_2 
REMARK    2  A    between atoms: O1_2  and  C2_3 
REMARK    3  A    between atoms: C2_3  and  C3_5 
REMARK    4  A    between atoms: C6_9  and  N3_11 
ROOT
ATOM      1  C3  <0> d          -2.405   3.619   0.034  0.00  0.00     0.227 A 
ATOM      2  N1  <0> d          -3.564   2.978   0.036  0.00  0.00    -0.236 NA
ATOM      3  C4  <0> d          -3.610   1.656   0.029  0.00  0.00     0.008 A 
ATOM      4  C5  <0> d          -2.428   0.937   0.019  0.00  0.00    -0.022 A 
ATOM      5  C6  <0> d          -1.220   1.642   0.017  0.00  0.00     0.125 A 
ATOM      6  N2  <0> d          -1.250   2.970   0.030  0.00  0.00    -0.207 NA
ATOM      7  H4  <0> d          -4.561   1.143   0.030  0.00  0.00     0.115 H 
ATOM      8  H5  <0> d          -2.437  -0.142   0.013  0.00  0.00     0.091 H 
ENDROOT
BRANCH   1   9
ATOM      9  C2  <0> d          -2.399   5.104   0.042  0.00  0.00     0.331 C 
ATOM     10  O2  <0> d          -1.346   5.707   0.040  0.00  0.00    -0.256 OA
BRANCH   9  11
ATOM     11  O1  <0> d          -3.563   5.781   0.051  0.00  0.00    -0.320 OA
BRANCH  11  12
ATOM     12  C1  <0> d          -3.482   7.231   0.059  0.00  0.00     0.013 C 
ATOM     13  H1  <0> d          -4.497   7.655   0.066  0.00  0.00     0.067 H 
ATOM     14  H2  <0> d          -2.948   7.573  -0.840  0.00  0.00     0.067 H 
ATOM     15  H3  <0> d          -2.939   7.563   0.956  0.00  0.00     0.067 H 
ENDBRANCH  11  12
ENDBRANCH   9  11
ENDBRANCH   1   9
BRANCH   5  16
ATOM     16  N3  <0> d          -0.011   0.966   0.007  0.00  0.00    -0.384 N 
ATOM     17  H6  <0> d           0.934   1.529   0.006  0.00  0.00     0.157 HD
ATOM     18  H7  <0> d           0.004  -0.134   0.001  0.00  0.00     0.157 HD
ENDBRANCH   5  16
TORSDOF 4
