REMARK  7 active torsions:
REMARK  status: ('A' for Active; 'I' for Inactive)
REMARK    1  A    between atoms: C1_1  and  C2_2 
REMARK    2  A    between atoms: C2_2  and  C3_3 
REMARK    3  A    between atoms: C2_2  and  C4_4 
REMARK    4  A    between atoms: C2_2  and  C5_5 
REMARK    5  A    between atoms: C5_5  and  C6_6 
REMARK    6  A    between atoms: C6_6  and  C7_7 
REMARK    7  A    between atoms: C7_7  and  O1_8 
ROOT
ATOM      1  C2  <0> d           2.393   5.250   0.007  0.00  0.00    -0.051 C 
ENDROOT
BRANCH   1   2
ATOM      2  C1  <0> d           1.639   5.684   1.266  0.00  0.00    -0.070 C 
ATOM      3  H1  <0> d           2.193   5.365   2.149  0.00  0.00     0.028 H 
ATOM      4  H2  <0> d           1.538   6.769   1.273  0.00  0.00     0.028 H 
ATOM      5  H3  <0> d           0.649   5.227   1.273  0.00  0.00     0.028 H 
ENDBRANCH   1   2
BRANCH   1   6
ATOM      6  C3  <0> d           3.782   5.891  -0.002  0.00  0.00    -0.070 C 
ATOM      7  H4  <0> d           4.318   5.582  -0.899  0.00  0.00     0.028 H 
ATOM      8  H5  <0> d           3.681   6.976   0.004  0.00  0.00     0.028 H 
ATOM      9  H6  <0> d           4.335   5.572   0.881  0.00  0.00     0.028 H 
ENDBRANCH   1   6
BRANCH   1  10
ATOM     10  C4  <0> d           1.615   5.698  -1.232  0.00  0.00    -0.070 C 
ATOM     11  H7  <0> d           0.626   5.241  -1.225  0.00  0.00     0.028 H 
ATOM     12  H8  <0> d           1.514   6.783  -1.225  0.00  0.00     0.028 H 
ATOM     13  H9  <0> d           2.152   5.388  -2.129  0.00  0.00     0.028 H 
ENDBRANCH   1  10
BRANCH   1  14
ATOM     14  C5  <0> d           2.534   3.726  -0.002  0.00  0.00    -0.057 C 
ATOM     15  H10 <0> d           3.088   3.407   0.881  0.00  0.00     0.034 H 
ATOM     16  H11 <0> d           3.071   3.417  -0.899  0.00  0.00     0.034 H 
BRANCH  14  17
ATOM     17  C6  <0> d           1.145   3.085   0.008  0.00  0.00    -0.045 C 
ATOM     18  H12 <0> d           0.591   3.404  -0.875  0.00  0.00     0.036 H 
ATOM     19  H13 <0> d           0.608   3.395   0.904  0.00  0.00     0.036 H 
BRANCH  17  20
ATOM     20  C7  <0> d           1.286   1.562  -0.002  0.00  0.00     0.017 C 
ATOM     21  H14 <0> d           1.840   1.243   0.881  0.00  0.00     0.073 H 
ATOM     22  H15 <0> d           1.823   1.252  -0.899  0.00  0.00     0.073 H 
BRANCH  20  23
ATOM     23  O1  <0> d          -0.011   0.963   0.007  0.00  0.00    -0.401 OA
ATOM     24  H16 <0> d           0.002  -0.004   0.002  0.00  0.00     0.209 HD
ENDBRANCH  20  23
ENDBRANCH  17  20
ENDBRANCH  14  17
ENDBRANCH   1  14
TORSDOF 7
