REMARK  4 active torsions:
REMARK  status: ('A' for Active; 'I' for Inactive)
REMARK    1  A    between atoms: C3_3  and  C5_5 
REMARK    2  A    between atoms: C5_5  and  O2_7 
REMARK    3  A    between atoms: O2_7  and  C6_8 
REMARK    4  A    between atoms: C6_8  and  C7_9 
ROOT
ATOM      1  C5  <0> d          -1.039  -0.627   0.897  0.00  0.00     0.263 C 
ATOM      2  O1  <0> d          -1.787   0.076   1.533  0.00  0.00    -0.265 OA
ENDROOT
BRANCH   1   3
ATOM      3  C3  <0> d           0.002  -0.004   0.002  0.00  0.00     0.030 C 
ATOM      4  C2  <0> d          -0.019   1.534   0.011  0.00  0.00    -0.053 C 
ATOM      5  C1  <0> d           1.518   1.476  -0.004  0.00  0.00    -0.063 C 
ATOM      6  H3  <0> d          -0.448   1.969  -0.892  0.00  0.00     0.034 H 
ATOM      7  H4  <0> d          -0.431   1.960   0.925  0.00  0.00     0.034 H 
ATOM      8  C4  <0> d           1.394   0.090   0.649  0.00  0.00    -0.053 C 
ATOM      9  H1  <0> d           1.944   1.450  -1.007  0.00  0.00     0.033 H 
ATOM     10  H2  <0> d           1.989   2.221   0.637  0.00  0.00     0.033 H 
ATOM     11  H6  <0> d           1.368   0.121   1.738  0.00  0.00     0.034 H 
ATOM     12  H7  <0> d           2.105  -0.641   0.263  0.00  0.00     0.034 H 
ATOM     13  H5  <0> d           0.014  -0.435  -0.999  0.00  0.00     0.055 H 
ENDBRANCH   1   3
BRANCH   1  14
ATOM     14  O2  <0> d          -1.134  -1.963   0.986  0.00  0.00    -0.321 OA
BRANCH  14  15
ATOM     15  C6  <0> d          -2.159  -2.493   1.867  0.00  0.00     0.032 C 
ATOM     16  H8  <0> d          -1.981  -2.143   2.884  0.00  0.00     0.075 H 
ATOM     17  H9  <0> d          -3.139  -2.151   1.532  0.00  0.00     0.075 H 
BRANCH  15  18
ATOM     18  C7  <0> d          -2.115  -4.022   1.839  0.00  0.00    -0.033 A 
ATOM     19  C9  <0> d          -3.045  -4.773   2.795  0.00  0.00    -0.059 A 
ATOM     20  C8  <0> d          -3.343  -4.754   1.294  0.00  0.00    -0.059 A 
ATOM     21  H13 <0> d          -2.678  -5.706   3.223  0.00  0.00     0.033 H 
ATOM     22  H14 <0> d          -3.687  -4.178   3.444  0.00  0.00     0.033 H 
ATOM     23  H11 <0> d          -4.183  -4.146   0.956  0.00  0.00     0.033 H 
ATOM     24  H12 <0> d          -3.174  -5.674   0.736  0.00  0.00     0.033 H 
ATOM     25  H10 <0> d          -1.138  -4.460   1.639  0.00  0.00     0.043 H 
ENDBRANCH  15  18
ENDBRANCH  14  15
ENDBRANCH   1  14
TORSDOF 4
