REMARK  2 active torsions:
REMARK  status: ('A' for Active; 'I' for Inactive)
REMARK    1  A    between atoms: C1_1  and  C2_2 
REMARK    2  A    between atoms: C2_2  and  C6_8 
ROOT
ATOM      1  C2  <0> d           0.002  -0.004   0.002  0.00  0.00     0.155 C 
ATOM      2  C3  <0> d           0.756  -0.517  -1.247  0.00  0.00    -0.018 C 
ATOM      3  C4  <0> d           2.148  -0.842  -0.636  0.00  0.00     0.019 C 
ATOM      4  C5  <0> d           1.749  -1.280   0.769  0.00  0.00     0.260 C 
ATOM      5  O1  <0> d           2.255  -2.161   1.422  0.00  0.00    -0.265 OA
ATOM      6  O2  <0> d           0.722  -0.492   1.141  0.00  0.00    -0.299 OA
ATOM      7  H4  <0> d           0.286  -1.414  -1.650  0.00  0.00     0.038 H 
ATOM      8  H5  <0> d           0.833   0.260  -2.008  0.00  0.00     0.038 H 
ATOM      9  H6  <0> d           2.636  -1.653  -1.177  0.00  0.00     0.048 H 
ATOM     10  H7  <0> d           2.781   0.045  -0.606  0.00  0.00     0.048 H 
ENDROOT
BRANCH   1  11
ATOM     11  C1  <0> d          -0.019   1.526   0.010  0.00  0.00    -0.037 C 
ATOM     12  H1  <0> d           1.004   1.903   0.003  0.00  0.00     0.032 H 
ATOM     13  H2  <0> d          -0.546   1.887  -0.873  0.00  0.00     0.032 H 
ATOM     14  H3  <0> d          -0.529   1.877   0.907  0.00  0.00     0.032 H 
ENDBRANCH   1  11
BRANCH   1  15
ATOM     15  C6  <0> d          -1.407  -0.540   0.013  0.00  0.00     0.209 C 
ATOM     16  O3  <0> d          -2.169  -0.268  -0.899  0.00  0.00    -0.646 OA
ATOM     17  O4  <0> d          -1.784  -1.244   0.933  0.00  0.00    -0.646 OA
ENDBRANCH   1  15
TORSDOF 2
