REMARK  1 active torsions:
REMARK  status: ('A' for Active; 'I' for Inactive)
REMARK    1  A    between atoms: C1_1  and  C2_2 
ROOT
ATOM      1  C2  <0> d          -0.718   1.572   1.248  0.00  0.00     0.122 A 
ATOM      2  C3  <0> d           0.033   1.823   2.481  0.00  0.00     0.309 A 
ATOM      3  O1  <0> d           1.241   1.640   2.515  0.00  0.00    -0.263 OA
ATOM      4  N1  <0> d          -0.613   2.253   3.566  0.00  0.00    -0.016 NA
ATOM      5  C4  <0> d          -1.921   2.453   3.537  0.00  0.00     0.772 A 
ATOM      6  N2  <0> d          -2.796   2.880   4.491  0.00  0.00     0.047 NA
ATOM      7  N3  <0> d          -4.067   2.906   3.902  0.00  0.00    -0.126 NA
ATOM      8  C5  <0> d          -3.958   2.518   2.672  0.00  0.00     0.128 A 
ATOM      9  N4  <0> d          -2.642   2.228   2.406  0.00  0.00    -0.050 N 
ATOM     10  N5  <0> d          -2.006   1.780   1.239  0.00  0.00    -0.151 NA
ATOM     11  H4  <0> d          -4.772   2.436   1.968  0.00  0.00     0.150 H 
ENDROOT
BRANCH   1  12
ATOM     12  C1  <0> d          -0.013   1.086   0.008  0.00  0.00    -0.029 C 
ATOM     13  H1  <0> d           1.061   0.972   0.218  0.00  0.00     0.036 H 
ATOM     14  H2  <0> d          -0.153   1.815  -0.803  0.00  0.00     0.036 H 
ATOM     15  H3  <0> d          -0.432   0.115  -0.295  0.00  0.00     0.036 H 
ENDBRANCH   1  12
TORSDOF 1
