REMARK  4 active torsions:
REMARK  status: ('A' for Active; 'I' for Inactive)
REMARK    1  A    between atoms: C1_1  and  C2_2 
REMARK    2  A    between atoms: C4_4  and  C7_8 
REMARK    3  A    between atoms: C5_6  and  C6_7 
REMARK    4  A    between atoms: C7_8  and  C8_10 
ROOT
ATOM      1  C2  <0> d           1.146   1.807   0.001  0.00  0.00    -0.048 A 
ATOM      2  C3  <0> d          -0.013   1.076   0.008  0.00  0.00    -0.056 A 
ATOM      3  C4  <0> d          -1.209   1.786   0.017  0.00  0.00     0.051 A 
ATOM      4  S1  <0> d          -0.631   3.474   0.027  0.00  0.00    -0.091 SA
ATOM      5  C5  <0> d           1.075   3.166   0.009  0.00  0.00    -0.015 A 
ATOM      6  H4  <0> d           0.002  -0.004   0.002  0.00  0.00     0.086 H 
ENDROOT
BRANCH   3   7
ATOM      7  C7  <0> d          -2.534   1.299   0.020  0.00  0.00     0.162 C 
ATOM      8  O1  <0> d          -2.741   0.102   0.014  0.00  0.00    -0.292 OA
BRANCH   7   9
ATOM      9  C8  <0> d          -3.692   2.263   0.031  0.00  0.00    -0.016 C 
ATOM     10  H8  <0> d          -3.345   3.201   0.035  0.00  0.00     0.038 H 
ATOM     11  H9  <0> d          -4.304   2.106  -0.857  0.00  0.00     0.038 H 
ATOM     12  H10 <0> d          -4.296   2.096   0.923  0.00  0.00     0.038 H 
ENDBRANCH   7   9
ENDBRANCH   3   7
BRANCH   1  13
ATOM     13  C1  <0> d           2.484   1.115  -0.015  0.00  0.00    -0.050 C 
ATOM     14  H1  <0> d           2.797   0.953  -1.047  0.00  0.00     0.033 H 
ATOM     15  H2  <0> d           3.220   1.735   0.495  0.00  0.00     0.033 H 
ATOM     16  H3  <0> d           2.402   0.154   0.494  0.00  0.00     0.033 H 
ENDBRANCH   1  13
BRANCH   5  17
ATOM     17  C6  <0> d           2.205   4.162   0.003  0.00  0.00    -0.045 C 
ATOM     18  H5  <0> d           2.467   4.408  -1.026  0.00  0.00     0.034 H 
ATOM     19  H6  <0> d           1.895   5.068   0.525  0.00  0.00     0.034 H 
ATOM     20  H7  <0> d           3.071   3.732   0.505  0.00  0.00     0.034 H 
ENDBRANCH   5  17
TORSDOF 4
