REMARK  2 active torsions:
REMARK  status: ('A' for Active; 'I' for Inactive)
REMARK    1  A    between atoms: C1_1  and  C2_2 
REMARK    2  A    between atoms: C2_2  and  C9_12 
ROOT
ATOM      1  C2  <0> d           1.308   0.120  -0.795  0.00  0.00    -0.034 C 
ATOM      2  C3  <0> d           0.002  -0.004   0.002  0.00  0.00    -0.046 C 
ATOM      3  H1  <0> d          -0.825  -0.458  -0.550  0.00  0.00     0.041 H 
ATOM      4  C4  <0> d           0.171  -0.568   1.415  0.00  0.00    -0.055 C 
ATOM      5  C5  <0> d           1.004   0.383   2.282  0.00  0.00    -0.009 C 
ATOM      6  C6  <0> d           2.025   1.075   1.392  0.00  0.00     0.131 C 
ATOM      7  O1  <0> d           3.148   1.327   1.763  0.00  0.00    -0.298 OA
ATOM      8  C7  <0> d           1.519   1.434  -0.005  0.00  0.00     0.011 C 
ATOM      9  H2  <0> d           2.125   2.039  -0.521  0.00  0.00     0.052 H 
ATOM     10  C8  <0> d          -0.019   1.538   0.011  0.00  0.00    -0.051 C 
ATOM     11  H6  <0> d          -0.824  -0.672   1.869  0.00  0.00     0.034 H 
ATOM     12  H7  <0> d           0.627  -1.553   1.388  0.00  0.00     0.034 H 
ATOM     13  H8  <0> d           1.472  -0.139   2.995  0.00  0.00     0.044 H 
ATOM     14  H9  <0> d           0.355   1.126   2.749  0.00  0.00     0.044 H 
ATOM     15  H10 <0> d          -0.453   1.988  -0.877  0.00  0.00     0.034 H 
ATOM     16  H11 <0> d          -0.420   1.962   0.934  0.00  0.00     0.034 H 
ENDROOT
BRANCH   1  17
ATOM     17  C1  <0> d           2.350  -0.960  -0.499  0.00  0.00    -0.068 C 
ATOM     18  H3  <0> d           1.934  -1.940  -0.731  0.00  0.00     0.028 H 
ATOM     19  H4  <0> d           3.236  -0.787  -1.110  0.00  0.00     0.028 H 
ATOM     20  H5  <0> d           2.623  -0.921   0.556  0.00  0.00     0.028 H 
ENDBRANCH   1  17
BRANCH   1  21
ATOM     21  C9  <0> d           1.102   0.329  -2.299  0.00  0.00    -0.068 C 
ATOM     22  H12 <0> d           0.536   1.246  -2.464  0.00  0.00     0.028 H 
ATOM     23  H13 <0> d           2.071   0.407  -2.791  0.00  0.00     0.028 H 
ATOM     24  H14 <0> d           0.552  -0.516  -2.712  0.00  0.00     0.028 H 
ENDBRANCH   1  21
TORSDOF 2
