REMARK  1 active torsions:
REMARK  status: ('A' for Active; 'I' for Inactive)
REMARK    1  A    between atoms: C5_6  and  C6_7 
ROOT
ATOM      1  C1  <0> d          -1.222   2.030   0.019  0.00  0.00    -0.023 A 
ATOM      2  C2  <0> d          -0.016   1.347   0.009  0.00  0.00     0.135 A 
ATOM      3  C3  <0> d           1.170   2.063   0.002  0.00  0.00     0.042 A 
ATOM      4  N1  <0> d           1.170   3.382   0.009  0.00  0.00    -0.229 NA
ATOM      5  C4  <0> d           0.050   4.078   0.023  0.00  0.00     0.227 A 
ATOM      6  C5  <0> d          -1.191   3.430   0.031  0.00  0.00     0.101 A 
ATOM      7  F1  <0> d           0.100   5.428   0.029  0.00  0.00    -0.183 F 
ATOM      8  F2  <0> d           0.002  -0.004   0.002  0.00  0.00    -0.205 F 
ATOM      9  H1  <0> d          -2.161   1.497   0.020  0.00  0.00     0.090 H 
ATOM     10  H2  <0> d           2.110   1.532  -0.009  0.00  0.00     0.119 H 
ENDROOT
BRANCH   6  11
ATOM     11  C6  <0> d          -2.444   4.208   0.047  0.00  0.00     0.214 C 
ATOM     12  O1  <0> d          -2.405   5.423   0.053  0.00  0.00    -0.644 OA
ATOM     13  O2  <0> d          -3.632   3.572   0.056  0.00  0.00    -0.644 OA
ENDBRANCH   6  11
TORSDOF 1
