REMARK  2 active torsions:
REMARK  status: ('A' for Active; 'I' for Inactive)
REMARK    1  A    between atoms: C3_3  and  C5_6 
REMARK    2  A    between atoms: C7_9  and  C8_11 
ROOT
ATOM      1  C5  <0> d          -0.019   1.526   0.010  0.00  0.00     0.007 A 
ATOM      2  H1  <0> d          -0.476   2.300   0.644  0.00  0.00     0.051 H 
ATOM      3  C6  <0> d           0.002  -0.004   0.002  0.00  0.00    -0.042 A 
ATOM      4  C7  <0> d           1.317   0.779  -0.006  0.00  0.00     0.040 A 
ATOM      5  H2  <0> d           2.216   0.795  -0.640  0.00  0.00     0.057 H 
ATOM      6  H6  <0> d          -0.503  -0.383   0.903  0.00  0.00     0.035 H 
ATOM      7  H7  <0> d          -0.520  -0.373  -0.893  0.00  0.00     0.035 H 
ENDROOT
BRANCH   1   8
ATOM      8  C3  <0> d          -0.442   2.223  -1.257  0.00  0.00     0.057 A 
ATOM      9  C2  <0> d          -0.682   3.540  -1.387  0.00  0.00    -0.052 A 
ATOM     10  C1  <0> d          -1.047   3.758  -2.736  0.00  0.00    -0.059 A 
ATOM     11  H4  <0> d          -0.608   4.288  -0.612  0.00  0.00     0.087 H 
ATOM     12  C4  <0> d          -1.016   2.560  -3.347  0.00  0.00     0.019 A 
ATOM     13  H3  <0> d          -1.306   4.704  -3.188  0.00  0.00     0.086 H 
ATOM     14  O1  <0> d          -0.649   1.634  -2.446  0.00  0.00    -0.327 OA
ATOM     15  H5  <0> d          -1.247   2.374  -4.385  0.00  0.00     0.123 H 
ENDBRANCH   1   8
BRANCH   4  16
ATOM     16  C8  <0> d           2.132   0.783   1.261  0.00  0.00     0.177 C 
ATOM     17  O2  <0> d           1.724   1.362   2.240  0.00  0.00    -0.648 OA
ATOM     18  O3  <0> d           3.312   0.143   1.302  0.00  0.00    -0.648 OA
ENDBRANCH   4  16
TORSDOF 2
