REMARK  6 active torsions:
REMARK  status: ('A' for Active; 'I' for Inactive)
REMARK    1  A    between atoms: C1_1  and  C2_2 
REMARK    2  A    between atoms: C2_2  and  C9_11 
REMARK    3  A    between atoms: C4_4  and  C8_9 
REMARK    4  A    between atoms: C4_4  and  O2_10 
REMARK    5  A    between atoms: C5_5  and  C6_7 
REMARK    6  A    between atoms: C5_5  and  C7_8 
ROOT
ATOM      1  C2  <0> d          -0.179   2.161   3.398  0.00  0.00     0.058 C 
ATOM      2  C3  <0> d          -0.159   3.248   2.293  0.00  0.00    -0.006 C 
ATOM      3  C4  <0> d          -0.787   2.501   1.091  0.00  0.00     0.087 C 
ATOM      4  C5  <0> d          -0.597   1.010   1.432  0.00  0.00     0.085 C 
ATOM      5  O1  <0> d           0.116   0.945   2.679  0.00  0.00    -0.368 OA
ATOM      6  H4  <0> d          -0.768   4.106   2.579  0.00  0.00     0.042 H 
ATOM      7  H5  <0> d           0.862   3.556   2.068  0.00  0.00     0.042 H 
ENDROOT
BRANCH   1   8
ATOM      8  C1  <0> d          -1.561   2.080   4.049  0.00  0.00    -0.048 C 
ATOM      9  H1  <0> d          -1.645   1.149   4.608  0.00  0.00     0.031 H 
ATOM     10  H2  <0> d          -1.694   2.924   4.726  0.00  0.00     0.031 H 
ATOM     11  H3  <0> d          -2.329   2.111   3.276  0.00  0.00     0.031 H 
ENDBRANCH   1   8
BRANCH   1  12
ATOM     12  C9  <0> d           0.895   2.439   4.451  0.00  0.00    -0.048 C 
ATOM     13  H16 <0> d           1.868   2.519   3.966  0.00  0.00     0.031 H 
ATOM     14  H17 <0> d           0.668   3.374   4.964  0.00  0.00     0.031 H 
ATOM     15  H18 <0> d           0.915   1.623   5.173  0.00  0.00     0.031 H 
ENDBRANCH   1  12
BRANCH   4  16
ATOM     16  C6  <0> d           0.216   0.325   0.332  0.00  0.00    -0.045 C 
ATOM     17  H6  <0> d           0.357  -0.726   0.586  0.00  0.00     0.031 H 
ATOM     18  H7  <0> d           1.187   0.811   0.241  0.00  0.00     0.031 H 
ATOM     19  H8  <0> d          -0.319   0.401  -0.615  0.00  0.00     0.031 H 
ENDBRANCH   4  16
BRANCH   4  20
ATOM     20  C7  <0> d          -1.958   0.328   1.575  0.00  0.00    -0.045 C 
ATOM     21  H9  <0> d          -1.815  -0.742   1.726  0.00  0.00     0.031 H 
ATOM     22  H10 <0> d          -2.487   0.748   2.431  0.00  0.00     0.031 H 
ATOM     23  H11 <0> d          -2.544   0.491   0.670  0.00  0.00     0.031 H 
ENDBRANCH   4  20
BRANCH   3  24
ATOM     24  C8  <0> d          -0.051   2.853  -0.203  0.00  0.00    -0.045 C 
ATOM     25  H12 <0> d          -0.445   2.249  -1.020  0.00  0.00     0.031 H 
ATOM     26  H13 <0> d          -0.197   3.909  -0.428  0.00  0.00     0.031 H 
ATOM     27  H14 <0> d           1.013   2.651  -0.082  0.00  0.00     0.031 H 
ENDBRANCH   3  24
BRANCH   3  28
ATOM     28  O2  <0> d          -2.177   2.814   0.979  0.00  0.00    -0.387 OA
ATOM     29  H15 <0> d          -2.355   3.740   0.765  0.00  0.00     0.210 HD
ENDBRANCH   3  28
TORSDOF 6
