REMARK  0 active torsions:
REMARK  status: ('A' for Active; 'I' for Inactive)
ROOT
ATOM      1  C1  <0> d          -2.933   2.508  -1.725  0.00  0.00    -0.072 A 
ATOM      2  C2  <0> d          -2.514   2.612  -3.042  0.00  0.00    -0.043 A 
ATOM      3  C3  <0> d          -1.234   2.203  -3.372  0.00  0.00     0.126 A 
ATOM      4  N1  <0> d          -0.422   1.722  -2.453  0.00  0.00    -0.241 NA
ATOM      5  C4  <0> d          -0.785   1.607  -1.186  0.00  0.00     0.042 A 
ATOM      6  C5  <0> d          -2.049   1.997  -0.786  0.00  0.00    -0.033 A 
ATOM      7  C6  <0> d          -2.214   1.766   0.700  0.00  0.00    -0.039 C 
ATOM      8  C7  <0> d          -0.776   1.604   1.245  0.00  0.00    -0.056 C 
ATOM      9  C8  <0> d          -0.013   1.086   0.008  0.00  0.00    -0.024 C 
ATOM     10 Cl1  <0> d          -0.692   2.326  -5.017  0.00  0.00    -0.062 Cl
ATOM     11  H1  <0> d          -3.926   2.819  -1.436  0.00  0.00     0.084 H 
ATOM     12  H2  <0> d          -3.177   3.005  -3.799  0.00  0.00     0.088 H 
ATOM     13  H3  <0> d          -2.723   2.631   1.151  0.00  0.00     0.040 H 
ATOM     14  H4  <0> d          -2.815   0.860   0.866  0.00  0.00     0.040 H 
ATOM     15  H5  <0> d          -0.407   2.577   1.600  0.00  0.00     0.034 H 
ATOM     16  H6  <0> d          -0.779   0.886   2.079  0.00  0.00     0.034 H 
ATOM     17  H7  <0> d           0.009  -0.014  -0.021  0.00  0.00     0.042 H 
ATOM     18  H8  <0> d           1.016   1.474  -0.023  0.00  0.00     0.042 H 
ENDROOT
TORSDOF 0
