REMARK  5 active torsions:
REMARK  status: ('A' for Active; 'I' for Inactive)
REMARK    1  A    between atoms: C1_1  and  O1_2 
REMARK    2  A    between atoms: O1_2  and  C2_3 
REMARK    3  A    between atoms: C2_3  and  C3_5 
REMARK    4  A    between atoms: C6_9  and  C7_10 
REMARK    5  A    between atoms: C7_10  and  O4_11 
ROOT
ATOM      1  C3  <0> d           0.680  -2.083   1.091  0.00  0.00     0.073 A 
ATOM      2  C4  <0> d           0.127  -3.035   0.115  0.00  0.00    -0.043 A 
ATOM      3  C5  <0> d           0.422  -4.257   0.584  0.00  0.00     0.020 A 
ATOM      4  O3  <0> d           1.094  -4.134   1.740  0.00  0.00    -0.324 OA
ATOM      5  C6  <0> d           1.264  -2.848   2.059  0.00  0.00     0.092 A 
ATOM      6  H4  <0> d          -0.407  -2.798  -0.793  0.00  0.00     0.088 H 
ATOM      7  H5  <0> d           0.160  -5.190   0.108  0.00  0.00     0.123 H 
ENDROOT
BRANCH   1   8
ATOM      8  C2  <0> d           0.621  -0.613   1.033  0.00  0.00     0.295 C 
ATOM      9  O2  <0> d           1.130   0.051   1.914  0.00  0.00    -0.259 OA
BRANCH   8  10
ATOM     10  O1  <0> d           0.002  -0.004   0.002  0.00  0.00    -0.322 OA
BRANCH  10  11
ATOM     11  C1  <0> d          -0.017   1.425   0.010  0.00  0.00     0.013 C 
ATOM     12  H1  <0> d           1.005   1.802   0.002  0.00  0.00     0.067 H 
ATOM     13  H2  <0> d          -0.544   1.786  -0.873  0.00  0.00     0.067 H 
ATOM     14  H3  <0> d          -0.527   1.776   0.907  0.00  0.00     0.067 H 
ENDBRANCH  10  11
ENDBRANCH   8  10
ENDBRANCH   1   8
BRANCH   5  15
ATOM     15  C7  <0> d           1.976  -2.330   3.282  0.00  0.00     0.062 C 
ATOM     16  H6  <0> d           2.757  -3.033   3.573  0.00  0.00     0.084 H 
ATOM     17  H7  <0> d           2.424  -1.362   3.058  0.00  0.00     0.084 H 
BRANCH  15  18
ATOM     18  O4  <0> d           1.041  -2.186   4.353  0.00  0.00    -0.394 OA
ATOM     19  H8  <0> d           1.431  -1.855   5.174  0.00  0.00     0.209 HD
ENDBRANCH  15  18
ENDBRANCH   5  15
TORSDOF 5
