REMARK  3 active torsions:
REMARK  status: ('A' for Active; 'I' for Inactive)
REMARK    1  A    between atoms: C1_1  and  C2_2 
REMARK    2  A    between atoms: C5_5  and  O1_10 
REMARK    3  A    between atoms: O1_10  and  C9_11 
ROOT
ATOM      1  C2  <0> d          -1.248   3.134   0.031  0.00  0.00    -0.060 A 
ATOM      2  C3  <0> d          -1.218   1.749   0.017  0.00  0.00    -0.074 A 
ATOM      3  C4  <0> d          -0.013   1.076   0.008  0.00  0.00    -0.049 A 
ATOM      4  C5  <0> d           1.179   1.784   0.000  0.00  0.00     0.088 A 
ATOM      5  C6  <0> d           1.154   3.186   0.008  0.00  0.00     0.078 A 
ATOM      6  C7  <0> d          -0.073   3.854   0.024  0.00  0.00    -0.054 A 
ATOM      7  C8  <0> d           2.379   3.928   0.001  0.00  0.00     0.102 C 
ATOM      8  N1  <0> d           3.350   4.517  -0.005  0.00  0.00    -0.191 NA
ATOM      9  H4  <0> d          -2.144   1.192   0.018  0.00  0.00     0.084 H 
ATOM     10  H5  <0> d           0.002  -0.004   0.002  0.00  0.00     0.087 H 
ATOM     11  H6  <0> d          -0.100   4.934   0.029  0.00  0.00     0.086 H 
ENDROOT
BRANCH   4  12
ATOM     12  O1  <0> d           2.365   1.124  -0.015  0.00  0.00    -0.354 OA
BRANCH  12  13
ATOM     13  C9  <0> d           2.312  -0.304  -0.023  0.00  0.00     0.010 C 
ATOM     14  H7  <0> d           3.325  -0.705  -0.035  0.00  0.00     0.066 H 
ATOM     15  H8  <0> d           1.794  -0.653   0.871  0.00  0.00     0.066 H 
ATOM     16  H9  <0> d           1.776  -0.643  -0.909  0.00  0.00     0.066 H 
ENDBRANCH  12  13
ENDBRANCH   4  12
BRANCH   1  17
ATOM     17  C1  <0> d          -2.570   3.856   0.047  0.00  0.00    -0.051 C 
ATOM     18  H1  <0> d          -2.899   4.036  -0.976  0.00  0.00     0.033 H 
ATOM     19  H2  <0> d          -3.311   3.246   0.565  0.00  0.00     0.033 H 
ATOM     20  H3  <0> d          -2.458   4.809   0.565  0.00  0.00     0.033 H 
ENDBRANCH   1  17
TORSDOF 3
