REMARK  4 active torsions:
REMARK  status: ('A' for Active; 'I' for Inactive)
REMARK    1  A    between atoms: C1_1  and  C2_2 
REMARK    2  A    between atoms: C2_2  and  C3_3 
REMARK    3  A    between atoms: C3_3  and  N1_4 
REMARK       I    between atoms: N1_4  and  C4_5 
REMARK    4  A    between atoms: C4_5  and  C5_7 
ROOT
ATOM      1  N1  <0> d          -3.314   4.136   1.545  0.00  0.00    -0.359 N 
ATOM      2  C4  <0> d          -2.533   3.055   1.738  0.00  0.00     0.246 C 
ATOM      3  O1  <0> d          -2.746   2.311   2.672  0.00  0.00    -0.271 OA
ATOM      4  H9  <0> d          -3.143   4.731   0.798  0.00  0.00     0.162 HD
ENDROOT
BRANCH   2   5
ATOM      5  C5  <0> d          -1.394   2.771   0.793  0.00  0.00     0.115 C 
ATOM      6  H1  <0> d          -0.702   3.613   0.763  0.00  0.00     0.098 H 
ATOM      7  O2  <0> d          -0.705   1.559   1.176  0.00  0.00    -0.376 OA
ATOM      8  C8  <0> d          -0.013   1.086   0.008  0.00  0.00     0.021 C 
ATOM      9  C7  <0> d          -0.778   1.606  -1.224  0.00  0.00    -0.042 C 
ATOM     10  H14 <0> d           0.002  -0.004   0.002  0.00  0.00     0.074 H 
ATOM     11  H15 <0> d           1.007   1.470   0.000  0.00  0.00     0.074 H 
ATOM     12  C6  <0> d          -1.928   2.453  -0.626  0.00  0.00    -0.031 C 
ATOM     13  H12 <0> d          -0.129   2.227  -1.842  0.00  0.00     0.036 H 
ATOM     14  H13 <0> d          -1.176   0.774  -1.805  0.00  0.00     0.036 H 
ATOM     15  H10 <0> d          -2.076   3.368  -1.200  0.00  0.00     0.037 H 
ATOM     16  H11 <0> d          -2.850   1.875  -0.574  0.00  0.00     0.037 H 
ENDBRANCH   2   5
BRANCH   1  17
ATOM     17  C3  <0> d          -4.422   4.413   2.463  0.00  0.00    -0.005 C 
ATOM     18  H7  <0> d          -5.121   3.576   2.451  0.00  0.00     0.064 H 
ATOM     19  H8  <0> d          -4.032   4.546   3.473  0.00  0.00     0.064 H 
BRANCH  17  20
ATOM     20  C2  <0> d          -5.144   5.688   2.023  0.00  0.00    -0.054 C 
ATOM     21  H5  <0> d          -4.444   6.524   2.035  0.00  0.00     0.034 H 
ATOM     22  H6  <0> d          -5.533   5.554   1.014  0.00  0.00     0.034 H 
BRANCH  20  23
ATOM     23  C1  <0> d          -6.300   5.976   2.982  0.00  0.00    -0.075 C 
ATOM     24  H2  <0> d          -6.999   5.140   2.970  0.00  0.00     0.027 H 
ATOM     25  H3  <0> d          -5.911   6.109   3.991  0.00  0.00     0.027 H 
ATOM     26  H4  <0> d          -6.814   6.885   2.668  0.00  0.00     0.027 H 
ENDBRANCH  20  23
ENDBRANCH  17  20
ENDBRANCH   1  17
TORSDOF 4
