REMARK  0 active torsions:
REMARK  status: ('A' for Active; 'I' for Inactive)
ROOT
ATOM      1  C1  <0> d          -0.016   1.353   0.009  0.00  0.00    -0.065 A 
ATOM      2  C2  <0> d           1.306   1.803  -0.001  0.00  0.00    -0.052 A 
ATOM      3  C3  <0> d           2.114   0.681  -0.015  0.00  0.00     0.079 A 
ATOM      4  C4  <0> d           3.511   0.495  -0.029  0.00  0.00     0.152 A 
ATOM      5  N1  <0> d           4.004  -0.722  -0.040  0.00  0.00    -0.245 NA
ATOM      6  C5  <0> d           3.205  -1.797  -0.038  0.00  0.00     0.019 A 
ATOM      7  C6  <0> d           1.865  -1.677  -0.025  0.00  0.00     0.002 A 
ATOM      8  N2  <0> d           1.290  -0.427  -0.013  0.00  0.00    -0.329 N 
ATOM      9  C7  <0> d           0.002  -0.004   0.002  0.00  0.00    -0.015 A 
ATOM     10 Cl1  <0> d           4.575   1.867  -0.032  0.00  0.00    -0.060 Cl
ATOM     11  H1  <0> d          -0.898   1.976   0.025  0.00  0.00     0.085 H 
ATOM     12  H2  <0> d           1.634   2.832   0.001  0.00  0.00     0.087 H 
ATOM     13  H3  <0> d           3.647  -2.782  -0.048  0.00  0.00     0.117 H 
ATOM     14  H4  <0> d           1.243  -2.560  -0.025  0.00  0.00     0.114 H 
ATOM     15  H5  <0> d          -0.869  -0.643   0.007  0.00  0.00     0.112 H 
ENDROOT
TORSDOF 0
