REMARK  2 active torsions:
REMARK  status: ('A' for Active; 'I' for Inactive)
REMARK    1  A    between atoms: C1_1  and  C2_2 
REMARK       I    between atoms: C2_2  and  N1_4 
REMARK    2  A    between atoms: C5_7  and  O2_10 
ROOT
ATOM      1  C2  <0> d           0.002  -0.004   0.002  0.00  0.00     0.215 C 
ATOM      2  O1  <0> d           1.060  -0.596  -0.011  0.00  0.00    -0.274 OA
ATOM      3  N1  <0> d          -1.156  -0.694   0.009  0.00  0.00    -0.350 N 
ATOM      4  C3  <0> d          -2.507  -0.104   0.019  0.00  0.00    -0.000 C 
ATOM      5  C4  <0> d          -3.421  -1.197  -0.589  0.00  0.00    -0.025 C 
ATOM      6  C5  <0> d          -2.788  -2.490  -0.010  0.00  0.00     0.052 C 
ATOM      7  H1  <0> d          -3.153  -2.680   1.000  0.00  0.00     0.085 H 
ATOM      8  C6  <0> d          -1.281  -2.159   0.003  0.00  0.00     0.021 C 
ATOM      9  H5  <0> d          -2.814   0.123   1.040  0.00  0.00     0.064 H 
ATOM     10  H6  <0> d          -2.533   0.796  -0.595  0.00  0.00     0.064 H 
ATOM     11  H7  <0> d          -4.450  -1.080  -0.248  0.00  0.00     0.039 H 
ATOM     12  H8  <0> d          -3.368  -1.190  -1.677  0.00  0.00     0.039 H 
ATOM     13  H9  <0> d          -0.802  -2.567  -0.887  0.00  0.00     0.068 H 
ATOM     14  H10 <0> d          -0.819  -2.574   0.898  0.00  0.00     0.068 H 
ENDROOT
BRANCH   1  15
ATOM     15  C1  <0> d          -0.018   1.503   0.010  0.00  0.00    -0.003 C 
ATOM     16  H2  <0> d           1.004   1.880   0.003  0.00  0.00     0.040 H 
ATOM     17  H3  <0> d          -0.545   1.864  -0.873  0.00  0.00     0.040 H 
ATOM     18  H4  <0> d          -0.529   1.854   0.907  0.00  0.00     0.040 H 
ENDBRANCH   1  15
BRANCH   6  19
ATOM     19  O2  <0> d          -3.053  -3.608  -0.860  0.00  0.00    -0.394 OA
ATOM     20  H11 <0> d          -2.679  -4.441  -0.542  0.00  0.00     0.210 HD
ENDBRANCH   6  19
TORSDOF 2
