REMARK  2 active torsions:
REMARK  status: ('A' for Active; 'I' for Inactive)
REMARK    1  A    between atoms: C4_4  and  N1_6 
REMARK       I    between atoms: N1_6  and  C6_7 
REMARK    2  A    between atoms: C6_7  and  C7_9 
ROOT
ATOM      1  C7  <0> d          -0.394   0.423   4.859  0.00  0.00     0.088 C 
ATOM      2  C8  <0> d          -0.610   1.212   6.084  0.00  0.00     0.068 C 
ATOM      3  N2  <0> d          -0.776   1.820   7.029  0.00  0.00    -0.197 NA
ATOM      4  H11 <0> d          -1.071  -0.431   4.853  0.00  0.00     0.069 H 
ATOM      5  H12 <0> d           0.636   0.070   4.832  0.00  0.00     0.069 H 
ENDROOT
BRANCH   1   6
ATOM      6  C6  <0> d          -0.663   1.286   3.653  0.00  0.00     0.231 C 
ATOM      7  N1  <0> d          -0.528   0.772   2.414  0.00  0.00    -0.356 N 
ATOM      8  H10 <0> d          -0.258  -0.152   2.299  0.00  0.00     0.162 HD
ATOM      9  O1  <0> d          -1.000   2.442   3.797  0.00  0.00    -0.273 OA
BRANCH   7  10
ATOM     10  C4  <0> d          -0.789   1.611   1.242  0.00  0.00     0.012 C 
ATOM     11  C3  <0> d          -0.013   1.086   0.008  0.00  0.00    -0.046 C 
ATOM     12  C2  <0> d          -0.809   1.622  -1.200  0.00  0.00    -0.063 C 
ATOM     13  H5  <0> d           0.002  -0.004   0.002  0.00  0.00     0.035 H 
ATOM     14  H6  <0> d           1.003   1.480   0.000  0.00  0.00     0.035 H 
ATOM     15  C1  <0> d          -2.243   1.875  -0.703  0.00  0.00    -0.063 C 
ATOM     16  H3  <0> d          -0.367   2.552  -1.555  0.00  0.00     0.033 H 
ATOM     17  H4  <0> d          -0.816   0.882  -2.000  0.00  0.00     0.033 H 
ATOM     18  C5  <0> d          -2.268   1.485   0.789  0.00  0.00    -0.046 C 
ATOM     19  H1  <0> d          -2.497   2.929  -0.818  0.00  0.00     0.033 H 
ATOM     20  H2  <0> d          -2.946   1.258  -1.263  0.00  0.00     0.033 H 
ATOM     21  H8  <0> d          -2.899   2.172   1.353  0.00  0.00     0.035 H 
ATOM     22  H9  <0> d          -2.620   0.460   0.909  0.00  0.00     0.035 H 
ATOM     23  H7  <0> d          -0.534   2.651   1.444  0.00  0.00     0.072 H 
ENDBRANCH   7  10
ENDBRANCH   1   6
TORSDOF 2
