REMARK  0 active torsions:
REMARK  status: ('A' for Active; 'I' for Inactive)
ROOT
ATOM      1  C1  <0> d           2.268   0.524  -1.663  0.00  0.00    -0.064 C 
ATOM      2  C2  <0> d           1.898   1.929  -1.391  0.00  0.00    -0.063 C 
ATOM      3  C3  <0> d           1.363   2.103   0.000  0.00  0.00    -0.040 C 
ATOM      4  C4  <0> d          -0.017   1.427   0.010  0.00  0.00     0.048 C 
ATOM      5  H1  <0> d          -0.534   1.743   0.935  0.00  0.00     0.084 H 
ATOM      6  C5  <0> d          -0.824   1.960  -1.170  0.00  0.00    -0.040 C 
ATOM      7  C6  <0> d          -0.551   1.287  -2.495  0.00  0.00    -0.051 C 
ATOM      8  C7  <0> d           0.075  -0.058  -2.466  0.00  0.00     0.030 C 
ATOM      9  H2  <0> d          -0.483  -0.713  -3.172  0.00  0.00     0.055 H 
ATOM     10  C8  <0> d           1.597  -0.139  -2.873  0.00  0.00    -0.053 C 
ATOM     11  C9  <0> d           0.014  -0.751  -1.104  0.00  0.00     0.263 C 
ATOM     12  O1  <0> d          -0.021  -1.951  -1.043  0.00  0.00    -0.265 OA
ATOM     13  O2  <0> d           0.002  -0.004   0.002  0.00  0.00    -0.316 OA
ATOM     14  H3  <0> d           2.085  -0.086  -0.773  0.00  0.00     0.033 H 
ATOM     15  H4  <0> d           3.360   0.484  -1.834  0.00  0.00     0.033 H 
ATOM     16  H5  <0> d           2.825   2.534  -1.450  0.00  0.00     0.033 H 
ATOM     17  H6  <0> d           1.228   2.340  -2.122  0.00  0.00     0.033 H 
ATOM     18  H7  <0> d           1.271   3.165   0.238  0.00  0.00     0.036 H 
ATOM     19  H8  <0> d           2.029   1.622   0.721  0.00  0.00     0.036 H 
ATOM     20  H9  <0> d          -1.889   1.851  -0.939  0.00  0.00     0.036 H 
ATOM     21  H10 <0> d          -0.621   3.030  -1.275  0.00  0.00     0.036 H 
ATOM     22  H11 <0> d           0.011   1.959  -3.142  0.00  0.00     0.034 H 
ATOM     23  H12 <0> d          -1.535   1.183  -2.995  0.00  0.00     0.034 H 
ATOM     24  H13 <0> d           1.921  -1.177  -2.984  0.00  0.00     0.034 H 
ATOM     25  H14 <0> d           1.790   0.423  -3.790  0.00  0.00     0.034 H 
ENDROOT
TORSDOF 0
