REMARK  2 active torsions:
REMARK  status: ('A' for Active; 'I' for Inactive)
REMARK    1  A    between atoms: C1_1  and  C2_2 
REMARK    2  A    between atoms: C5_6  and  C7_8 
ROOT
ATOM      1  C2  <0> d           0.002  -0.004   0.002  0.00  0.00    -0.051 C 
ATOM      2  H1  <0> d           0.497  -0.382  -0.893  0.00  0.00     0.040 H 
ATOM      3  C3  <0> d          -1.428  -0.579   0.130  0.00  0.00    -0.046 C 
ATOM      4  C4  <0> d          -1.272  -1.804   1.001  0.00  0.00    -0.101 C 
ATOM      5  C5  <0> d          -0.128  -1.792   1.629  0.00  0.00    -0.087 C 
ATOM      6  C6  <0> d           0.671  -0.557   1.282  0.00  0.00    -0.042 C 
ATOM      7  H5  <0> d          -2.087   0.145   0.608  0.00  0.00     0.039 H 
ATOM      8  H6  <0> d          -1.814  -0.857  -0.851  0.00  0.00     0.039 H 
ATOM      9  H7  <0> d          -2.011  -2.587   1.091  0.00  0.00     0.077 H 
ATOM     10  H8  <0> d           1.710  -0.820   1.084  0.00  0.00     0.040 H 
ATOM     11  H9  <0> d           0.610   0.173   2.088  0.00  0.00     0.040 H 
ENDROOT
BRANCH   1  12
ATOM     12  C1  <0> d          -0.019   1.526   0.010  0.00  0.00    -0.072 C 
ATOM     13  H2  <0> d           1.004   1.903   0.003  0.00  0.00     0.028 H 
ATOM     14  H3  <0> d          -0.546   1.887  -0.873  0.00  0.00     0.028 H 
ATOM     15  H4  <0> d          -0.529   1.877   0.907  0.00  0.00     0.028 H 
ENDBRANCH   1  12
BRANCH   5  16
ATOM     16  C7  <0> d           0.336  -2.869   2.576  0.00  0.00    -0.055 C 
ATOM     17  H10 <0> d          -0.428  -3.644   2.647  0.00  0.00     0.033 H 
ATOM     18  H11 <0> d           1.263  -3.305   2.204  0.00  0.00     0.033 H 
ATOM     19  H12 <0> d           0.507  -2.437   3.562  0.00  0.00     0.033 H 
ENDBRANCH   5  16
TORSDOF 2
