REMARK  0 active torsions:
REMARK  status: ('A' for Active; 'I' for Inactive)
ROOT
ATOM      1  C1  <0> d          -0.016   1.357   0.009  0.00  0.00     0.090 A 
ATOM      2  N1  <0> d           1.201   1.821   0.000  0.00  0.00    -0.235 NA
ATOM      3  C2  <0> d           2.076   0.791  -0.013  0.00  0.00     0.150 A 
ATOM      4  C3  <0> d           3.469   0.667  -0.028  0.00  0.00     0.182 A 
ATOM      5  N2  <0> d           3.984  -0.552  -0.040  0.00  0.00    -0.115 NA
ATOM      6  N3  <0> d           3.242  -1.599  -0.038  0.00  0.00    -0.040 NA
ATOM      7  N4  <0> d           1.956  -1.558  -0.025  0.00  0.00    -0.107 NA
ATOM      8  C4  <0> d           1.316  -0.398  -0.013  0.00  0.00     0.206 A 
ATOM      9  N5  <0> d           0.002  -0.004   0.002  0.00  0.00    -0.219 NA
ATOM     10 Cl1  <0> d           4.491   2.070  -0.031  0.00  0.00    -0.058 Cl
ATOM     11  H1  <0> d          -0.910   1.964   0.025  0.00  0.00     0.146 H 
ENDROOT
TORSDOF 0
