REMARK  0 active torsions:
REMARK  status: ('A' for Active; 'I' for Inactive)
ROOT
ATOM      1  C1  <0> d           1.169   2.082   0.002  0.00  0.00    -0.082 A 
ATOM      2  C2  <0> d           2.375   1.406  -0.013  0.00  0.00    -0.082 A 
ATOM      3  C3  <0> d           2.398   0.026   0.003  0.00  0.00    -0.076 A 
ATOM      4  C4  <0> d           1.221  -0.697   0.032  0.00  0.00    -0.040 A 
ATOM      5  C5  <0> d           0.002  -0.004   0.002  0.00  0.00    -0.051 A 
ATOM      6  C6  <0> d          -0.017   1.369   0.010  0.00  0.00    -0.076 A 
ATOM      7  C7  <0> d          -1.123  -1.040  -0.093  0.00  0.00    -0.036 C 
ATOM      8  C8  <0> d          -0.398  -2.184  -0.787  0.00  0.00    -0.030 C 
ATOM      9  H1  <0> d          -0.201  -2.003  -1.843  0.00  0.00     0.042 H 
ATOM     10  C9  <0> d           0.886  -2.129   0.147  0.00  0.00     0.034 C 
ATOM     11  H2  <0> d           0.969  -2.415   1.102  0.00  0.00     0.059 H 
ATOM     12  C10 <0> d           1.204  -3.332  -0.625  0.00  0.00     0.136 C 
ATOM     13  O1  <0> d           2.153  -3.837  -1.174  0.00  0.00    -0.297 OA
ATOM     14  C11 <0> d          -0.293  -3.623  -0.378  0.00  0.00    -0.004 C 
ATOM     15  H3  <0> d           1.152   3.162   0.007  0.00  0.00     0.083 H 
ATOM     16  H4  <0> d           3.302   1.960  -0.036  0.00  0.00     0.083 H 
ATOM     17  H5  <0> d           3.345  -0.493  -0.009  0.00  0.00     0.084 H 
ATOM     18  H6  <0> d          -0.960   1.895   0.017  0.00  0.00     0.084 H 
ATOM     19  H7  <0> d          -1.469  -1.337   0.897  0.00  0.00     0.040 H 
ATOM     20  H8  <0> d          -1.948  -0.671  -0.702  0.00  0.00     0.040 H 
ATOM     21  H9  <0> d          -0.705  -3.744   0.526  0.00  0.00     0.045 H 
ATOM     22  H10 <0> d          -0.741  -4.328  -1.078  0.00  0.00     0.045 H 
ENDROOT
TORSDOF 0
