REMARK  0 active torsions:
REMARK  status: ('A' for Active; 'I' for Inactive)
ROOT
ATOM      1  C1  <0> d           2.872  -1.661   1.681  0.00  0.00    -0.060 A 
ATOM      2  C2  <0> d           1.610  -1.558   1.138  0.00  0.00    -0.046 A 
ATOM      3  C3  <0> d           1.181  -0.356   0.590  0.00  0.00     0.105 A 
ATOM      4  C4  <0> d           2.028   0.753   0.588  0.00  0.00     0.106 A 
ATOM      5  C5  <0> d           3.294   0.655   1.131  0.00  0.00    -0.028 A 
ATOM      6  C6  <0> d           3.725  -0.555   1.682  0.00  0.00     0.047 A 
ATOM      7  C7  <0> d           5.037  -0.660   2.247  0.00  0.00     0.099 C 
ATOM      8  N1  <0> d           6.078  -0.744   2.694  0.00  0.00    -0.191 NA
ATOM      9  O1  <0> d           1.376   1.797  -0.001  0.00  0.00    -0.323 OA
ATOM     10  C8  <0> d          -0.017   1.435   0.010  0.00  0.00     0.115 C 
ATOM     11  O2  <0> d           0.002  -0.004   0.002  0.00  0.00    -0.323 OA
ATOM     12  H1  <0> d           3.202  -2.598   2.106  0.00  0.00     0.086 H 
ATOM     13  H2  <0> d           0.952  -2.414   1.138  0.00  0.00     0.087 H 
ATOM     14  H3  <0> d           3.951   1.513   1.130  0.00  0.00     0.090 H 
ATOM     15  H4  <0> d          -0.519   1.816  -0.879  0.00  0.00     0.118 H 
ATOM     16  H5  <0> d          -0.502   1.807   0.913  0.00  0.00     0.118 H 
ENDROOT
TORSDOF 0
