REMARK  9 active torsions:
REMARK  status: ('A' for Active; 'I' for Inactive)
REMARK    1  A    between atoms: C1_1  and  C2_2 
REMARK    2  A    between atoms: C2_2  and  C3_3 
REMARK    3  A    between atoms: C3_3  and  C4_4 
REMARK    4  A    between atoms: C4_4  and  C5_5 
REMARK    5  A    between atoms: C5_5  and  C6_7 
REMARK    6  A    between atoms: C5_5  and  C7_9 
REMARK    7  A    between atoms: C6_7  and  O1_8 
REMARK    8  A    between atoms: C7_9  and  C8_11 
REMARK    9  A    between atoms: C7_9  and  O2_12 
ROOT
ATOM      1  C5  <0> d           1.140   3.096   0.001  0.00  0.00    -0.009 C 
ATOM      2  H1  <0> d           0.529   3.319  -0.874  0.00  0.00     0.047 H 
ENDROOT
BRANCH   1   3
ATOM      3  C4  <0> d           0.392   3.519   1.266  0.00  0.00    -0.058 C 
ATOM      4  H10 <0> d           0.949   3.193   2.145  0.00  0.00     0.033 H 
ATOM      5  H11 <0> d           0.291   4.605   1.283  0.00  0.00     0.033 H 
BRANCH   3   6
ATOM      6  C3  <0> d          -0.998   2.878   1.276  0.00  0.00    -0.065 C 
ATOM      7  H8  <0> d          -1.518   3.125   0.351  0.00  0.00     0.033 H 
ATOM      8  H9  <0> d          -0.898   1.796   1.359  0.00  0.00     0.033 H 
BRANCH   6   9
ATOM      9  C2  <0> d          -1.796   3.409   2.469  0.00  0.00    -0.069 C 
ATOM     10  H6  <0> d          -1.275   3.162   3.394  0.00  0.00     0.032 H 
ATOM     11  H7  <0> d          -1.896   4.492   2.386  0.00  0.00     0.032 H 
BRANCH   9  12
ATOM     12  C1  <0> d          -3.185   2.768   2.478  0.00  0.00    -0.077 C 
ATOM     13  H3  <0> d          -3.706   3.015   1.553  0.00  0.00     0.027 H 
ATOM     14  H4  <0> d          -3.085   1.686   2.561  0.00  0.00     0.027 H 
ATOM     15  H5  <0> d          -3.754   3.147   3.328  0.00  0.00     0.027 H 
ENDBRANCH   9  12
ENDBRANCH   6   9
ENDBRANCH   3   6
ENDBRANCH   1   3
BRANCH   1  16
ATOM     16  C6  <0> d           1.424   1.593   0.056  0.00  0.00     0.022 C 
ATOM     17  H12 <0> d           1.935   1.354   0.988  0.00  0.00     0.074 H 
ATOM     18  H13 <0> d           2.055   1.312  -0.787  0.00  0.00     0.074 H 
BRANCH  16  19
ATOM     19  O1  <0> d           0.192   0.873  -0.011  0.00  0.00    -0.400 OA
ATOM     20  H14 <0> d           0.296  -0.088   0.018  0.00  0.00     0.209 HD
ENDBRANCH  16  19
ENDBRANCH   1  16
BRANCH   1  21
ATOM     21  C7  <0> d           2.461   3.862  -0.091  0.00  0.00     0.037 C 
ATOM     22  H2  <0> d           3.072   3.639   0.784  0.00  0.00     0.083 H 
BRANCH  21  23
ATOM     23  C8  <0> d           3.209   3.438  -1.356  0.00  0.00    -0.052 C 
ATOM     24  H15 <0> d           2.599   3.661  -2.231  0.00  0.00     0.030 H 
ATOM     25  H16 <0> d           4.151   3.984  -1.421  0.00  0.00     0.030 H 
ATOM     26  H17 <0> d           3.412   2.368  -1.317  0.00  0.00     0.030 H 
ENDBRANCH  21  23
BRANCH  21  27
ATOM     27  O2  <0> d           2.196   5.265  -0.141  0.00  0.00    -0.396 OA
ATOM     28  H18 <0> d           1.656   5.536  -0.896  0.00  0.00     0.210 HD
ENDBRANCH  21  27
ENDBRANCH   1  21
TORSDOF 9
