REMARK  2 active torsions:
REMARK  status: ('A' for Active; 'I' for Inactive)
REMARK    1  A    between atoms: C1_1  and  C2_2 
REMARK    2  A    between atoms: C2_2  and  C3_4 
ROOT
ATOM      1  C3  <0> d          -1.265  -0.759   0.010  0.00  0.00     0.119 A 
ATOM      2  C4  <0> d          -1.248  -2.155   0.008  0.00  0.00     0.035 A 
ATOM      3  N1  <0> d          -2.385  -2.827   0.016  0.00  0.00    -0.245 NA
ATOM      4  C5  <0> d          -3.538  -2.178   0.025  0.00  0.00     0.143 A 
ATOM      5  C6  <0> d          -3.558  -0.787   0.027  0.00  0.00     0.042 A 
ATOM      6  N2  <0> d          -2.429  -0.110   0.025  0.00  0.00    -0.253 NA
ATOM      7 Cl1  <0> d          -5.030  -3.065   0.035  0.00  0.00    -0.061 Cl
ATOM      8  H4  <0> d          -0.307  -2.685   0.000  0.00  0.00     0.118 H 
ATOM      9  H5  <0> d          -4.501  -0.262   0.035  0.00  0.00     0.119 H 
ENDROOT
BRANCH   1  10
ATOM     10  C2  <0> d           0.002  -0.004   0.002  0.00  0.00     0.175 C 
ATOM     11  O1  <0> d           1.060  -0.596  -0.011  0.00  0.00    -0.291 OA
BRANCH  10  12
ATOM     12  C1  <0> d          -0.018   1.503   0.010  0.00  0.00    -0.015 C 
ATOM     13  H1  <0> d           1.004   1.880   0.003  0.00  0.00     0.038 H 
ATOM     14  H2  <0> d          -0.545   1.864  -0.873  0.00  0.00     0.038 H 
ATOM     15  H3  <0> d          -0.529   1.854   0.907  0.00  0.00     0.038 H 
ENDBRANCH  10  12
ENDBRANCH   1  10
TORSDOF 2
