REMARK  3 active torsions:
REMARK  status: ('A' for Active; 'I' for Inactive)
REMARK    1  A    between atoms: C1_1  and  O1_2 
REMARK    2  A    between atoms: O1_2  and  C2_3 
REMARK    3  A    between atoms: C7_8  and  N1_9 
ROOT
ATOM      1  C2  <0> d          -1.255   3.042   0.030  0.00  0.00     0.097 A 
ATOM      2  C3  <0> d          -2.466   3.715   0.034  0.00  0.00    -0.045 A 
ATOM      3  C4  <0> d          -3.653   3.005   0.035  0.00  0.00    -0.040 A 
ATOM      4  C5  <0> d          -3.636   1.621   0.028  0.00  0.00     0.157 A 
ATOM      5  C6  <0> d          -2.428   0.941   0.019  0.00  0.00     0.183 A 
ATOM      6  C7  <0> d          -1.234   1.650   0.017  0.00  0.00     0.101 A 
ATOM      7  F1  <0> d          -2.413  -0.410   0.012  0.00  0.00    -0.200 F 
ATOM      8  F2  <0> d          -4.798   0.931   0.030  0.00  0.00    -0.203 F 
ATOM      9  H4  <0> d          -2.483   4.795   0.040  0.00  0.00     0.088 H 
ATOM     10  H5  <0> d          -4.596   3.532   0.042  0.00  0.00     0.088 H 
ENDROOT
BRANCH   1  11
ATOM     11  O1  <0> d          -0.087   3.741   0.034  0.00  0.00    -0.354 OA
BRANCH  11  12
ATOM     12  C1  <0> d          -0.185   5.166   0.048  0.00  0.00     0.010 C 
ATOM     13  H1  <0> d          -0.724   5.502  -0.837  0.00  0.00     0.066 H 
ATOM     14  H2  <0> d          -0.720   5.485   0.943  0.00  0.00     0.066 H 
ATOM     15  H3  <0> d           0.816   5.599   0.050  0.00  0.00     0.066 H 
ENDBRANCH  11  12
ENDBRANCH   1  11
BRANCH   6  16
ATOM     16  N1  <0> d          -0.011   0.966   0.007  0.00  0.00    -0.394 N 
ATOM     17  H6  <0> d           0.002  -0.004   0.002  0.00  0.00     0.156 HD
ATOM     18  H7  <0> d           0.822   1.462   0.002  0.00  0.00     0.156 HD
ENDBRANCH   6  16
TORSDOF 3
