REMARK  1 active torsions:
REMARK  status: ('A' for Active; 'I' for Inactive)
REMARK    1  A    between atoms: C5_5  and  S1_7 
ROOT
ATOM      1  C1  <0> d          -0.017   1.378   0.010  0.00  0.00    -0.079 A 
ATOM      2  C2  <0> d           1.171   2.086   0.002  0.00  0.00    -0.046 A 
ATOM      3  C3  <0> d           2.379   1.410  -0.013  0.00  0.00     0.117 A 
ATOM      4  C4  <0> d           2.396   0.025  -0.021  0.00  0.00    -0.024 A 
ATOM      5  C5  <0> d           1.208  -0.680  -0.013  0.00  0.00     0.077 A 
ATOM      6  C6  <0> d           0.002  -0.004   0.002  0.00  0.00    -0.061 A 
ATOM      7  F1  <0> d           3.540   2.101  -0.021  0.00  0.00    -0.206 F 
ATOM      8  H1  <0> d          -0.959   1.905   0.026  0.00  0.00     0.083 H 
ATOM      9  H2  <0> d           1.156   3.166   0.008  0.00  0.00     0.088 H 
ATOM     10  H3  <0> d           3.338  -0.503  -0.033  0.00  0.00     0.090 H 
ATOM     11  H4  <0> d          -0.926  -0.556   0.008  0.00  0.00     0.085 H 
ENDROOT
BRANCH   5  12
ATOM     12  S1  <0> d           1.230  -2.442  -0.024  0.00  0.00     0.286 S 
ATOM     13  O1  <0> d           1.248  -2.806   1.402  0.00  0.00    -0.206 OA
ATOM     14  O2  <0> d          -0.123  -2.812  -0.468  0.00  0.00    -0.206 OA
ENDBRANCH   5  12
TORSDOF 1
