REMARK  1 active torsions:
REMARK  status: ('A' for Active; 'I' for Inactive)
REMARK    1  A    between atoms: C1_1  and  C2_2 
ROOT
ATOM      1  C2  <0> d          -0.718   1.572   1.248  0.00  0.00    -0.053 A 
ATOM      2  C3  <0> d          -0.004   1.810   2.416  0.00  0.00    -0.031 A 
ATOM      3  C4  <0> d          -0.669   2.256   3.544  0.00  0.00     0.156 A 
ATOM      4  N1  <0> d          -0.243   2.568   4.807  0.00  0.00    -0.221 NA
ATOM      5  C5  <0> d          -1.330   2.961   5.536  0.00  0.00     0.108 A 
ATOM      6  N2  <0> d          -2.389   2.907   4.792  0.00  0.00    -0.156 NA
ATOM      7  N3  <0> d          -2.014   2.463   3.516  0.00  0.00    -0.178 N 
ATOM      8  C6  <0> d          -2.721   2.237   2.393  0.00  0.00     0.270 A 
ATOM      9  O1  <0> d          -3.929   2.429   2.387  0.00  0.00    -0.266 OA
ATOM     10  C7  <0> d          -2.084   1.792   1.236  0.00  0.00    -0.010 A 
ATOM     11  H4  <0> d           1.063   1.647   2.443  0.00  0.00     0.090 H 
ATOM     12  H5  <0> d          -1.309   3.270   6.571  0.00  0.00     0.149 H 
ATOM     13  H6  <0> d          -2.655   1.617   0.336  0.00  0.00     0.092 H 
ENDROOT
BRANCH   1  14
ATOM     14  C1  <0> d          -0.013   1.086   0.008  0.00  0.00    -0.051 C 
ATOM     15  H1  <0> d           1.061   0.972   0.218  0.00  0.00     0.033 H 
ATOM     16  H2  <0> d          -0.153   1.815  -0.803  0.00  0.00     0.033 H 
ATOM     17  H3  <0> d          -0.432   0.115  -0.295  0.00  0.00     0.033 H 
ENDBRANCH   1  14
TORSDOF 1
