REMARK  5 active torsions:
REMARK  status: ('A' for Active; 'I' for Inactive)
REMARK    1  A    between atoms: C1_1  and  C2_2 
REMARK    2  A    between atoms: C2_2  and  C8_11 
REMARK    3  A    between atoms: C4_4  and  O2_10 
REMARK    4  A    between atoms: C5_6  and  C6_8 
REMARK    5  A    between atoms: C5_6  and  C7_9 
ROOT
ATOM      1  C2  <0> d           2.322   2.146  -2.122  0.00  0.00     0.057 C 
ATOM      2  C3  <0> d           2.085   0.828  -1.352  0.00  0.00    -0.010 C 
ATOM      3  C4  <0> d           1.313   1.266  -0.087  0.00  0.00     0.067 C 
ATOM      4  H1  <0> d           1.880   1.020   0.811  0.00  0.00     0.087 H 
ATOM      5  C5  <0> d           1.175   2.797  -0.239  0.00  0.00     0.080 C 
ATOM      6  O1  <0> d           2.261   3.178  -1.114  0.00  0.00    -0.368 OA
ATOM      7  H5  <0> d           3.035   0.368  -1.079  0.00  0.00     0.041 H 
ATOM      8  H6  <0> d           1.485   0.138  -1.946  0.00  0.00     0.041 H 
ENDROOT
BRANCH   1   9
ATOM      9  C1  <0> d           3.698   2.132  -2.789  0.00  0.00    -0.048 C 
ATOM     10  H2  <0> d           3.756   1.297  -3.488  0.00  0.00     0.031 H 
ATOM     11  H3  <0> d           3.850   3.068  -3.328  0.00  0.00     0.031 H 
ATOM     12  H4  <0> d           4.470   2.022  -2.028  0.00  0.00     0.031 H 
ENDBRANCH   1   9
BRANCH   1  13
ATOM     13  C8  <0> d           1.224   2.357  -3.167  0.00  0.00    -0.048 C 
ATOM     14  H14 <0> d           0.291   1.924  -2.806  0.00  0.00     0.031 H 
ATOM     15  H15 <0> d           1.087   3.424  -3.339  0.00  0.00     0.031 H 
ATOM     16  H16 <0> d           1.512   1.872  -4.099  0.00  0.00     0.031 H 
ENDBRANCH   1  13
BRANCH   5  17
ATOM     17  C6  <0> d          -0.171   3.149  -0.877  0.00  0.00    -0.046 C 
ATOM     18  H7  <0> d          -0.936   3.204  -0.103  0.00  0.00     0.031 H 
ATOM     19  H8  <0> d          -0.092   4.113  -1.380  0.00  0.00     0.031 H 
ATOM     20  H9  <0> d          -0.441   2.382  -1.601  0.00  0.00     0.031 H 
ENDBRANCH   5  17
BRANCH   5  21
ATOM     21  C7  <0> d           1.317   3.482   1.122  0.00  0.00    -0.046 C 
ATOM     22  H10 <0> d           2.295   3.254   1.544  0.00  0.00     0.031 H 
ATOM     23  H11 <0> d           1.217   4.560   0.998  0.00  0.00     0.031 H 
ATOM     24  H12 <0> d           0.538   3.120   1.794  0.00  0.00     0.031 H 
ENDBRANCH   5  21
BRANCH   3  25
ATOM     25  O2  <0> d           0.025   0.648  -0.047  0.00  0.00    -0.392 OA
ATOM     26  H13 <0> d           0.053  -0.316   0.018  0.00  0.00     0.210 HD
ENDBRANCH   3  25
TORSDOF 5
