REMARK  2 active torsions:
REMARK  status: ('A' for Active; 'I' for Inactive)
REMARK    1  A    between atoms: C2_2  and  N3_12 
REMARK    2  A    between atoms: C3_4  and  C5_9 
ROOT
ATOM      1  C1  <0> d          -0.017   1.397   0.010  0.00  0.00     0.026 A 
ATOM      2  C2  <0> d           1.192   2.073   0.002  0.00  0.00     0.128 A 
ATOM      3  N1  <0> d           2.339   1.377  -0.013  0.00  0.00    -0.218 NA
ATOM      4  C3  <0> d           2.340   0.072  -0.020  0.00  0.00     0.113 A 
ATOM      5  N2  <0> d           1.194  -0.637  -0.013  0.00  0.00    -0.311 N 
ATOM      6  H1  <0> d           1.226  -1.606  -0.019  0.00  0.00     0.170 HD
ATOM      7  C4  <0> d           0.002  -0.004   0.002  0.00  0.00     0.250 A 
ATOM      8  O1  <0> d          -1.040  -0.640   0.009  0.00  0.00    -0.268 OA
ATOM      9  H2  <0> d          -0.952   1.938   0.026  0.00  0.00     0.098 H 
ENDROOT
BRANCH   4  10
ATOM     10  C5  <0> d           3.657  -0.660  -0.036  0.00  0.00     0.004 A 
ATOM     11  C7  <0> d           4.867   0.073  -0.618  0.00  0.00    -0.054 A 
ATOM     12  C6  <0> d           4.761  -0.151   0.892  0.00  0.00    -0.054 A 
ATOM     13  H6  <0> d           5.600  -0.519  -1.164  0.00  0.00     0.034 H 
ATOM     14  H7  <0> d           4.711   1.087  -0.988  0.00  0.00     0.034 H 
ATOM     15  H4  <0> d           4.535   0.715   1.515  0.00  0.00     0.034 H 
ATOM     16  H5  <0> d           5.425  -0.891   1.339  0.00  0.00     0.034 H 
ATOM     17  H3  <0> d           3.594  -1.736  -0.201  0.00  0.00     0.052 H 
ENDBRANCH   4  10
BRANCH   2  18
ATOM     18  N3  <0> d           1.216   3.453   0.009  0.00  0.00    -0.384 N 
ATOM     19  H8  <0> d           0.385   3.953   0.019  0.00  0.00     0.157 HD
ATOM     20  H9  <0> d           2.065   3.923   0.003  0.00  0.00     0.157 HD
ENDBRANCH   2  18
TORSDOF 2
