REMARK  2 active torsions:
REMARK  status: ('A' for Active; 'I' for Inactive)
REMARK    1  A    between atoms: C1_1  and  C2_2 
REMARK    2  A    between atoms: N2_6  and  C5_7 
ROOT
ATOM      1  C5  <0> d          -1.213   2.242   0.020  0.00  0.00     0.095 C 
ATOM      2  C6  <0> d          -1.607   2.518   1.412  0.00  0.00     0.081 C 
ATOM      3  N3  <0> d          -1.910   2.732   2.485  0.00  0.00    -0.195 NA
ATOM      4  H5  <0> d          -0.999   3.181  -0.490  0.00  0.00     0.089 H 
ATOM      5  H6  <0> d          -2.026   1.728  -0.492  0.00  0.00     0.089 H 
ENDROOT
BRANCH   1   6
ATOM      6  N2  <0> d          -0.017   1.397   0.010  0.00  0.00    -0.260 N 
ATOM      7  C2  <0> d           1.262   1.830  -0.000  0.00  0.00     0.051 A 
ATOM      8  C3  <0> d           2.066   0.741  -0.014  0.00  0.00     0.077 A 
ATOM      9  C4  <0> d           1.250  -0.396  -0.012  0.00  0.00     0.045 A 
ATOM     10 Cl1  <0> d           3.802   0.752  -0.030  0.00  0.00    -0.081 Cl
ATOM     11  N1  <0> d           0.002  -0.004   0.002  0.00  0.00    -0.182 NA
ATOM     12  H4  <0> d           1.592  -1.421  -0.021  0.00  0.00     0.120 H 
BRANCH   7  13
ATOM     13  C1  <0> d           1.714   3.268   0.003  0.00  0.00    -0.034 C 
ATOM     14  H1  <0> d           1.832   3.609   1.031  0.00  0.00     0.035 H 
ATOM     15  H2  <0> d           2.667   3.350  -0.520  0.00  0.00     0.035 H 
ATOM     16  H3  <0> d           0.969   3.883  -0.501  0.00  0.00     0.035 H 
ENDBRANCH   7  13
ENDBRANCH   1   6
TORSDOF 2
