REMARK  3 active torsions:
REMARK  status: ('A' for Active; 'I' for Inactive)
REMARK    1  A    between atoms: C1_1  and  C2_2 
REMARK    2  A    between atoms: C5_5  and  C8_9 
REMARK    3  A    between atoms: C6_6  and  O1_8 
ROOT
ATOM      1  C2  <0> d           2.380   1.425  -0.013  0.00  0.00    -0.059 A 
ATOM      2  C3  <0> d           1.168   2.096   0.002  0.00  0.00    -0.076 A 
ATOM      3  C4  <0> d          -0.017   1.393   0.010  0.00  0.00    -0.063 A 
ATOM      4  C5  <0> d           0.002  -0.004   0.002  0.00  0.00     0.073 A 
ATOM      5  C6  <0> d           1.230  -0.680  -0.013  0.00  0.00     0.083 A 
ATOM      6  C7  <0> d           2.413   0.044  -0.021  0.00  0.00    -0.044 A 
ATOM      7  H4  <0> d           1.152   3.176   0.008  0.00  0.00     0.084 H 
ATOM      8  H5  <0> d          -0.959   1.921   0.017  0.00  0.00     0.085 H 
ATOM      9  H6  <0> d           3.362  -0.472  -0.033  0.00  0.00     0.088 H 
ENDROOT
BRANCH   1  10
ATOM     10  C1  <0> d           3.669   2.205  -0.023  0.00  0.00    -0.051 C 
ATOM     11  H1  <0> d           3.969   2.398  -1.052  0.00  0.00     0.033 H 
ATOM     12  H2  <0> d           3.524   3.152   0.497  0.00  0.00     0.033 H 
ATOM     13  H3  <0> d           4.446   1.629   0.480  0.00  0.00     0.033 H 
ENDBRANCH   1  10
BRANCH   5  14
ATOM     14  O1  <0> d           1.262  -2.036  -0.021  0.00  0.00    -0.360 OA
ATOM     15  H7  <0> d           1.262  -2.425  -0.906  0.00  0.00     0.217 HD
ENDBRANCH   5  14
BRANCH   4  16
ATOM     16  C8  <0> d          -1.262  -0.763   0.009  0.00  0.00     0.212 C 
ATOM     17  O2  <0> d          -1.241  -1.978   0.003  0.00  0.00    -0.644 OA
ATOM     18  O3  <0> d          -2.440  -0.109   0.024  0.00  0.00    -0.644 OA
ENDBRANCH   4  16
TORSDOF 3
