REMARK  1 active torsions:
REMARK  status: ('A' for Active; 'I' for Inactive)
REMARK    1  A    between atoms: C3_3  and  C6_8 
REMARK       I    between atoms: C6_8  and  N2_10 
ROOT
ATOM      1  C1  <0> d          -2.442  -2.851   0.010  0.00  0.00    -0.058 A 
ATOM      2  C2  <0> d          -1.244  -2.155  -0.003  0.00  0.00    -0.048 A 
ATOM      3  C3  <0> d          -1.270  -0.762   0.010  0.00  0.00     0.123 A 
ATOM      4  N1  <0> d          -2.426  -0.108   0.025  0.00  0.00    -0.254 NA
ATOM      5  C4  <0> d          -3.577  -0.742   0.032  0.00  0.00     0.024 A 
ATOM      6  C5  <0> d          -3.627  -2.129   0.025  0.00  0.00     0.051 A 
ATOM      7 Cl1  <0> d          -5.155  -2.951   0.036  0.00  0.00    -0.083 Cl
ATOM      8  H1  <0> d          -2.454  -3.931   0.004  0.00  0.00     0.086 H 
ATOM      9  H2  <0> d          -0.303  -2.685  -0.020  0.00  0.00     0.087 H 
ATOM     10  H3  <0> d          -4.497  -0.176   0.044  0.00  0.00     0.117 H 
ENDROOT
BRANCH   3  11
ATOM     11  C6  <0> d           0.002  -0.004   0.002  0.00  0.00     0.268 C 
ATOM     12  O1  <0> d           1.063  -0.597  -0.011  0.00  0.00    -0.266 OA
ATOM     13  N2  <0> d          -0.016   1.344   0.009  0.00  0.00    -0.365 N 
ATOM     14  H4  <0> d           0.817   1.840   0.004  0.00  0.00     0.159 HD
ATOM     15  H5  <0> d          -0.863   1.817   0.016  0.00  0.00     0.159 HD
ENDBRANCH   3  11
TORSDOF 1
