REMARK  2 active torsions:
REMARK  status: ('A' for Active; 'I' for Inactive)
REMARK    1  A    between atoms: N1_4  and  C5_6 
REMARK    2  A    between atoms: C5_6  and  C6_7 
ROOT
ATOM      1  C5  <0> d           2.504   1.086  -0.016  0.00  0.00     0.022 C 
ATOM      2  H5  <0> d           3.247   1.699   0.494  0.00  0.00     0.072 H 
ATOM      3  H6  <0> d           2.411   0.127   0.494  0.00  0.00     0.072 H 
ENDROOT
BRANCH   1   4
ATOM      4  N1  <0> d           2.922   0.864  -1.402  0.00  0.00    -0.362 N 
ATOM      5  C3  <0> d           3.669   1.722  -2.154  0.00  0.00    -0.021 A 
ATOM      6  C2  <0> d           3.847   1.170  -3.371  0.00  0.00    -0.067 A 
ATOM      7  H3  <0> d           4.052   2.678  -1.830  0.00  0.00     0.111 H 
ATOM      8  C1  <0> d           3.185  -0.074  -3.371  0.00  0.00    -0.067 A 
ATOM      9  H2  <0> d           4.396   1.602  -4.195  0.00  0.00     0.085 H 
ATOM     10  C4  <0> d           2.633  -0.237  -2.152  0.00  0.00    -0.021 A 
ATOM     11  H1  <0> d           3.133  -0.770  -4.195  0.00  0.00     0.085 H 
ATOM     12  H4  <0> d           2.059  -1.093  -1.826  0.00  0.00     0.111 H 
ENDBRANCH   1   4
BRANCH   1  13
ATOM     13  C6  <0> d           1.173   1.794   0.001  0.00  0.00    -0.037 A 
ATOM     14  C10 <0> d           1.106   3.179   0.009  0.00  0.00    -0.058 A 
ATOM     15  C9  <0> d          -0.132   3.793   0.024  0.00  0.00     0.002 A 
ATOM     16  H10 <0> d           2.010   3.770   0.003  0.00  0.00     0.086 H 
ATOM     17  N2  <0> d          -1.240   3.078   0.030  0.00  0.00    -0.273 NA
ATOM     18  H9  <0> d          -0.193   4.871   0.030  0.00  0.00     0.114 H 
ATOM     19  C8  <0> d          -1.214   1.759   0.017  0.00  0.00     0.002 A 
ATOM     20  C7  <0> d          -0.013   1.076   0.008  0.00  0.00    -0.058 A 
ATOM     21  H8  <0> d          -2.142   1.207   0.019  0.00  0.00     0.114 H 
ATOM     22  H7  <0> d           0.002  -0.004   0.002  0.00  0.00     0.086 H 
ENDBRANCH   1  13
TORSDOF 2
