REMARK  6 active torsions:
REMARK  status: ('A' for Active; 'I' for Inactive)
REMARK    1  A    between atoms: C1_1  and  C2_2 
REMARK    2  A    between atoms: C2_2  and  C3_3 
REMARK    3  A    between atoms: C3_3  and  C4_4 
REMARK    4  A    between atoms: C3_3  and  C6_6 
REMARK    5  A    between atoms: C4_4  and  C5_5 
REMARK    6  A    between atoms: C6_6  and  C7_7 
ROOT
ATOM      1  C3  <0> d          -0.018   1.468   0.010  0.00  0.00     0.048 C 
ATOM      2  C8  <0> d           0.002  -0.004   0.002  0.00  0.00     0.069 C 
ATOM      3  N1  <0> d           0.018  -1.140  -0.004  0.00  0.00    -0.196 NA
ENDROOT
BRANCH   1   4
ATOM      4  C2  <0> d           1.417   1.997  -0.001  0.00  0.00    -0.049 C 
ATOM      5  H4  <0> d           1.945   1.636   0.882  0.00  0.00     0.035 H 
ATOM      6  H5  <0> d           1.928   1.646  -0.897  0.00  0.00     0.035 H 
BRANCH   4   7
ATOM      7  C1  <0> d           1.397   3.527   0.008  0.00  0.00    -0.075 C 
ATOM      8  H1  <0> d           0.870   3.888  -0.875  0.00  0.00     0.027 H 
ATOM      9  H2  <0> d           0.887   3.879   0.904  0.00  0.00     0.027 H 
ATOM     10  H3  <0> d           2.419   3.905  -0.000  0.00  0.00     0.027 H 
ENDBRANCH   4   7
ENDBRANCH   1   4
BRANCH   1  11
ATOM     11  C4  <0> d          -0.758   1.975  -1.229  0.00  0.00    -0.049 C 
ATOM     12  H6  <0> d          -1.780   1.597  -1.222  0.00  0.00     0.035 H 
ATOM     13  H7  <0> d          -0.773   3.064  -1.223  0.00  0.00     0.035 H 
BRANCH  11  14
ATOM     14  C5  <0> d          -0.042   1.481  -2.488  0.00  0.00    -0.075 C 
ATOM     15  H8  <0> d          -0.027   0.391  -2.494  0.00  0.00     0.027 H 
ATOM     16  H9  <0> d          -0.569   1.842  -3.371  0.00  0.00     0.027 H 
ATOM     17  H10 <0> d           0.981   1.859  -2.496  0.00  0.00     0.027 H 
ENDBRANCH  11  14
ENDBRANCH   1  11
BRANCH   1  18
ATOM     18  C6  <0> d          -0.734   1.961   1.269  0.00  0.00    -0.049 C 
ATOM     19  H11 <0> d          -0.749   3.051   1.275  0.00  0.00     0.035 H 
ATOM     20  H12 <0> d          -1.757   1.584   1.277  0.00  0.00     0.035 H 
BRANCH  18  21
ATOM     21  C7  <0> d           0.006   1.454   2.508  0.00  0.00    -0.075 C 
ATOM     22  H13 <0> d           0.021   0.364   2.502  0.00  0.00     0.027 H 
ATOM     23  H14 <0> d           1.029   1.832   2.501  0.00  0.00     0.027 H 
ATOM     24  H15 <0> d          -0.504   1.806   3.405  0.00  0.00     0.027 H 
ENDBRANCH  18  21
ENDBRANCH   1  18
TORSDOF 6
