REMARK  2 active torsions:
REMARK  status: ('A' for Active; 'I' for Inactive)
REMARK    1  A    between atoms: C5_5  and  O2_12 
REMARK    2  A    between atoms: C6_7  and  O1_11 
ROOT
ATOM      1  C1  <0> d          -0.018   1.516   0.010  0.00  0.00    -0.065 C 
ATOM      2  C2  <0> d           1.366   2.147   0.001  0.00  0.00    -0.065 C 
ATOM      3  C3  <0> d           2.465   1.163  -0.394  0.00  0.00    -0.063 C 
ATOM      4  C4  <0> d           2.767   1.310  -1.895  0.00  0.00    -0.039 C 
ATOM      5  C5  <0> d           1.626   0.690  -2.709  0.00  0.00     0.060 C 
ATOM      6  H1  <0> d           1.997   0.515  -3.729  0.00  0.00     0.086 H 
ATOM      7  C6  <0> d           1.211  -0.651  -2.112  0.00  0.00     0.060 C 
ATOM      8  H2  <0> d           1.965  -1.000  -1.407  0.00  0.00     0.086 H 
ATOM      9  C7  <0> d          -0.143  -0.544  -1.418  0.00  0.00    -0.039 C 
ATOM     10  C8  <0> d           0.002  -0.004   0.002  0.00  0.00    -0.063 C 
ATOM     11  H3  <0> d          -0.546   1.851   0.918  0.00  0.00     0.033 H 
ATOM     12  H4  <0> d          -0.600   1.883  -0.841  0.00  0.00     0.033 H 
ATOM     13  H5  <0> d           1.375   2.990  -0.700  0.00  0.00     0.033 H 
ATOM     14  H6  <0> d           1.588   2.544   0.998  0.00  0.00     0.033 H 
ATOM     15  H7  <0> d           3.381   1.441   0.154  0.00  0.00     0.033 H 
ATOM     16  H8  <0> d           2.232   0.146  -0.150  0.00  0.00     0.033 H 
ATOM     17  H9  <0> d           2.851   2.368  -2.139  0.00  0.00     0.036 H 
ATOM     18  H10 <0> d           3.701   0.802  -2.125  0.00  0.00     0.036 H 
ATOM     19  H11 <0> d          -0.821   0.085  -1.991  0.00  0.00     0.036 H 
ATOM     20  H12 <0> d          -0.589  -1.548  -1.365  0.00  0.00     0.036 H 
ATOM     21  H13 <0> d           0.874  -0.408   0.494  0.00  0.00     0.033 H 
ATOM     22  H14 <0> d          -0.873  -0.356   0.581  0.00  0.00     0.033 H 
ENDROOT
BRANCH   5  23
ATOM     23  O2  <0> d           0.530   1.594  -2.780  0.00  0.00    -0.393 OA
ATOM     24  H16 <0> d           0.744   2.439  -3.198  0.00  0.00     0.210 HD
ENDBRANCH   5  23
BRANCH   7  25
ATOM     25  O1  <0> d           1.113  -1.617  -3.170  0.00  0.00    -0.393 OA
ATOM     26  H15 <0> d           0.853  -2.500  -2.874  0.00  0.00     0.210 HD
ENDBRANCH   7  25
TORSDOF 2
