REMARK  2 active torsions:
REMARK  status: ('A' for Active; 'I' for Inactive)
REMARK    1  A    between atoms: C3_3  and  C7_9 
REMARK    2  A    between atoms: C6_6  and  N1_7 
REMARK       I    between atoms: C7_9  and  N2_11 
ROOT
ATOM      1  C1  <0> d          -0.017   1.388   0.010  0.00  0.00    -0.057 A 
ATOM      2  C2  <0> d           1.153   2.093   0.002  0.00  0.00    -0.063 A 
ATOM      3  C3  <0> d           2.377   1.418  -0.013  0.00  0.00     0.070 A 
ATOM      4  C4  <0> d           2.401   0.017  -0.021  0.00  0.00     0.134 A 
ATOM      5  C5  <0> d           1.214  -0.687  -0.013  0.00  0.00    -0.019 A 
ATOM      6  C6  <0> d           0.002  -0.004   0.002  0.00  0.00     0.028 A 
ATOM      7  F1  <0> d           3.580  -0.642  -0.037  0.00  0.00    -0.205 F 
ATOM      8  H1  <0> d          -0.961   1.913   0.026  0.00  0.00     0.086 H 
ATOM      9  H2  <0> d           1.133   3.172   0.008  0.00  0.00     0.085 H 
ATOM     10  H3  <0> d           1.226  -1.767  -0.019  0.00  0.00     0.091 H 
ENDROOT
BRANCH   3  11
ATOM     11  C7  <0> d           3.640   2.178  -0.022  0.00  0.00     0.252 C 
ATOM     12  O1  <0> d           4.704   1.589  -0.036  0.00  0.00    -0.268 OA
ATOM     13  N2  <0> d           3.616   3.525  -0.015  0.00  0.00    -0.366 N 
ATOM     14  H6  <0> d           2.767   3.995  -0.004  0.00  0.00     0.159 HD
ATOM     15  H7  <0> d           4.447   4.025  -0.021  0.00  0.00     0.159 HD
ENDBRANCH   3  11
BRANCH   6  16
ATOM     16  N1  <0> d          -1.194  -0.714   0.010  0.00  0.00    -0.399 N 
ATOM     17  H4  <0> d          -2.039  -0.239   0.021  0.00  0.00     0.156 HD
ATOM     18  H5  <0> d          -1.182  -1.684   0.005  0.00  0.00     0.156 HD
ENDBRANCH   6  16
TORSDOF 2
