REMARK  1 active torsions:
REMARK  status: ('A' for Active; 'I' for Inactive)
REMARK    1  A    between atoms: C2_2  and  C5_9 
REMARK       I    between atoms: C5_9  and  N2_11 
ROOT
ATOM      1  C1  <0> d          -0.019   1.542   0.011  0.00  0.00     0.035 C 
ATOM      2  C2  <0> d           1.486   1.909  -0.002  0.00  0.00     0.213 C 
ATOM      3  H1  <0> d           1.907   1.840   1.001  0.00  0.00     0.103 H 
ATOM      4  N1  <0> d           2.080   0.878  -0.892  0.00  0.00     0.103 N 
ATOM      5  C3  <0> d           1.381  -0.385  -0.569  0.00  0.00     0.172 C 
ATOM      6  C4  <0> d           0.002  -0.004   0.002  0.00  0.00     0.272 C 
ATOM      7  F1  <0> d          -0.138  -0.499   1.303  0.00  0.00    -0.204 F 
ATOM      8  F2  <0> d          -1.017  -0.499  -0.819  0.00  0.00    -0.204 F 
ATOM      9  H2  <0> d          -0.500   1.916   0.914  0.00  0.00     0.045 H 
ATOM     10  H3  <0> d          -0.517   1.926  -0.880  0.00  0.00     0.045 H 
ATOM     11  H4  <0> d           1.955   1.123  -1.862  0.00  0.00     0.317 HD
ATOM     12  H5  <0> d           1.256  -0.982  -1.472  0.00  0.00     0.088 H 
ATOM     13  H6  <0> d           1.949  -0.944   0.174  0.00  0.00     0.088 H 
ENDROOT
BRANCH   2  14
ATOM     14  C5  <0> d           1.692   3.289  -0.570  0.00  0.00     0.249 C 
ATOM     15  O1  <0> d           2.046   3.425  -1.722  0.00  0.00    -0.271 OA
ATOM     16  N2  <0> d           1.484   4.374   0.203  0.00  0.00    -0.368 N 
ATOM     17  H7  <0> d           1.201   4.266   1.125  0.00  0.00     0.159 HD
ATOM     18  H8  <0> d           1.617   5.263  -0.162  0.00  0.00     0.159 HD
ENDBRANCH   2  14
TORSDOF 1
