REMARK  2 active torsions:
REMARK  status: ('A' for Active; 'I' for Inactive)
REMARK    1  A    between atoms: C4_4  and  C6_6 
REMARK    2  A    between atoms: C7_7  and  C8_8 
ROOT
ATOM      1  C1  <0> d          -0.019   1.541   0.011  0.00  0.00    -0.058 C 
ATOM      2  C2  <0> d           1.490   1.877  -0.002  0.00  0.00    -0.048 C 
ATOM      3  C3  <0> d           2.161   0.667   0.605  0.00  0.00    -0.089 C 
ATOM      4  C4  <0> d           1.335  -0.377   0.608  0.00  0.00    -0.008 C 
ATOM      5  C5  <0> d           0.002  -0.004   0.002  0.00  0.00    -0.033 C 
ATOM      6  H1  <0> d          -0.495   1.920   0.915  0.00  0.00     0.033 H 
ATOM      7  H2  <0> d          -0.512   1.930  -0.880  0.00  0.00     0.033 H 
ATOM      8  H3  <0> d           1.836   2.030  -1.024  0.00  0.00     0.038 H 
ATOM      9  H4  <0> d           1.686   2.763   0.602  0.00  0.00     0.038 H 
ATOM     10  H5  <0> d           3.172   0.652   0.985  0.00  0.00     0.078 H 
ATOM     11  H6  <0> d          -0.814  -0.398   0.609  0.00  0.00     0.041 H 
ATOM     12  H7  <0> d          -0.069  -0.379  -1.019  0.00  0.00     0.041 H 
ENDROOT
BRANCH   4  13
ATOM     13  C6  <0> d           1.665  -1.675   1.114  0.00  0.00    -0.060 C 
ATOM     14  C7  <0> d           1.936  -2.740   1.529  0.00  0.00     0.010 C 
BRANCH  14  15
ATOM     15  C8  <0> d           2.266  -4.038   2.035  0.00  0.00     0.258 C 
ATOM     16  O1  <0> d           1.438  -4.940   1.994  0.00  0.00    -0.637 OA
ATOM     17  O2  <0> d           3.376  -4.247   2.509  0.00  0.00    -0.637 OA
ENDBRANCH  14  15
ENDBRANCH   4  13
TORSDOF 2
