REMARK  2 active torsions:
REMARK  status: ('A' for Active; 'I' for Inactive)
REMARK    1  A    between atoms: C1_1  and  C2_2 
REMARK    2  A    between atoms: C4_5  and  C5_7 
REMARK       I    between atoms: C5_7  and  N1_9 
ROOT
ATOM      1  C2  <0> d           1.317   0.779  -0.006  0.00  0.00    -0.045 A 
ATOM      2  H1  <0> d           1.906   0.782   0.910  0.00  0.00     0.040 H 
ATOM      3  C3  <0> d           0.002  -0.004   0.002  0.00  0.00    -0.050 A 
ATOM      4  C4  <0> d          -0.019   1.526   0.010  0.00  0.00     0.027 A 
ATOM      5  H2  <0> d          -0.325   2.030  -0.906  0.00  0.00     0.055 H 
ATOM      6  H6  <0> d          -0.273  -0.516   0.924  0.00  0.00     0.034 H 
ATOM      7  H7  <0> d          -0.291  -0.506  -0.920  0.00  0.00     0.034 H 
ENDROOT
BRANCH   4   8
ATOM      8  C5  <0> d          -0.418   2.209   1.293  0.00  0.00     0.220 C 
ATOM      9  O1  <0> d           0.310   2.154   2.261  0.00  0.00    -0.273 OA
ATOM     10  N1  <0> d          -1.583   2.882   1.364  0.00  0.00    -0.370 N 
ATOM     11  H8  <0> d          -2.166   2.926   0.589  0.00  0.00     0.159 HD
ATOM     12  H9  <0> d          -1.840   3.322   2.189  0.00  0.00     0.159 HD
ENDBRANCH   4   8
BRANCH   1  13
ATOM     13  C1  <0> d           2.120   0.797  -1.308  0.00  0.00    -0.072 C 
ATOM     14  H3  <0> d           2.362   1.827  -1.571  0.00  0.00     0.028 H 
ATOM     15  H4  <0> d           3.041   0.229  -1.175  0.00  0.00     0.028 H 
ATOM     16  H5  <0> d           1.528   0.348  -2.106  0.00  0.00     0.028 H 
ENDBRANCH   1  13
TORSDOF 2
