REMARK  5 active torsions:
REMARK  status: ('A' for Active; 'I' for Inactive)
REMARK    1  A    between atoms: C1_1  and  O1_2 
REMARK    2  A    between atoms: O1_2  and  C2_3 
REMARK    3  A    between atoms: C6_7  and  C7_9 
REMARK    4  A    between atoms: C7_9  and  C8_10 
REMARK    5  A    between atoms: C8_10  and  O2_11 
ROOT
ATOM      1  C2  <0> d          -1.198  -0.636   0.010  0.00  0.00     0.164 A 
ATOM      2  C3  <0> d          -1.244  -2.025   0.009  0.00  0.00    -0.032 A 
ATOM      3  C4  <0> d          -2.475  -2.658   0.018  0.00  0.00    -0.077 A 
ATOM      4  C5  <0> d          -3.622  -1.875   0.027  0.00  0.00    -0.059 A 
ATOM      5  C6  <0> d          -3.501  -0.500   0.028  0.00  0.00     0.039 A 
ATOM      6  N1  <0> d          -2.313   0.075   0.025  0.00  0.00    -0.229 NA
ATOM      7  H4  <0> d          -0.332  -2.603   0.001  0.00  0.00     0.090 H 
ATOM      8  H5  <0> d          -2.542  -3.735   0.017  0.00  0.00     0.083 H 
ATOM      9  H6  <0> d          -4.598  -2.337   0.034  0.00  0.00     0.086 H 
ENDROOT
BRANCH   5  10
ATOM     10  C7  <0> d          -4.742   0.356   0.038  0.00  0.00    -0.005 C 
ATOM     11  H7  <0> d          -4.801   0.921  -0.892  0.00  0.00     0.045 H 
ATOM     12  H8  <0> d          -5.621  -0.281   0.134  0.00  0.00     0.045 H 
BRANCH  10  13
ATOM     13  C8  <0> d          -4.682   1.325   1.221  0.00  0.00     0.022 C 
ATOM     14  H9  <0> d          -4.623   0.760   2.151  0.00  0.00     0.074 H 
ATOM     15  H10 <0> d          -3.803   1.962   1.125  0.00  0.00     0.074 H 
BRANCH  13  16
ATOM     16  O2  <0> d          -5.859   2.137   1.231  0.00  0.00    -0.400 OA
ATOM     17  H11 <0> d          -5.889   2.776   1.955  0.00  0.00     0.209 HD
ENDBRANCH  13  16
ENDBRANCH  10  13
ENDBRANCH   5  10
BRANCH   1  18
ATOM     18  O1  <0> d           0.002  -0.004   0.002  0.00  0.00    -0.339 OA
BRANCH  18  19
ATOM     19  C1  <0> d          -0.017   1.425   0.010  0.00  0.00     0.012 C 
ATOM     20  H1  <0> d           1.005   1.802   0.002  0.00  0.00     0.067 H 
ATOM     21  H2  <0> d          -0.544   1.786  -0.873  0.00  0.00     0.067 H 
ATOM     22  H3  <0> d          -0.527   1.776   0.907  0.00  0.00     0.067 H 
ENDBRANCH  18  19
ENDBRANCH   1  18
TORSDOF 5
