REMARK  2 active torsions:
REMARK  status: ('A' for Active; 'I' for Inactive)
REMARK    1  A    between atoms: C1_1  and  N1_2 
REMARK       I    between atoms: N1_2  and  C2_3 
REMARK       I    between atoms: C2_3  and  N2_5 
REMARK    2  A    between atoms: N2_5  and  C3_6 
ROOT
ATOM      1  N1  <0> d           0.002  -0.004   0.002  0.00  0.00    -0.347 N 
ATOM      2  C2  <0> d           0.604  -0.675   1.004  0.00  0.00     0.315 C 
ATOM      3  O1  <0> d           1.131  -0.065   1.914  0.00  0.00    -0.247 OA
ATOM      4  N2  <0> d           0.623  -2.023   0.996  0.00  0.00    -0.347 N 
ATOM      5  H4  <0> d          -0.418  -0.491  -0.724  0.00  0.00     0.163 HD
ATOM      6  H5  <0> d           0.202  -2.510   0.270  0.00  0.00     0.163 HD
ENDROOT
BRANCH   1   7
ATOM      7  C1  <0> d          -0.018   1.461   0.010  0.00  0.00    -0.017 C 
ATOM      8  H1  <0> d           1.005   1.838   0.002  0.00  0.00     0.056 H 
ATOM      9  H2  <0> d          -0.545   1.822  -0.873  0.00  0.00     0.056 H 
ATOM     10  H3  <0> d          -0.528   1.812   0.907  0.00  0.00     0.056 H 
ENDBRANCH   1   7
BRANCH   4  11
ATOM     11  C3  <0> d           1.277  -2.753   2.085  0.00  0.00    -0.017 C 
ATOM     12  H6  <0> d           0.798  -2.501   3.031  0.00  0.00     0.056 H 
ATOM     13  H7  <0> d           1.191  -3.825   1.907  0.00  0.00     0.056 H 
ATOM     14  H8  <0> d           2.331  -2.475   2.126  0.00  0.00     0.056 H 
ENDBRANCH   4  11
TORSDOF 2
