REMARK  3 active torsions:
REMARK  status: ('A' for Active; 'I' for Inactive)
REMARK    1  A    between atoms: C1_1  and  C2_2 
REMARK    2  A    between atoms: C7_7  and  O1_8 
REMARK    3  A    between atoms: O1_8  and  C8_9 
ROOT
ATOM      1  C2  <0> d           0.002  -0.004   0.002  0.00  0.00    -0.029 A 
ATOM      2  C3  <0> d           1.208  -0.677  -0.013  0.00  0.00    -0.075 A 
ATOM      3  C4  <0> d           2.396   0.030  -0.021  0.00  0.00    -0.082 A 
ATOM      4  C5  <0> d           2.380   1.413  -0.013  0.00  0.00    -0.080 A 
ATOM      5  C6  <0> d           1.177   2.091   0.002  0.00  0.00    -0.050 A 
ATOM      6  C7  <0> d          -0.017   1.383   0.010  0.00  0.00     0.074 A 
ATOM      7  H4  <0> d           1.224  -1.757  -0.019  0.00  0.00     0.084 H 
ATOM      8  H5  <0> d           3.338  -0.498  -0.033  0.00  0.00     0.083 H 
ATOM      9  H6  <0> d           3.309   1.963  -0.020  0.00  0.00     0.083 H 
ATOM     10  H7  <0> d           1.165   3.171   0.008  0.00  0.00     0.087 H 
ENDROOT
BRANCH   6  11
ATOM     11  O1  <0> d          -1.202   2.047   0.019  0.00  0.00    -0.355 OA
BRANCH  11  12
ATOM     12  C8  <0> d          -1.145   3.475   0.026  0.00  0.00     0.010 C 
ATOM     13  H8  <0> d          -0.613   3.813   0.916  0.00  0.00     0.066 H 
ATOM     14  H9  <0> d          -0.622   3.823  -0.864  0.00  0.00     0.066 H 
ATOM     15  H10 <0> d          -2.158   3.879   0.033  0.00  0.00     0.066 H 
ENDBRANCH  11  12
ENDBRANCH   6  11
BRANCH   1  16
ATOM     16  C1  <0> d          -1.292  -0.776   0.010  0.00  0.00    -0.049 C 
ATOM     17  H1  <0> d          -1.614  -0.956  -1.016  0.00  0.00     0.033 H 
ATOM     18  H2  <0> d          -1.144  -1.729   0.517  0.00  0.00     0.033 H 
ATOM     19  H3  <0> d          -2.055  -0.200   0.534  0.00  0.00     0.033 H 
ENDBRANCH   1  16
TORSDOF 3
