REMARK  4 active torsions:
REMARK  status: ('A' for Active; 'I' for Inactive)
REMARK    1  A    between atoms: C1_1  and  C2_2 
REMARK    2  A    between atoms: C5_6  and  C8_10 
REMARK    3  A    between atoms: C6_7  and  C7_8 
REMARK    4  A    between atoms: C7_8  and  O1_9 
ROOT
ATOM      1  C2  <0> d           1.162   2.038   0.002  0.00  0.00    -0.035 A 
ATOM      2  C3  <0> d          -0.016   1.315   0.009  0.00  0.00     0.008 A 
ATOM      3  N1  <0> d           0.002  -0.004   0.002  0.00  0.00    -0.272 NA
ATOM      4  C4  <0> d           1.133  -0.682  -0.013  0.00  0.00     0.008 A 
ATOM      5  C5  <0> d           2.350  -0.027  -0.021  0.00  0.00    -0.035 A 
ATOM      6  C6  <0> d           2.371   1.359  -0.014  0.00  0.00    -0.020 A 
ATOM      7  H4  <0> d          -0.962   1.835   0.017  0.00  0.00     0.115 H 
ATOM      8  H5  <0> d           1.108  -1.762  -0.018  0.00  0.00     0.115 H 
ENDROOT
BRANCH   6   9
ATOM      9  C7  <0> d           3.677   2.111  -0.023  0.00  0.00     0.042 C 
ATOM     10  H6  <0> d           3.553   3.069   0.502  0.00  0.00     0.081 H 
ATOM     11  H7  <0> d           4.448   1.512   0.484  0.00  0.00     0.081 H 
BRANCH   9  12
ATOM     12  O1  <0> d           4.076   2.356  -1.373  0.00  0.00    -0.396 OA
ATOM     13  H8  <0> d           5.011   2.896  -1.581  0.00  0.00     0.209 HD
ENDBRANCH   9  12
ENDBRANCH   6   9
BRANCH   1  14
ATOM     14  C1  <0> d           1.133   3.544   0.010  0.00  0.00    -0.049 C 
ATOM     15  H1  <0> d           0.088   3.890   0.022  0.00  0.00     0.033 H 
ATOM     16  H2  <0> d           1.635   3.925  -0.892  0.00  0.00     0.033 H 
ATOM     17  H3  <0> d           1.653   3.916   0.905  0.00  0.00     0.033 H 
ENDBRANCH   1  14
BRANCH   5  18
ATOM     18  C8  <0> d           3.638  -0.810  -0.039  0.00  0.00    -0.049 C 
ATOM     19  H9  <0> d           4.490  -0.114  -0.043  0.00  0.00     0.033 H 
ATOM     20  H10 <0> d           3.672  -1.438  -0.941  0.00  0.00     0.033 H 
ATOM     21  H11 <0> d           3.691  -1.449   0.855  0.00  0.00     0.033 H 
ENDBRANCH   5  18
TORSDOF 4
