REMARK  0 active torsions:
REMARK  status: ('A' for Active; 'I' for Inactive)
ROOT
ATOM      1  C1  <0> d           1.204  -0.681  -0.014  0.00  0.00    -0.061 A 
ATOM      2  C2  <0> d           0.002  -0.004   0.002  0.00  0.00    -0.058 A 
ATOM      3  C3  <0> d          -0.017   1.380   0.010  0.00  0.00     0.072 A 
ATOM      4  C4  <0> d           1.172   2.095   0.002  0.00  0.00     0.139 A 
ATOM      5  C5  <0> d           2.381   1.429  -0.013  0.00  0.00    -0.024 A 
ATOM      6  C6  <0> d           2.404   0.032  -0.021  0.00  0.00     0.047 A 
ATOM      7  C7  <0> d           3.655  -0.666  -0.038  0.00  0.00     0.099 C 
ATOM      8  N1  <0> d           4.647  -1.220  -0.051  0.00  0.00    -0.191 NA
ATOM      9  F1  <0> d           1.147   3.446   0.009  0.00  0.00    -0.204 F 
ATOM     10 Cl1  <0> d          -1.534   2.224   0.021  0.00  0.00    -0.081 Cl
ATOM     11  H1  <0> d           1.216  -1.761  -0.020  0.00  0.00     0.085 H 
ATOM     12  H2  <0> d          -0.927  -0.555   0.008  0.00  0.00     0.086 H 
ATOM     13  H3  <0> d           3.307   1.985  -0.019  0.00  0.00     0.090 H 
ENDROOT
TORSDOF 0
