REMARK  1 active torsions:
REMARK  status: ('A' for Active; 'I' for Inactive)
REMARK    1  A    between atoms: C2_3  and  N4_10 
ROOT
ATOM      1  C1  <0> d           0.002  -0.004   0.002  0.00  0.00     0.090 A 
ATOM      2  N1  <0> d          -0.016   1.317   0.009  0.00  0.00    -0.222 NA
ATOM      3  C2  <0> d           1.092   2.039   0.003  0.00  0.00     0.154 A 
ATOM      4  C3  <0> d           2.353   1.381  -0.013  0.00  0.00     0.138 A 
ATOM      5  C4  <0> d           2.286  -0.032  -0.020  0.00  0.00     0.132 A 
ATOM      6  N2  <0> d           1.140  -0.673  -0.013  0.00  0.00    -0.232 NA
ATOM      7  S1  <0> d           4.004  -0.482  -0.039  0.00  0.00    -0.060 SA
ATOM      8  C5  <0> d           4.671   1.176  -0.036  0.00  0.00     0.043 A 
ATOM      9  N3  <0> d           3.591   1.911  -0.022  0.00  0.00    -0.247 NA
ATOM     10  H1  <0> d          -0.932  -0.547   0.008  0.00  0.00     0.146 H 
ATOM     11  H2  <0> d           5.704   1.491  -0.044  0.00  0.00     0.126 H 
ENDROOT
BRANCH   3  12
ATOM     12  N4  <0> d           1.025   3.422   0.010  0.00  0.00    -0.382 N 
ATOM     13  H3  <0> d           0.162   3.865   0.021  0.00  0.00     0.157 HD
ATOM     14  H4  <0> d           1.840   3.947   0.005  0.00  0.00     0.157 HD
ENDBRANCH   3  12
TORSDOF 1
