REMARK  3 active torsions:
REMARK  status: ('A' for Active; 'I' for Inactive)
REMARK    1  A    between atoms: C1_1  and  O1_2 
REMARK    2  A    between atoms: O1_2  and  C2_3 
REMARK    3  A    between atoms: C3_4  and  N3_10 
ROOT
ATOM      1  C2  <0> d           0.606  -0.607  -1.056  0.00  0.00     0.216 A 
ATOM      2  C3  <0> d           0.643  -1.955  -1.109  0.00  0.00     0.170 A 
ATOM      3  C4  <0> d           1.331  -2.575  -2.313  0.00  0.00     0.062 A 
ATOM      4  C5  <0> d           1.898  -1.593  -3.322  0.00  0.00     0.267 A 
ATOM      5  O2  <0> d           2.468  -1.974  -4.324  0.00  0.00    -0.269 OA
ATOM      6  N1  <0> d           1.741  -0.277  -3.060  0.00  0.00    -0.109 NA
ATOM      7  N2  <0> d           1.141   0.151  -2.017  0.00  0.00    -0.119 NA
ATOM      8  H4  <0> d           2.145  -3.205  -1.955  0.00  0.00     0.057 H 
ATOM      9  H5  <0> d           0.611  -3.214  -2.825  0.00  0.00     0.057 H 
ENDROOT
BRANCH   1  10
ATOM     10  O1  <0> d           0.002  -0.004   0.002  0.00  0.00    -0.337 OA
BRANCH  10  11
ATOM     11  C1  <0> d          -0.017   1.425   0.010  0.00  0.00     0.012 C 
ATOM     12  H1  <0> d           1.005   1.802   0.002  0.00  0.00     0.067 H 
ATOM     13  H2  <0> d          -0.544   1.786  -0.873  0.00  0.00     0.067 H 
ATOM     14  H3  <0> d          -0.527   1.776   0.907  0.00  0.00     0.067 H 
ENDBRANCH  10  11
ENDBRANCH   1  10
BRANCH   2  15
ATOM     15  N3  <0> d           0.077  -2.743  -0.102  0.00  0.00    -0.048 N 
ATOM     16  H6  <0> d          -0.327  -2.147   0.604  0.00  0.00     0.281 HD
ATOM     17  H7  <0> d          -0.642  -3.330  -0.499  0.00  0.00     0.281 HD
ATOM     18  H8  <0> d           0.792  -3.322   0.314  0.00  0.00     0.281 HD
ENDBRANCH   2  15
TORSDOF 3
