REMARK  5 active torsions:
REMARK  status: ('A' for Active; 'I' for Inactive)
REMARK    1  A    between atoms: C1_1  and  C2_2 
REMARK    2  A    between atoms: N1_5  and  C7_11 
REMARK    3  A    between atoms: C5_7  and  C6_10 
REMARK    4  A    between atoms: C7_11  and  C8_12 
REMARK    5  A    between atoms: C7_11  and  C9_13 
ROOT
ATOM      1  C2  <0> d           0.002  -0.004   0.002  0.00  0.00     0.061 C 
ATOM      2  H1  <0> d           0.512  -0.356  -0.895  0.00  0.00     0.085 H 
ATOM      3  C3  <0> d          -1.434  -0.535   0.015  0.00  0.00     0.137 C 
ATOM      4  N1  <0> d          -1.407  -2.003   0.085  0.00  0.00     0.097 N 
ATOM      5  C4  <0> d          -0.692  -2.455   1.287  0.00  0.00     0.137 C 
ATOM      6  C5  <0> d           0.736  -1.905   1.261  0.00  0.00     0.061 C 
ATOM      7  H2  <0> d           1.253  -2.189   2.178  0.00  0.00     0.085 H 
ATOM      8  O1  <0> d           0.692  -0.479   1.161  0.00  0.00    -0.378 OA
ATOM      9  H6  <0> d          -1.960  -0.139   0.883  0.00  0.00     0.083 H 
ATOM     10  H7  <0> d          -1.946  -0.223  -0.895  0.00  0.00     0.083 H 
ATOM     11  H8  <0> d          -1.207  -2.089   2.176  0.00  0.00     0.083 H 
ATOM     12  H9  <0> d          -0.662  -3.544   1.305  0.00  0.00     0.083 H 
ENDROOT
BRANCH   4  13
ATOM     13  C7  <0> d          -2.768  -2.557   0.042  0.00  0.00     0.128 C 
ATOM     14  H13 <0> d          -3.283  -2.188  -0.845  0.00  0.00     0.087 H 
BRANCH  13  15
ATOM     15  C8  <0> d          -2.695  -4.084  -0.009  0.00  0.00    -0.047 C 
ATOM     16  H14 <0> d          -2.180  -4.453   0.878  0.00  0.00     0.030 H 
ATOM     17  H15 <0> d          -3.704  -4.495  -0.041  0.00  0.00     0.030 H 
ATOM     18  H16 <0> d          -2.149  -4.392  -0.901  0.00  0.00     0.030 H 
ENDBRANCH  13  15
BRANCH  13  19
ATOM     19  C9  <0> d          -3.534  -2.124   1.294  0.00  0.00    -0.047 C 
ATOM     20  H17 <0> d          -3.585  -1.036   1.331  0.00  0.00     0.030 H 
ATOM     21  H18 <0> d          -4.543  -2.535   1.262  0.00  0.00     0.030 H 
ATOM     22  H19 <0> d          -3.019  -2.494   2.181  0.00  0.00     0.030 H 
ENDBRANCH  13  19
ENDBRANCH   4  13
BRANCH   1  23
ATOM     23  C1  <0> d          -0.019   1.526   0.010  0.00  0.00    -0.051 C 
ATOM     24  H3  <0> d           1.004   1.903   0.003  0.00  0.00     0.030 H 
ATOM     25  H4  <0> d          -0.546   1.887  -0.873  0.00  0.00     0.030 H 
ATOM     26  H5  <0> d          -0.529   1.877   0.907  0.00  0.00     0.030 H 
ENDBRANCH   1  23
BRANCH   6  27
ATOM     27  C6  <0> d           1.483  -2.478   0.055  0.00  0.00    -0.051 C 
ATOM     28  H10 <0> d           0.967  -2.192  -0.861  0.00  0.00     0.030 H 
ATOM     29  H11 <0> d           2.500  -2.086   0.038  0.00  0.00     0.030 H 
ATOM     30  H12 <0> d           1.514  -3.565   0.131  0.00  0.00     0.030 H 
ENDBRANCH   6  27
TORSDOF 5
