REMARK  1 active torsions:
REMARK  status: ('A' for Active; 'I' for Inactive)
REMARK    1  A    between atoms: C4_6  and  C5_7 
REMARK       I    between atoms: C5_7  and  N3_9 
ROOT
ATOM      1  C1  <0> d           0.002  -0.004   0.002  0.00  0.00    -0.045 A 
ATOM      2  C2  <0> d          -0.017   1.383   0.010  0.00  0.00    -0.040 A 
ATOM      3  C3  <0> d           1.198   2.053   0.002  0.00  0.00     0.148 A 
ATOM      4  N1  <0> d           2.331   1.369  -0.013  0.00  0.00    -0.137 NA
ATOM      5  N2  <0> d           2.357   0.086  -0.020  0.00  0.00    -0.143 NA
ATOM      6  C4  <0> d           1.246  -0.641  -0.013  0.00  0.00     0.146 A 
ATOM      7 Cl1  <0> d           1.233   3.788   0.010  0.00  0.00    -0.061 Cl
ATOM      8  H1  <0> d          -0.916  -0.574   0.008  0.00  0.00     0.087 H 
ATOM      9  H2  <0> d          -0.950   1.927   0.017  0.00  0.00     0.088 H 
ENDROOT
BRANCH   6  10
ATOM     10  C5  <0> d           1.324  -2.120  -0.021  0.00  0.00     0.269 C 
ATOM     11  O1  <0> d           0.305  -2.783  -0.015  0.00  0.00    -0.266 OA
ATOM     12  N3  <0> d           2.525  -2.732  -0.036  0.00  0.00    -0.365 N 
ATOM     13  H3  <0> d           3.338  -2.203  -0.042  0.00  0.00     0.159 HD
ATOM     14  H4  <0> d           2.576  -3.700  -0.042  0.00  0.00     0.159 HD
ENDBRANCH   6  10
TORSDOF 1
