REMARK  4 active torsions:
REMARK  status: ('A' for Active; 'I' for Inactive)
REMARK    1  A    between atoms: C3_3  and  O4_14 
REMARK    2  A    between atoms: C4_5  and  O3_13 
REMARK    3  A    between atoms: C5_7  and  O2_12 
REMARK    4  A    between atoms: C6_9  and  O1_11 
ROOT
ATOM      1  C1  <0> d          -1.922   2.020   1.267  0.00  0.00    -0.074 C 
ATOM      2  C2  <0> d          -0.710   1.567   1.247  0.00  0.00    -0.074 C 
ATOM      3  C3  <0> d          -0.013   1.086   0.008  0.00  0.00     0.079 C 
ATOM      4  H1  <0> d           0.054  -0.012   0.019  0.00  0.00     0.093 H 
ATOM      5  C4  <0> d          -0.747   1.590  -1.236  0.00  0.00     0.091 C 
ATOM      6  H2  <0> d          -0.568   2.662  -1.408  0.00  0.00     0.091 H 
ATOM      7  C5  <0> d          -2.238   1.278  -1.083  0.00  0.00     0.091 C 
ATOM      8  H3  <0> d          -2.418   0.206  -0.914  0.00  0.00     0.091 H 
ATOM      9  C6  <0> d          -2.797   2.137   0.054  0.00  0.00     0.079 C 
ATOM     10  H4  <0> d          -3.827   1.847   0.309  0.00  0.00     0.093 H 
ATOM     11  H5  <0> d          -2.370   2.349   2.217  0.00  0.00     0.080 H 
ATOM     12  H6  <0> d          -0.125   1.518   2.177  0.00  0.00     0.080 H 
ENDROOT
BRANCH   3  13
ATOM     13  O4  <0> d           1.329   1.578  -0.002  0.00  0.00    -0.389 OA
ATOM     14  H10 <0> d           2.000   1.328  -0.837  0.00  0.00     0.210 HD
ENDBRANCH   3  13
BRANCH   5  15
ATOM     15  O3  <0> d          -0.238   0.928  -2.396  0.00  0.00    -0.390 OA
ATOM     16  H9  <0> d          -0.649   1.164  -3.389  0.00  0.00     0.210 HD
ENDBRANCH   5  15
BRANCH   7  17
ATOM     17  O2  <0> d          -2.922   1.586  -2.299  0.00  0.00    -0.390 OA
ATOM     18  H8  <0> d          -4.007   1.425  -2.376  0.00  0.00     0.210 HD
ENDBRANCH   7  17
BRANCH   9  19
ATOM     19  O1  <0> d          -2.844   3.502  -0.367  0.00  0.00    -0.389 OA
ATOM     20  H7  <0> d          -3.440   3.785  -1.247  0.00  0.00     0.210 HD
ENDBRANCH   9  19
TORSDOF 4
