REMARK  2 active torsions:
REMARK  status: ('A' for Active; 'I' for Inactive)
REMARK    1  A    between atoms: C1_1  and  O1_2 
REMARK    2  A    between atoms: O1_2  and  C2_3 
ROOT
ATOM      1  C2  <0> d           4.013   1.730  -0.028  0.00  0.00     0.070 A 
ATOM      2  C3  <0> d           3.274   2.926  -0.014  0.00  0.00    -0.048 A 
ATOM      3  C4  <0> d           1.918   2.927  -0.001  0.00  0.00    -0.048 A 
ATOM      4  C5  <0> d           1.216   1.655  -0.001  0.00  0.00     0.117 A 
ATOM      5  C6  <0> d           2.019   0.406  -0.015  0.00  0.00     0.120 A 
ATOM      6  C7  <0> d           3.421   0.506  -0.028  0.00  0.00    -0.018 A 
ATOM      7  N1  <0> d           1.098  -0.528  -0.011  0.00  0.00    -0.103 NA
ATOM      8  O2  <0> d           0.002  -0.004   0.002  0.00  0.00    -0.106 OA
ATOM      9  N2  <0> d          -0.014   1.211   0.009  0.00  0.00    -0.103 NA
ATOM     10  H4  <0> d           3.800   3.869  -0.014  0.00  0.00     0.087 H 
ATOM     11  H5  <0> d           1.369   3.858   0.009  0.00  0.00     0.087 H 
ATOM     12  H6  <0> d           4.027  -0.387  -0.039  0.00  0.00     0.091 H 
ENDROOT
BRANCH   1  13
ATOM     13  O1  <0> d           5.369   1.800  -0.041  0.00  0.00    -0.356 OA
BRANCH  13  14
ATOM     14  C1  <0> d           5.951   3.106  -0.040  0.00  0.00     0.010 C 
ATOM     15  H1  <0> d           7.038   3.019  -0.051  0.00  0.00     0.066 H 
ATOM     16  H2  <0> d           5.621   3.651  -0.924  0.00  0.00     0.066 H 
ATOM     17  H3  <0> d           5.639   3.642   0.856  0.00  0.00     0.066 H 
ENDBRANCH  13  14
ENDBRANCH   1  13
TORSDOF 2
