REMARK  2 active torsions:
REMARK  status: ('A' for Active; 'I' for Inactive)
REMARK    1  A    between atoms: C1_1  and  C2_2 
REMARK    2  A    between atoms: C2_2  and  C6_9 
ROOT
ATOM      1  C2  <0> d          -0.733   1.581   1.267  0.00  0.00    -0.015 C 
ATOM      2  C3  <0> d          -0.013   1.086   0.008  0.00  0.00     0.005 C 
ATOM      3  N1  <0> d          -0.723   1.572  -1.176  0.00  0.00    -0.342 N 
ATOM      4  C4  <0> d          -1.415   2.721  -1.151  0.00  0.00     0.316 C 
ATOM      5  O1  <0> d          -1.979   3.084  -2.166  0.00  0.00    -0.247 OA
ATOM      6  N2  <0> d          -1.510   3.484  -0.053  0.00  0.00    -0.342 N 
ATOM      7  C5  <0> d          -0.845   3.108   1.196  0.00  0.00     0.005 C 
ATOM      8  H4  <0> d           0.002  -0.004   0.002  0.00  0.00     0.065 H 
ATOM      9  H5  <0> d           1.010   1.464   0.000  0.00  0.00     0.065 H 
ATOM     10  H6  <0> d          -0.693   1.053  -1.995  0.00  0.00     0.164 HD
ATOM     11  H7  <0> d          -2.031   4.302  -0.086  0.00  0.00     0.164 HD
ATOM     12  H8  <0> d           0.152   3.547   1.224  0.00  0.00     0.065 H 
ATOM     13  H9  <0> d          -1.427   3.471   2.043  0.00  0.00     0.065 H 
ENDROOT
BRANCH   1  14
ATOM     14  C1  <0> d          -2.132   0.967   1.333  0.00  0.00    -0.066 C 
ATOM     15  H1  <0> d          -2.051  -0.119   1.367  0.00  0.00     0.028 H 
ATOM     16  H2  <0> d          -2.642   1.321   2.229  0.00  0.00     0.028 H 
ATOM     17  H3  <0> d          -2.701   1.262   0.451  0.00  0.00     0.028 H 
ENDBRANCH   1  14
BRANCH   1  18
ATOM     18  C6  <0> d           0.068   1.181   2.508  0.00  0.00    -0.066 C 
ATOM     19  H10 <0> d           1.061   1.627   2.459  0.00  0.00     0.028 H 
ATOM     20  H11 <0> d          -0.446   1.534   3.401  0.00  0.00     0.028 H 
ATOM     21  H12 <0> d           0.159   0.095   2.546  0.00  0.00     0.028 H 
ENDBRANCH   1  18
TORSDOF 2
