REMARK  2 active torsions:
REMARK  status: ('A' for Active; 'I' for Inactive)
REMARK    1  A    between atoms: C1_1  and  C2_2 
REMARK    2  A    between atoms: C4_5  and  C5_7 
ROOT
ATOM      1  C5  <0> d           1.697   3.181   0.002  0.00  0.00     0.017 A 
ATOM      2  C6  <0> d           3.058   3.493  -0.004  0.00  0.00    -0.069 A 
ATOM      3  C7  <0> d           3.460   4.812  -0.008  0.00  0.00    -0.082 A 
ATOM      4  C8  <0> d           2.519   5.826   0.007  0.00  0.00    -0.083 A 
ATOM      5  C9  <0> d           1.169   5.524   0.019  0.00  0.00    -0.082 A 
ATOM      6  C10 <0> d           0.753   4.208   0.017  0.00  0.00    -0.069 A 
ATOM      7  H5  <0> d           3.794   2.702  -0.010  0.00  0.00     0.085 H 
ATOM      8  H6  <0> d           4.513   5.054  -0.017  0.00  0.00     0.083 H 
ATOM      9  H7  <0> d           2.839   6.857   0.008  0.00  0.00     0.083 H 
ATOM     10  H8  <0> d           0.439   6.320   0.030  0.00  0.00     0.083 H 
ATOM     11  H9  <0> d          -0.302   3.974   0.025  0.00  0.00     0.085 H 
ENDROOT
BRANCH   1  12
ATOM     12  C4  <0> d           1.259   1.770  -0.001  0.00  0.00     0.179 A 
ATOM     13  O1  <0> d          -0.016   1.343   0.009  0.00  0.00    -0.301 OA
ATOM     14  C3  <0> d           0.002  -0.004   0.002  0.00  0.00     0.044 A 
ATOM     15  C2  <0> d           1.292  -0.386  -0.012  0.00  0.00     0.056 A 
ATOM     16  H4  <0> d          -0.859  -0.656   0.007  0.00  0.00     0.126 H 
ATOM     17  N1  <0> d           2.049   0.722  -0.014  0.00  0.00    -0.227 NA
BRANCH  15  18
ATOM     18  C1  <0> d           1.797  -1.806  -0.024  0.00  0.00    -0.034 C 
ATOM     19  H1  <0> d           1.909  -2.143  -1.055  0.00  0.00     0.035 H 
ATOM     20  H2  <0> d           2.762  -1.852   0.480  0.00  0.00     0.035 H 
ATOM     21  H3  <0> d           1.085  -2.449   0.493  0.00  0.00     0.035 H 
ENDBRANCH  15  18
ENDBRANCH   1  12
TORSDOF 2
