REMARK  4 active torsions:
REMARK  status: ('A' for Active; 'I' for Inactive)
REMARK    1  A    between atoms: C1_1  and  C2_2 
REMARK    2  A    between atoms: C3_4  and  O4_14 
REMARK    3  A    between atoms: C4_6  and  O3_13 
REMARK    4  A    between atoms: C6_9  and  O2_12 
ROOT
ATOM      1  C2  <0> d           0.002  -0.004   0.002  0.00  0.00     0.065 C 
ATOM      2  H1  <0> d          -1.020  -0.382   0.009  0.00  0.00     0.086 H 
ATOM      3  C3  <0> d           0.743  -0.511   1.242  0.00  0.00     0.085 C 
ATOM      4  H2  <0> d           1.752  -0.101   1.257  0.00  0.00     0.090 H 
ATOM      5  C4  <0> d           0.811  -2.041   1.196  0.00  0.00     0.067 C 
ATOM      6  H3  <0> d          -0.197  -2.453   1.233  0.00  0.00     0.087 H 
ATOM      7  C5  <0> d           1.495  -2.471  -0.106  0.00  0.00     0.007 C 
ATOM      8  C6  <0> d           0.726  -1.888  -1.294  0.00  0.00     0.131 C 
ATOM      9  H4  <0> d          -0.287  -2.290  -1.304  0.00  0.00     0.128 H 
ATOM     10  O1  <0> d           0.672  -0.465  -1.173  0.00  0.00    -0.354 OA
ATOM     11  H8  <0> d           2.520  -2.101  -0.118  0.00  0.00     0.044 H 
ATOM     12  H9  <0> d           1.500  -3.559  -0.172  0.00  0.00     0.044 H 
ENDROOT
BRANCH   1  13
ATOM     13  C1  <0> d          -0.019   1.526   0.010  0.00  0.00    -0.050 C 
ATOM     14  H5  <0> d           1.004   1.903   0.003  0.00  0.00     0.031 H 
ATOM     15  H6  <0> d          -0.546   1.887  -0.873  0.00  0.00     0.031 H 
ATOM     16  H7  <0> d          -0.529   1.877   0.907  0.00  0.00     0.031 H 
ENDBRANCH   1  13
BRANCH   3  17
ATOM     17  O4  <0> d           0.042  -0.100   2.418  0.00  0.00    -0.390 OA
ATOM     18  H12 <0> d           0.456  -0.388   3.243  0.00  0.00     0.210 HD
ENDBRANCH   3  17
BRANCH   8  19
ATOM     19  O2  <0> d           1.389  -2.239  -2.510  0.00  0.00    -0.371 OA
ATOM     20  H10 <0> d           0.956  -1.901  -3.306  0.00  0.00     0.212 HD
ENDBRANCH   8  19
BRANCH   5  21
ATOM     21  O3  <0> d           1.565  -2.519   2.312  0.00  0.00    -0.393 OA
ATOM     22  H11 <0> d           1.649  -3.482   2.346  0.00  0.00     0.210 HD
ENDBRANCH   5  21
TORSDOF 4
