REMARK  6 active torsions:
REMARK  status: ('A' for Active; 'I' for Inactive)
REMARK    1  A    between atoms: C1_1  and  C2_2 
REMARK    2  A    between atoms: C2_2  and  C3_3 
REMARK    3  A    between atoms: C3_3  and  C4_5 
REMARK    4  A    between atoms: C3_3  and  N1_6 
REMARK    5  A    between atoms: C5_7  and  C8_12 
REMARK    6  A    between atoms: C7_9  and  N3_11 
ROOT
ATOM      1  N1  <0> d           0.002  -0.004   0.002  0.00  0.00    -0.268 N 
ATOM      2  C5  <0> d           1.291  -0.405  -0.012  0.00  0.00     0.031 A 
ATOM      3  C6  <0> d           2.069   0.701  -0.014  0.00  0.00    -0.015 A 
ATOM      4  C7  <0> d           1.224   1.823   0.000  0.00  0.00     0.143 A 
ATOM      5  N2  <0> d          -0.017   1.397   0.010  0.00  0.00    -0.154 NA
ATOM      6  H10 <0> d           3.149   0.719  -0.024  0.00  0.00     0.092 H 
ENDROOT
BRANCH   1   7
ATOM      7  C3  <0> d          -1.172  -0.881   0.009  0.00  0.00     0.031 C 
ATOM      8  H1  <0> d          -0.803  -1.917   0.000  0.00  0.00     0.075 H 
BRANCH   7   9
ATOM      9  C2  <0> d          -2.024  -0.602  -1.231  0.00  0.00    -0.048 C 
ATOM     10  H5  <0> d          -1.404  -0.706  -2.133  0.00  0.00     0.035 H 
ATOM     11  H6  <0> d          -2.424   0.421  -1.178  0.00  0.00     0.035 H 
BRANCH   9  12
ATOM     12  C1  <0> d          -3.182  -1.600  -1.289  0.00  0.00    -0.075 C 
ATOM     13  H2  <0> d          -3.794  -1.400  -2.180  0.00  0.00     0.027 H 
ATOM     14  H3  <0> d          -3.802  -1.496  -0.387  0.00  0.00     0.027 H 
ATOM     15  H4  <0> d          -2.781  -2.623  -1.342  0.00  0.00     0.027 H 
ENDBRANCH   9  12
ENDBRANCH   7   9
BRANCH   7  16
ATOM     16  C4  <0> d          -2.000  -0.614   1.268  0.00  0.00    -0.055 C 
ATOM     17  H7  <0> d          -1.387  -0.815   2.159  0.00  0.00     0.030 H 
ATOM     18  H8  <0> d          -2.881  -1.272   1.273  0.00  0.00     0.030 H 
ATOM     19  H9  <0> d          -2.327   0.436   1.276  0.00  0.00     0.030 H 
ENDBRANCH   7  16
ENDBRANCH   1   7
BRANCH   2  20
ATOM     20  C8  <0> d           1.776  -1.831  -0.024  0.00  0.00    -0.036 C 
ATOM     21  H13 <0> d           2.876  -1.845  -0.035  0.00  0.00     0.035 H 
ATOM     22  H14 <0> d           1.395  -2.341  -0.921  0.00  0.00     0.035 H 
ATOM     23  H15 <0> d           1.412  -2.350   0.875  0.00  0.00     0.035 H 
ENDBRANCH   2  20
BRANCH   4  24
ATOM     24  N3  <0> d           1.634   3.161   0.003  0.00  0.00    -0.383 N 
ATOM     25  H11 <0> d           0.884   3.966   0.014  0.00  0.00     0.157 HD
ATOM     26  H12 <0> d           2.706   3.408  -0.007  0.00  0.00     0.157 HD
ENDBRANCH   4  24
TORSDOF 6
