REMARK  3 active torsions:
REMARK  status: ('A' for Active; 'I' for Inactive)
REMARK    1  A    between atoms: C1_1  and  C2_2 
REMARK    2  A    between atoms: C4_4  and  O1_10 
REMARK    3  A    between atoms: C6_6  and  C8_9 
ROOT
ATOM      1  C2  <0> d           0.002  -0.004   0.002  0.00  0.00    -0.037 A 
ATOM      2  C3  <0> d           0.006  -0.688  -1.198  0.00  0.00    -0.044 A 
ATOM      3  C4  <0> d           0.025  -2.075  -1.206  0.00  0.00     0.066 A 
ATOM      4  C5  <0> d           0.041  -2.773  -0.007  0.00  0.00    -0.044 A 
ATOM      5  C6  <0> d           0.037  -2.085   1.192  0.00  0.00    -0.037 A 
ATOM      6  C7  <0> d           0.023  -0.702   1.197  0.00  0.00     0.046 A 
ATOM      7 Cl1  <0> d           0.025   0.160   2.704  0.00  0.00    -0.083 Cl
ATOM      8  H4  <0> d          -0.007  -0.143  -2.131  0.00  0.00     0.088 H 
ATOM      9  H5  <0> d           0.055  -3.853  -0.010  0.00  0.00     0.088 H 
ENDROOT
BRANCH   1  10
ATOM     10  C1  <0> d          -0.018   1.503   0.010  0.00  0.00    -0.050 C 
ATOM     11  H1  <0> d           1.004   1.880   0.003  0.00  0.00     0.033 H 
ATOM     12  H2  <0> d          -0.545   1.864  -0.873  0.00  0.00     0.033 H 
ATOM     13  H3  <0> d          -0.529   1.854   0.907  0.00  0.00     0.033 H 
ENDBRANCH   1  10
BRANCH   5  14
ATOM     14  C8  <0> d           0.054  -2.843   2.494  0.00  0.00    -0.050 C 
ATOM     15  H6  <0> d           1.085  -3.011   2.803  0.00  0.00     0.033 H 
ATOM     16  H7  <0> d          -0.465  -2.264   3.258  0.00  0.00     0.033 H 
ATOM     17  H8  <0> d          -0.448  -3.802   2.363  0.00  0.00     0.033 H 
ENDBRANCH   5  14
BRANCH   3  18
ATOM     18  O1  <0> d           0.028  -2.749  -2.386  0.00  0.00    -0.361 OA
ATOM     19  H9  <0> d           0.912  -2.932  -2.732  0.00  0.00     0.217 HD
ENDBRANCH   3  18
TORSDOF 3
