REMARK  9 active torsions:
REMARK  status: ('A' for Active; 'I' for Inactive)
REMARK    1  A    between atoms: C1_1  and  C2_2 
REMARK    2  A    between atoms: C2_2  and  O1_3 
REMARK    3  A    between atoms: O1_3  and  C3_4 
REMARK    4  A    between atoms: C3_4  and  C4_5 
REMARK    5  A    between atoms: C3_4  and  O2_9 
REMARK    6  A    between atoms: C4_5  and  C5_6 
REMARK    7  A    between atoms: C5_6  and  C6_7 
REMARK    8  A    between atoms: O2_9  and  C8_10 
REMARK    9  A    between atoms: C8_10  and  C9_11 
ROOT
ATOM      1  C6  <0> d           1.311   0.304   0.681  0.00  0.00    -0.117 C 
ATOM      2  C7  <0> d           1.632  -0.821   0.788  0.00  0.00    -0.154 C 
ATOM      3  H11 <0> d           1.920  -1.826   0.884  0.00  0.00     0.166 H 
ENDROOT
BRANCH   1   4
ATOM      4  C5  <0> d           0.908   1.713   0.547  0.00  0.00    -0.006 C 
ATOM      5  H9  <0> d           1.779   2.354   0.681  0.00  0.00     0.052 H 
ATOM      6  H10 <0> d           0.485   1.877  -0.444  0.00  0.00     0.052 H 
BRANCH   4   7
ATOM      7  C4  <0> d          -0.139   2.047   1.611  0.00  0.00    -0.009 C 
ATOM      8  H7  <0> d          -1.010   1.406   1.478  0.00  0.00     0.041 H 
ATOM      9  H8  <0> d           0.284   1.883   2.602  0.00  0.00     0.041 H 
BRANCH   7  10
ATOM     10  C3  <0> d          -0.558   3.512   1.472  0.00  0.00     0.131 C 
ATOM     11  H6  <0> d           0.326   4.149   1.517  0.00  0.00     0.129 H 
BRANCH  10  12
ATOM     12  O1  <0> d          -1.218   3.702   0.219  0.00  0.00    -0.362 OA
BRANCH  12  13
ATOM     13  C2  <0> d          -1.057   5.011  -0.331  0.00  0.00     0.019 C 
ATOM     14  H4  <0> d          -1.369   5.754   0.403  0.00  0.00     0.073 H 
ATOM     15  H5  <0> d          -0.010   5.171  -0.587  0.00  0.00     0.073 H 
BRANCH  13  16
ATOM     16  C1  <0> d          -1.916   5.145  -1.589  0.00  0.00    -0.056 C 
ATOM     17  H1  <0> d          -1.793   6.144  -2.009  0.00  0.00     0.030 H 
ATOM     18  H2  <0> d          -1.604   4.402  -2.323  0.00  0.00     0.030 H 
ATOM     19  H3  <0> d          -2.963   4.985  -1.333  0.00  0.00     0.030 H 
ENDBRANCH  13  16
ENDBRANCH  12  13
ENDBRANCH  10  12
BRANCH  10  20
ATOM     20  O2  <0> d          -1.448   3.857   2.536  0.00  0.00    -0.362 OA
BRANCH  20  21
ATOM     21  C8  <0> d          -1.656   5.262   2.687  0.00  0.00     0.019 C 
ATOM     22  H12 <0> d          -0.693   5.765   2.775  0.00  0.00     0.073 H 
ATOM     23  H13 <0> d          -2.189   5.646   1.817  0.00  0.00     0.073 H 
BRANCH  21  24
ATOM     24  C9  <0> d          -2.484   5.522   3.947  0.00  0.00    -0.056 C 
ATOM     25  H14 <0> d          -2.644   6.594   4.063  0.00  0.00     0.030 H 
ATOM     26  H15 <0> d          -3.447   5.019   3.859  0.00  0.00     0.030 H 
ATOM     27  H16 <0> d          -1.952   5.138   4.817  0.00  0.00     0.030 H 
ENDBRANCH  21  24
ENDBRANCH  20  21
ENDBRANCH  10  20
ENDBRANCH   7  10
ENDBRANCH   4   7
ENDBRANCH   1   4
TORSDOF 9
