REMARK  3 active torsions:
REMARK  status: ('A' for Active; 'I' for Inactive)
REMARK    1  A    between atoms: C1_1  and  C2_2 
REMARK    2  A    between atoms: C2_2  and  C3_3 
REMARK    3  A    between atoms: N2_7  and  C6_8 
ROOT
ATOM      1  C6  <0> d           1.411   4.388   0.011  0.00  0.00     0.079 C 
ATOM      2  C7  <0> d           1.595   4.856   1.394  0.00  0.00     0.079 C 
ATOM      3  N3  <0> d           1.738   5.218   2.462  0.00  0.00    -0.196 NA
ATOM      4  H8  <0> d           2.392   4.175  -0.438  0.00  0.00     0.087 H 
ATOM      5  H9  <0> d           0.901   5.167  -0.575  0.00  0.00     0.087 H 
ENDROOT
BRANCH   1   6
ATOM      6  N2  <0> d           0.599   3.169   0.013  0.00  0.00    -0.331 N 
ATOM      7  C3  <0> d          -0.750   3.104   0.025  0.00  0.00     0.106 A 
ATOM      8  N1  <0> d          -1.108   1.849   0.017  0.00  0.00    -0.246 NA
ATOM      9  C4  <0> d          -0.013   1.076   0.008  0.00  0.00     0.019 A 
ATOM     10  C5  <0> d           1.066   1.882   0.002  0.00  0.00    -0.001 A 
ATOM     11  H6  <0> d           0.002  -0.004   0.002  0.00  0.00     0.117 H 
ATOM     12  H7  <0> d           2.101   1.573  -0.009  0.00  0.00     0.113 H 
BRANCH   7  13
ATOM     13  C2  <0> d          -1.686   4.285   0.039  0.00  0.00    -0.013 C 
ATOM     14  H4  <0> d          -1.205   5.128   0.557  0.00  0.00     0.044 H 
ATOM     15  H5  <0> d          -2.612   4.012   0.565  0.00  0.00     0.044 H 
BRANCH  13  16
ATOM     16  C1  <0> d          -2.015   4.692  -1.399  0.00  0.00    -0.070 C 
ATOM     17  H1  <0> d          -2.699   5.554  -1.388  0.00  0.00     0.028 H 
ATOM     18  H2  <0> d          -2.496   3.849  -1.917  0.00  0.00     0.028 H 
ATOM     19  H3  <0> d          -1.089   4.965  -1.924  0.00  0.00     0.028 H 
ENDBRANCH  13  16
ENDBRANCH   7  13
ENDBRANCH   1   6
TORSDOF 3
