REMARK  5 active torsions:
REMARK  status: ('A' for Active; 'I' for Inactive)
REMARK    1  A    between atoms: C1_1  and  C2_2 
REMARK    2  A    between atoms: C2_2  and  C3_4 
REMARK    3  A    between atoms: C2_2  and  O2_12 
REMARK    4  A    between atoms: C3_4  and  C4_5 
REMARK    5  A    between atoms: C4_5  and  N1_6 
ROOT
ATOM      1  C4  <0> d           0.872  -2.034   1.171  0.00  0.00    -0.000 C 
ATOM      2  H7  <0> d          -0.121  -2.482   1.132  0.00  0.00     0.064 H 
ATOM      3  H8  <0> d           1.430  -2.310   0.276  0.00  0.00     0.064 H 
ENDROOT
BRANCH   1   4
ATOM      4  C3  <0> d           0.742  -0.511   1.242  0.00  0.00    -0.026 C 
ATOM      5  H5  <0> d           1.735  -0.063   1.280  0.00  0.00     0.039 H 
ATOM      6  H6  <0> d           0.184  -0.235   2.136  0.00  0.00     0.039 H 
BRANCH   4   7
ATOM      7  C2  <0> d           0.002  -0.004   0.002  0.00  0.00     0.033 C 
ATOM      8  H1  <0> d           0.512  -0.356  -0.895  0.00  0.00     0.082 H 
BRANCH   7   9
ATOM      9  C1  <0> d          -0.019   1.526   0.010  0.00  0.00    -0.052 C 
ATOM     10  H2  <0> d           1.004   1.903   0.003  0.00  0.00     0.030 H 
ATOM     11  H3  <0> d          -0.546   1.887  -0.873  0.00  0.00     0.030 H 
ATOM     12  H4  <0> d          -0.529   1.877   0.907  0.00  0.00     0.030 H 
ENDBRANCH   7   9
BRANCH   7  13
ATOM     13  O2  <0> d          -1.339  -0.499   0.012  0.00  0.00    -0.396 OA
ATOM     14  H15 <0> d          -1.868  -0.216  -0.746  0.00  0.00     0.210 HD
ENDBRANCH   7  13
ENDBRANCH   4   7
ENDBRANCH   1   4
BRANCH   1  15
ATOM     15  N1  <0> d           1.581  -2.519   2.358  0.00  0.00    -0.352 N 
ATOM     16  C8  <0> d           0.980  -2.877   3.506  0.00  0.00     0.219 C 
ATOM     17  C7  <0> d           2.014  -3.321   4.517  0.00  0.00     0.011 C 
ATOM     18  O1  <0> d          -0.216  -2.850   3.702  0.00  0.00    -0.273 OA
ATOM     19  C6  <0> d           3.348  -2.775   3.958  0.00  0.00    -0.042 C 
ATOM     20  H13 <0> d           2.045  -4.409   4.584  0.00  0.00     0.047 H 
ATOM     21  H14 <0> d           1.802  -2.884   5.493  0.00  0.00     0.047 H 
ATOM     22  C5  <0> d           3.038  -2.671   2.448  0.00  0.00    -0.002 C 
ATOM     23  H11 <0> d           4.163  -3.475   4.141  0.00  0.00     0.036 H 
ATOM     24  H12 <0> d           3.576  -1.796   4.378  0.00  0.00     0.036 H 
ATOM     25  H9  <0> d           3.355  -3.578   1.934  0.00  0.00     0.064 H 
ATOM     26  H10 <0> d           3.535  -1.800   2.020  0.00  0.00     0.064 H 
ENDBRANCH   1  15
TORSDOF 5
