REMARK  2 active torsions:
REMARK  status: ('A' for Active; 'I' for Inactive)
REMARK    1  A    between atoms: C1_1  and  C2_2 
REMARK    2  A    between atoms: C2_2  and  C11_11 
ROOT
ATOM      1  C2  <0> d           0.002  -0.004   0.002  0.00  0.00    -0.002 A 
ATOM      2  C3  <0> d           0.790  -0.510  -1.184  0.00  0.00    -0.090 A 
ATOM      3  C4  <0> d           1.814  -1.213  -0.732  0.00  0.00    -0.075 A 
ATOM      4  C5  <0> d           1.821  -1.251   0.742  0.00  0.00    -0.029 A 
ATOM      5  C6  <0> d           0.729  -0.523   1.219  0.00  0.00    -0.036 A 
ATOM      6  C7  <0> d           0.506  -0.404   2.570  0.00  0.00    -0.075 A 
ATOM      7  C8  <0> d           1.369  -1.009   3.469  0.00  0.00    -0.082 A 
ATOM      8  C9  <0> d           2.455  -1.732   3.009  0.00  0.00    -0.082 A 
ATOM      9  C10 <0> d           2.687  -1.857   1.655  0.00  0.00    -0.072 A 
ATOM     10  H4  <0> d           0.556  -0.328  -2.223  0.00  0.00     0.078 H 
ATOM     11  H5  <0> d           2.548  -1.695  -1.360  0.00  0.00     0.084 H 
ATOM     12  H6  <0> d          -0.341   0.161   2.931  0.00  0.00     0.084 H 
ATOM     13  H7  <0> d           1.195  -0.915   4.531  0.00  0.00     0.083 H 
ATOM     14  H8  <0> d           3.125  -2.202   3.714  0.00  0.00     0.083 H 
ATOM     15  H9  <0> d           3.536  -2.423   1.302  0.00  0.00     0.084 H 
ENDROOT
BRANCH   1  16
ATOM     16  C1  <0> d          -0.019   1.526   0.010  0.00  0.00    -0.062 C 
ATOM     17  H1  <0> d           1.004   1.903   0.003  0.00  0.00     0.029 H 
ATOM     18  H2  <0> d          -0.546   1.887  -0.873  0.00  0.00     0.029 H 
ATOM     19  H3  <0> d          -0.529   1.877   0.907  0.00  0.00     0.029 H 
ENDBRANCH   1  16
BRANCH   1  20
ATOM     20  C11 <0> d          -1.426  -0.552  -0.036  0.00  0.00    -0.062 C 
ATOM     21  H10 <0> d          -1.932  -0.187  -0.930  0.00  0.00     0.029 H 
ATOM     22  H11 <0> d          -1.397  -1.641  -0.054  0.00  0.00     0.029 H 
ATOM     23  H12 <0> d          -1.967  -0.218   0.850  0.00  0.00     0.029 H 
ENDBRANCH   1  20
TORSDOF 2
