REMARK  5 active torsions:
REMARK  status: ('A' for Active; 'I' for Inactive)
REMARK    1  A    between atoms: C1_1  and  C2_2 
REMARK    2  A    between atoms: C2_2  and  O1_3 
REMARK    3  A    between atoms: O1_3  and  C3_4 
REMARK    4  A    between atoms: C3_4  and  C4_6 
REMARK    5  A    between atoms: C4_6  and  N1_7 
ROOT
ATOM      1  C4  <0> d          -1.329   1.940   0.019  0.00  0.00     0.080 C 
ATOM      2  H6  <0> d          -1.391   2.561   0.913  0.00  0.00     0.080 H 
ATOM      3  H7  <0> d          -1.400   2.570  -0.867  0.00  0.00     0.080 H 
ENDROOT
BRANCH   1   4
ATOM      4  C3  <0> d          -0.014   1.204   0.009  0.00  0.00     0.277 C 
ATOM      5  O2  <0> d           0.002  -0.004   0.002  0.00  0.00    -0.263 OA
BRANCH   4   6
ATOM      6  O1  <0> d           1.139   1.891   0.001  0.00  0.00    -0.321 OA
BRANCH   6   7
ATOM      7  C2  <0> d           2.367   1.117  -0.015  0.00  0.00     0.025 C 
ATOM      8  H4  <0> d           2.409   0.484   0.872  0.00  0.00     0.074 H 
ATOM      9  H5  <0> d           2.392   0.493  -0.908  0.00  0.00     0.074 H 
BRANCH   7  10
ATOM     10  C1  <0> d           3.568   2.065  -0.021  0.00  0.00    -0.056 C 
ATOM     11  H1  <0> d           3.526   2.698  -0.907  0.00  0.00     0.030 H 
ATOM     12  H2  <0> d           3.543   2.689   0.873  0.00  0.00     0.030 H 
ATOM     13  H3  <0> d           4.490   1.484  -0.033  0.00  0.00     0.030 H 
ENDBRANCH   7  10
ENDBRANCH   6   7
ENDBRANCH   4   6
ENDBRANCH   1   4
BRANCH   1  14
ATOM     14  N1  <0> d          -2.430   0.973   0.019  0.00  0.00    -0.341 N 
ATOM     15  C7  <0> d          -3.027   0.438   1.106  0.00  0.00     0.066 A 
ATOM     16  N2  <0> d          -3.963  -0.380   0.709  0.00  0.00    -0.255 NA
ATOM     17  H10 <0> d          -2.772   0.652   2.133  0.00  0.00     0.143 H 
ATOM     18  C6  <0> d          -3.996  -0.398  -0.632  0.00  0.00     0.018 A 
ATOM     19  C5  <0> d          -3.049   0.447  -1.083  0.00  0.00    -0.002 A 
ATOM     20  H9  <0> d          -4.668  -0.982  -1.242  0.00  0.00     0.117 H 
ATOM     21  H8  <0> d          -2.820   0.665  -2.115  0.00  0.00     0.113 H 
ENDBRANCH   1  14
TORSDOF 5
