REMARK  0 active torsions:
REMARK  status: ('A' for Active; 'I' for Inactive)
ROOT
ATOM      1  C1  <0> d          -1.150   1.892   0.017  0.00  0.00    -0.065 A 
ATOM      2  C2  <0> d          -0.013   1.076   0.008  0.00  0.00    -0.045 A 
ATOM      3  C3  <0> d           1.085   1.910   0.002  0.00  0.00     0.113 A 
ATOM      4  N1  <0> d           0.622   3.205   0.013  0.00  0.00    -0.357 N 
ATOM      5  H1  <0> d           1.173   4.003   0.013  0.00  0.00     0.166 HD
ATOM      6  C4  <0> d          -0.735   3.181   0.026  0.00  0.00    -0.022 A 
ATOM      7  C5  <0> d           2.458   1.502  -0.013  0.00  0.00     0.117 C 
ATOM      8  N2  <0> d           3.547   1.179  -0.024  0.00  0.00    -0.190 NA
ATOM      9  H2  <0> d          -2.175   1.554   0.019  0.00  0.00     0.085 H 
ATOM     10  H3  <0> d           0.002  -0.004   0.002  0.00  0.00     0.088 H 
ATOM     11  H4  <0> d          -1.379   4.048   0.037  0.00  0.00     0.111 H 
ENDROOT
TORSDOF 0
