REMARK  4 active torsions:
REMARK  status: ('A' for Active; 'I' for Inactive)
REMARK    1  A    between atoms: C1_1  and  C2_2 
REMARK    2  A    between atoms: C2_2  and  C4_4 
REMARK    3  A    between atoms: C7_8  and  C10_11 
REMARK    4  A    between atoms: C7_8  and  O1_12 
ROOT
ATOM      1  C4  <0> d          -0.761   1.597  -1.225  0.00  0.00    -0.017 C 
ATOM      2  H1  <0> d          -0.616   2.673  -1.315  0.00  0.00     0.053 H 
ATOM      3  C5  <0> d          -0.013   1.086   0.008  0.00  0.00    -0.052 C 
ATOM      4  C6  <0> d          -0.739   1.585   1.264  0.00  0.00    -0.033 C 
ATOM      5  C7  <0> d          -2.106   0.892   1.335  0.00  0.00     0.072 C 
ATOM      6  C8  <0> d          -2.813   0.999   0.015  0.00  0.00    -0.074 C 
ATOM      7  C9  <0> d          -2.227   1.302  -1.099  0.00  0.00    -0.096 C 
ATOM      8  H7  <0> d           0.002  -0.004   0.002  0.00  0.00     0.034 H 
ATOM      9  H8  <0> d           1.009   1.466   0.000  0.00  0.00     0.034 H 
ATOM     10  H9  <0> d          -0.152   1.340   2.148  0.00  0.00     0.037 H 
ATOM     11  H10 <0> d          -0.880   2.664   1.201  0.00  0.00     0.037 H 
ATOM     12  H11 <0> d          -3.876   0.812  -0.006  0.00  0.00     0.081 H 
ATOM     13  H12 <0> d          -2.831   1.345  -1.993  0.00  0.00     0.077 H 
ENDROOT
BRANCH   1  14
ATOM     14  C2  <0> d          -0.219   0.917  -2.456  0.00  0.00    -0.085 C 
ATOM     15  C3  <0> d           0.314   1.631  -3.417  0.00  0.00    -0.119 C 
ATOM     16  H5  <0> d           0.364   2.706  -3.327  0.00  0.00     0.067 H 
ATOM     17  H6  <0> d           0.702   1.144  -4.299  0.00  0.00     0.067 H 
BRANCH  14  18
ATOM     18  C1  <0> d          -0.289  -0.583  -2.581  0.00  0.00    -0.055 C 
ATOM     19  H2  <0> d          -1.226  -0.864  -3.061  0.00  0.00     0.033 H 
ATOM     20  H3  <0> d           0.548  -0.937  -3.183  0.00  0.00     0.033 H 
ATOM     21  H4  <0> d          -0.239  -1.033  -1.590  0.00  0.00     0.033 H 
ENDBRANCH  14  18
ENDBRANCH   1  14
BRANCH   5  22
ATOM     22  C10 <0> d          -2.954   1.559   2.419  0.00  0.00    -0.045 C 
ATOM     23  H13 <0> d          -3.921   1.061   2.483  0.00  0.00     0.032 H 
ATOM     24  H14 <0> d          -2.442   1.483   3.379  0.00  0.00     0.032 H 
ATOM     25  H15 <0> d          -3.102   2.610   2.170  0.00  0.00     0.032 H 
ENDBRANCH   5  22
BRANCH   5  26
ATOM     26  O1  <0> d          -1.919  -0.487   1.661  0.00  0.00    -0.386 OA
ATOM     27  H16 <0> d          -2.742  -0.989   1.735  0.00  0.00     0.211 HD
ENDBRANCH   5  26
TORSDOF 4
