REMARK  1 active torsions:
REMARK  status: ('A' for Active; 'I' for Inactive)
REMARK    1  A    between atoms: C2_2  and  O1_11 
ROOT
ATOM      1  C1  <0> d           0.002  -0.004   0.002  0.00  0.00    -0.012 A 
ATOM      2  C2  <0> d          -0.017   1.385   0.010  0.00  0.00     0.071 A 
ATOM      3  C3  <0> d           1.173   2.102   0.002  0.00  0.00    -0.012 A 
ATOM      4  C4  <0> d           2.382   1.436  -0.013  0.00  0.00     0.142 A 
ATOM      5  C5  <0> d           2.408   0.036  -0.021  0.00  0.00     0.121 A 
ATOM      6  C6  <0> d           1.205  -0.680  -0.013  0.00  0.00     0.142 A 
ATOM      7  F1  <0> d           1.221  -2.031  -0.021  0.00  0.00    -0.204 F 
ATOM      8  C7  <0> d           3.659  -0.660  -0.037  0.00  0.00     0.105 C 
ATOM      9  N1  <0> d           4.652  -1.212  -0.049  0.00  0.00    -0.191 NA
ATOM     10  F2  <0> d           3.539   2.135  -0.020  0.00  0.00    -0.204 F 
ATOM     11  H1  <0> d          -0.926  -0.556   0.008  0.00  0.00     0.092 H 
ATOM     12  H2  <0> d           1.152   3.181   0.008  0.00  0.00     0.092 H 
ENDROOT
BRANCH   2  13
ATOM     13  O1  <0> d          -1.203   2.045   0.019  0.00  0.00    -0.361 OA
ATOM     14  H3  <0> d          -1.543   2.231   0.905  0.00  0.00     0.217 HD
ENDBRANCH   2  13
TORSDOF 1
