REMARK  3 active torsions:
REMARK  status: ('A' for Active; 'I' for Inactive)
REMARK    1  A    between atoms: C1_1  and  C2_2 
REMARK    2  A    between atoms: C4_4  and  S1_9 
REMARK    3  A    between atoms: S1_9  and  C6_10 
ROOT
ATOM      1  C2  <0> d          -0.742   1.585  -1.213  0.00  0.00     0.038 A 
ATOM      2  C3  <0> d          -2.111   1.797  -1.165  0.00  0.00    -0.027 A 
ATOM      3  C4  <0> d          -2.758   2.258  -2.304  0.00  0.00     0.075 A 
ATOM      4  N1  <0> d          -2.021   2.486  -3.432  0.00  0.00    -0.301 N 
ATOM      5  C5  <0> d          -0.694   2.263  -3.424  0.00  0.00     0.347 A 
ATOM      6  N2  <0> d          -0.074   1.826  -2.329  0.00  0.00    -0.199 NA
ATOM      7  O1  <0> d          -0.045   2.469  -4.436  0.00  0.00    -0.245 OA
ATOM      8  H4  <0> d          -2.665   1.607  -0.257  0.00  0.00     0.090 H 
ATOM      9  H5  <0> d          -2.454   2.808  -4.238  0.00  0.00     0.171 HD
ENDROOT
BRANCH   3  10
ATOM     10  S1  <0> d          -4.497   2.543  -2.294  0.00  0.00    -0.117 SA
BRANCH  10  11
ATOM     11  C6  <0> d          -4.855   3.124  -3.975  0.00  0.00    -0.029 C 
ATOM     12  H6  <0> d          -4.569   2.357  -4.694  0.00  0.00     0.042 H 
ATOM     13  H7  <0> d          -5.921   3.330  -4.069  0.00  0.00     0.042 H 
ATOM     14  H8  <0> d          -4.290   4.036  -4.172  0.00  0.00     0.042 H 
ENDBRANCH  10  11
ENDBRANCH   3  10
BRANCH   1  15
ATOM     15  C1  <0> d          -0.013   1.086   0.008  0.00  0.00    -0.035 C 
ATOM     16  H1  <0> d           0.002  -0.004   0.002  0.00  0.00     0.035 H 
ATOM     17  H2  <0> d           1.010   1.463   0.000  0.00  0.00     0.035 H 
ATOM     18  H3  <0> d          -0.523   1.437   0.905  0.00  0.00     0.035 H 
ENDBRANCH   1  15
TORSDOF 3
