REMARK  2 active torsions:
REMARK  status: ('A' for Active; 'I' for Inactive)
REMARK    1  A    between atoms: C5_8  and  C6_9 
REMARK    2  A    between atoms: C6_9  and  O1_10 
ROOT
ATOM      1  C1  <0> d           3.551   2.590   0.416  0.00  0.00    -0.056 C 
ATOM      2  C2  <0> d           2.131   3.031  -0.003  0.00  0.00    -0.037 C 
ATOM      3  C3  <0> d           1.310   1.760  -0.001  0.00  0.00    -0.005 A 
ATOM      4  C4  <0> d           2.120   0.679  -0.015  0.00  0.00     0.036 A 
ATOM      5  N1  <0> d           1.338  -0.423  -0.013  0.00  0.00    -0.281 N 
ATOM      6  H1  <0> d           1.796  -1.423  -0.023  0.00  0.00     0.189 HD
ATOM      7  N2  <0> d           0.002  -0.004   0.002  0.00  0.00    -0.177 NA
ATOM      8  C5  <0> d          -0.016   1.303   0.009  0.00  0.00     0.086 A 
ATOM      9  C7  <0> d           3.571   1.111  -0.026  0.00  0.00    -0.024 C 
ATOM     10  H2  <0> d           3.719   2.651   1.501  0.00  0.00     0.034 H 
ATOM     11  H3  <0> d           4.345   3.141  -0.109  0.00  0.00     0.034 H 
ATOM     12  H4  <0> d           1.746   3.764   0.722  0.00  0.00     0.040 H 
ATOM     13  H5  <0> d           2.169   3.489  -1.002  0.00  0.00     0.040 H 
ATOM     14  H9  <0> d           4.009   1.035  -1.032  0.00  0.00     0.042 H 
ATOM     15  H10 <0> d           4.175   0.525   0.682  0.00  0.00     0.042 H 
ENDROOT
BRANCH   8  16
ATOM     16  C6  <0> d          -1.249   2.170   0.020  0.00  0.00     0.059 C 
ATOM     17  H6  <0> d          -1.035   3.118  -0.495  0.00  0.00     0.083 H 
ATOM     18  H7  <0> d          -2.068   1.648  -0.497  0.00  0.00     0.083 H 
BRANCH  16  19
ATOM     19  O1  <0> d          -1.631   2.437   1.371  0.00  0.00    -0.395 OA
ATOM     20  H8  <0> d          -2.515   3.058   1.579  0.00  0.00     0.209 HD
ENDBRANCH  16  19
ENDBRANCH   8  16
TORSDOF 2
