REMARK  2 active torsions:
REMARK  status: ('A' for Active; 'I' for Inactive)
REMARK    1  A    between atoms: C1_1  and  C2_2 
REMARK    2  A    between atoms: C9_11  and  C10_12 
ROOT
ATOM      1  C2  <0> d           2.885   4.118  -0.004  0.00  0.00    -0.054 A 
ATOM      2  C3  <0> d           3.383   2.822  -0.016  0.00  0.00    -0.076 A 
ATOM      3  C4  <0> d           2.533   1.752  -0.013  0.00  0.00    -0.070 A 
ATOM      4  C5  <0> d           1.153   1.963   0.002  0.00  0.00    -0.008 A 
ATOM      5  C6  <0> d          -0.013   1.076   0.008  0.00  0.00    -0.056 A 
ATOM      6  C7  <0> d          -1.102   1.860   0.017  0.00  0.00    -0.022 A 
ATOM      7  N1  <0> d          -0.730   3.176   0.026  0.00  0.00    -0.365 N 
ATOM      8  H1  <0> d          -1.342   3.929   0.036  0.00  0.00     0.165 HD
ATOM      9  C8  <0> d           0.643   3.274   0.013  0.00  0.00     0.048 A 
ATOM     10  C9  <0> d           1.527   4.349   0.010  0.00  0.00    -0.029 A 
ATOM     11  H5  <0> d           4.450   2.659  -0.028  0.00  0.00     0.084 H 
ATOM     12  H6  <0> d           2.928   0.747  -0.022  0.00  0.00     0.084 H 
ATOM     13  H7  <0> d           0.002  -0.004   0.002  0.00  0.00     0.086 H 
ATOM     14  H8  <0> d          -2.122   1.504   0.019  0.00  0.00     0.111 H 
ENDROOT
BRANCH   1  15
ATOM     15  C1  <0> d           3.840   5.284  -0.008  0.00  0.00    -0.051 C 
ATOM     16  H2  <0> d           4.059   5.570  -1.037  0.00  0.00     0.033 H 
ATOM     17  H3  <0> d           3.387   6.126   0.515  0.00  0.00     0.033 H 
ATOM     18  H4  <0> d           4.764   4.999   0.495  0.00  0.00     0.033 H 
ENDBRANCH   1  15
BRANCH  10  19
ATOM     19  C10 <0> d           1.000   5.761   0.024  0.00  0.00    -0.049 C 
ATOM     20  H9  <0> d           0.863   6.107  -1.001  0.00  0.00     0.033 H 
ATOM     21  H10 <0> d           0.044   5.787   0.547  0.00  0.00     0.033 H 
ATOM     22  H11 <0> d           1.712   6.409   0.534  0.00  0.00     0.033 H 
ENDBRANCH  10  19
TORSDOF 2
