REMARK  5 active torsions:
REMARK  status: ('A' for Active; 'I' for Inactive)
REMARK    1  A    between atoms: C1_1  and  C2_2 
REMARK    2  A    between atoms: C2_2  and  O1_3 
REMARK    3  A    between atoms: O1_3  and  C3_4 
REMARK    4  A    between atoms: C3_4  and  C4_6 
REMARK    5  A    between atoms: C5_7  and  C6_11 
ROOT
ATOM      1  C3  <0> d           1.265   1.788   3.017  0.00  0.00     0.316 C 
ATOM      2  O2  <0> d           2.122   1.417   2.241  0.00  0.00    -0.257 OA
ENDROOT
BRANCH   1   3
ATOM      3  O1  <0> d           1.595   2.115   4.280  0.00  0.00    -0.317 OA
BRANCH   3   4
ATOM      4  C2  <0> d           2.996   2.002   4.646  0.00  0.00     0.026 C 
ATOM      5  H4  <0> d           3.322   0.970   4.516  0.00  0.00     0.074 H 
ATOM      6  H5  <0> d           3.592   2.654   4.008  0.00  0.00     0.074 H 
BRANCH   4   7
ATOM      7  C1  <0> d           3.176   2.413   6.108  0.00  0.00    -0.056 C 
ATOM      8  H1  <0> d           4.228   2.328   6.383  0.00  0.00     0.030 H 
ATOM      9  H2  <0> d           2.850   3.445   6.238  0.00  0.00     0.030 H 
ATOM     10  H3  <0> d           2.580   1.760   6.746  0.00  0.00     0.030 H 
ENDBRANCH   4   7
ENDBRANCH   3   4
ENDBRANCH   1   3
BRANCH   1  11
ATOM     11  C4  <0> d          -0.146   1.879   2.572  0.00  0.00     0.187 A 
ATOM     12  N2  <0> d          -1.203   2.255   3.261  0.00  0.00    -0.097 NA
ATOM     13  O3  <0> d          -2.180   2.198   2.551  0.00  0.00    -0.106 OA
ATOM     14  N1  <0> d          -1.988   1.831   1.416  0.00  0.00    -0.108 NA
ATOM     15  C5  <0> d          -0.718   1.572   1.248  0.00  0.00     0.097 A 
BRANCH  15  16
ATOM     16  C6  <0> d          -0.013   1.086   0.008  0.00  0.00    -0.031 C 
ATOM     17  H6  <0> d           0.002  -0.004   0.002  0.00  0.00     0.035 H 
ATOM     18  H7  <0> d           1.010   1.463   0.000  0.00  0.00     0.035 H 
ATOM     19  H8  <0> d          -0.540   1.447  -0.875  0.00  0.00     0.035 H 
ENDBRANCH  15  16
ENDBRANCH   1  11
TORSDOF 5
