REMARK  4 active torsions:
REMARK  status: ('A' for Active; 'I' for Inactive)
REMARK    1  A    between atoms: C1_1  and  C2_2 
REMARK    2  A    between atoms: C2_2  and  C3_3 
REMARK    3  A    between atoms: C7_7  and  C8_9 
REMARK    4  A    between atoms: C8_9  and  O1_10 
ROOT
ATOM      1  C3  <0> d          -0.016   1.314   0.009  0.00  0.00     0.034 A 
ATOM      2  C4  <0> d           1.162   2.038   0.002  0.00  0.00    -0.059 A 
ATOM      3  C5  <0> d           2.371   1.359  -0.014  0.00  0.00    -0.079 A 
ATOM      4  C6  <0> d           2.350  -0.027  -0.021  0.00  0.00    -0.057 A 
ATOM      5  C7  <0> d           1.133  -0.682  -0.013  0.00  0.00     0.058 A 
ATOM      6  N1  <0> d           0.002  -0.004   0.002  0.00  0.00    -0.256 NA
ATOM      7  H6  <0> d           1.141   3.117   0.008  0.00  0.00     0.086 H 
ATOM      8  H7  <0> d           3.307   1.898  -0.020  0.00  0.00     0.083 H 
ATOM      9  H8  <0> d           3.273  -0.588  -0.034  0.00  0.00     0.086 H 
ENDROOT
BRANCH   1  10
ATOM     10  C2  <0> d          -1.336   2.041   0.019  0.00  0.00    -0.028 C 
ATOM     11  H4  <0> d          -1.159   3.124  -0.066  0.00  0.00     0.041 H 
ATOM     12  H5  <0> d          -1.864   1.829   0.961  0.00  0.00     0.041 H 
BRANCH  10  13
ATOM     13  C1  <0> d          -2.187   1.569  -1.161  0.00  0.00    -0.071 C 
ATOM     14  H1  <0> d          -3.151   2.099  -1.153  0.00  0.00     0.028 H 
ATOM     15  H2  <0> d          -2.364   0.486  -1.075  0.00  0.00     0.028 H 
ATOM     16  H3  <0> d          -1.659   1.781  -2.102  0.00  0.00     0.028 H 
ENDBRANCH  10  13
ENDBRANCH   1  10
BRANCH   5  17
ATOM     17  C8  <0> d           1.098  -2.189  -0.020  0.00  0.00     0.056 C 
ATOM     18  H9  <0> d           0.580  -2.548   0.881  0.00  0.00     0.083 H 
ATOM     19  H10 <0> d           0.562  -2.539  -0.915  0.00  0.00     0.083 H 
BRANCH  17  20
ATOM     20  O1  <0> d           2.434  -2.696  -0.036  0.00  0.00    -0.395 OA
ATOM     21  H11 <0> d           2.610  -3.782  -0.043  0.00  0.00     0.209 HD
ENDBRANCH  17  20
ENDBRANCH   5  17
TORSDOF 4
