REMARK  4 active torsions:
REMARK  status: ('A' for Active; 'I' for Inactive)
REMARK    1  A    between atoms: C1_1  and  C2_2 
REMARK    2  A    between atoms: C5_6  and  C8_11 
REMARK    3  A    between atoms: C8_11  and  C9_12 
REMARK    4  A    between atoms: C8_11  and  C10_13 
ROOT
ATOM      1  C2  <0> d           0.664  -0.511   1.288  0.00  0.00     0.000 C 
ATOM      2  H1  <0> d           0.102  -0.266   2.077  0.00  0.00     0.051 H 
ATOM      3  C3  <0> d           0.002  -0.004   0.002  0.00  0.00    -0.055 C 
ATOM      4  C4  <0> d          -0.019   1.525   0.010  0.00  0.00    -0.060 C 
ATOM      5  C5  <0> d           1.413   2.063  -0.000  0.00  0.00    -0.045 C 
ATOM      6  H2  <0> d           1.945   1.663  -0.863  0.00  0.00     0.041 H 
ATOM      7  C6  <0> d           2.128   1.634   1.285  0.00  0.00    -0.006 C 
ATOM      8  C7  <0> d           2.028   0.130   1.411  0.00  0.00     0.131 C 
ATOM      9  O1  <0> d           3.013  -0.542   1.606  0.00  0.00    -0.298 OA
ATOM     10  H6  <0> d          -1.019  -0.381  -0.054  0.00  0.00     0.034 H 
ATOM     11  H7  <0> d           0.568  -0.355  -0.861  0.00  0.00     0.034 H 
ATOM     12  H8  <0> d          -0.548   1.885  -0.872  0.00  0.00     0.033 H 
ATOM     13  H9  <0> d          -0.531   1.876   0.907  0.00  0.00     0.033 H 
ATOM     14  H10 <0> d           1.693   2.074   2.071  0.00  0.00     0.044 H 
ATOM     15  H11 <0> d           3.176   1.929   1.237  0.00  0.00     0.044 H 
ENDROOT
BRANCH   5  16
ATOM     16  C8  <0> d           1.383   3.591  -0.082  0.00  0.00    -0.057 C 
ATOM     17  H12 <0> d           0.852   3.991   0.782  0.00  0.00     0.039 H 
BRANCH  16  18
ATOM     18  C9  <0> d           2.816   4.129  -0.093  0.00  0.00    -0.073 C 
ATOM     19  H13 <0> d           3.348   3.729  -0.956  0.00  0.00     0.028 H 
ATOM     20  H14 <0> d           2.795   5.217  -0.151  0.00  0.00     0.028 H 
ATOM     21  H15 <0> d           3.325   3.824   0.821  0.00  0.00     0.028 H 
ENDBRANCH  16  18
BRANCH  16  22
ATOM     22  C10 <0> d           0.668   4.019  -1.365  0.00  0.00    -0.073 C 
ATOM     23  H16 <0> d          -0.352   3.636  -1.357  0.00  0.00     0.028 H 
ATOM     24  H17 <0> d           0.647   5.108  -1.423  0.00  0.00     0.028 H 
ATOM     25  H18 <0> d           1.200   3.620  -2.228  0.00  0.00     0.028 H 
ENDBRANCH  16  22
ENDBRANCH   5  16
BRANCH   1  26
ATOM     26  C1  <0> d           0.815  -2.032   1.222  0.00  0.00    -0.066 C 
ATOM     27  H3  <0> d           1.435  -2.300   0.366  0.00  0.00     0.028 H 
ATOM     28  H4  <0> d           1.286  -2.390   2.138  0.00  0.00     0.028 H 
ATOM     29  H5  <0> d          -0.168  -2.491   1.116  0.00  0.00     0.028 H 
ENDBRANCH   1  26
TORSDOF 4
