REMARK  4 active torsions:
REMARK  status: ('A' for Active; 'I' for Inactive)
REMARK    1  A    between atoms: C1_1  and  C2_2 
REMARK    2  A    between atoms: C5_6  and  C10_13 
REMARK    3  A    between atoms: C6_8  and  C8_11 
REMARK    4  A    between atoms: C6_8  and  C9_12 
ROOT
ATOM      1  C2  <0> d          -0.019   1.526   0.010  0.00  0.00     0.001 C 
ATOM      2  H1  <0> d          -0.494   1.848   0.829  0.00  0.00     0.051 H 
ATOM      3  C3  <0> d          -0.738   2.038  -1.242  0.00  0.00    -0.055 C 
ATOM      4  C4  <0> d          -0.633   3.562  -1.300  0.00  0.00    -0.060 C 
ATOM      5  C5  <0> d           0.832   3.976  -1.446  0.00  0.00    -0.044 C 
ATOM      6  H2  <0> d           0.895   5.059  -1.551  0.00  0.00     0.041 H 
ATOM      7  C6  <0> d           1.611   3.538  -0.201  0.00  0.00     0.017 C 
ATOM      8  C7  <0> d           1.399   2.053  -0.000  0.00  0.00     0.139 C 
ATOM      9  O1  <0> d           2.338   1.308   0.148  0.00  0.00    -0.297 OA
ATOM     10  H6  <0> d          -0.275   1.607  -2.129  0.00  0.00     0.034 H 
ATOM     11  H7  <0> d          -1.788   1.747  -1.202  0.00  0.00     0.034 H 
ATOM     12  H8  <0> d          -1.041   3.989  -0.384  0.00  0.00     0.033 H 
ATOM     13  H9  <0> d          -1.200   3.931  -2.155  0.00  0.00     0.033 H 
ENDROOT
BRANCH   7  14
ATOM     14  C8  <0> d           1.097   4.300   1.022  0.00  0.00    -0.062 C 
ATOM     15  H10 <0> d           1.641   3.974   1.908  0.00  0.00     0.029 H 
ATOM     16  H11 <0> d           1.250   5.369   0.874  0.00  0.00     0.029 H 
ATOM     17  H12 <0> d           0.034   4.101   1.154  0.00  0.00     0.029 H 
ENDBRANCH   7  14
BRANCH   7  18
ATOM     18  C9  <0> d           3.101   3.822  -0.396  0.00  0.00    -0.062 C 
ATOM     19  H13 <0> d           3.463   3.284  -1.272  0.00  0.00     0.029 H 
ATOM     20  H14 <0> d           3.251   4.892  -0.540  0.00  0.00     0.029 H 
ATOM     21  H15 <0> d           3.652   3.494   0.486  0.00  0.00     0.029 H 
ENDBRANCH   7  18
BRANCH   5  22
ATOM     22  C10 <0> d           1.431   3.308  -2.685  0.00  0.00    -0.072 C 
ATOM     23  H16 <0> d           1.367   2.225  -2.580  0.00  0.00     0.028 H 
ATOM     24  H17 <0> d           0.877   3.620  -3.570  0.00  0.00     0.028 H 
ATOM     25  H18 <0> d           2.475   3.602  -2.787  0.00  0.00     0.028 H 
ENDBRANCH   5  22
BRANCH   1  26
ATOM     26  C1  <0> d           0.002  -0.004   0.002  0.00  0.00    -0.066 C 
ATOM     27  H3  <0> d           0.529  -0.365   0.885  0.00  0.00     0.028 H 
ATOM     28  H4  <0> d          -1.020  -0.381   0.010  0.00  0.00     0.028 H 
ATOM     29  H5  <0> d           0.512  -0.356  -0.895  0.00  0.00     0.028 H 
ENDBRANCH   1  26
TORSDOF 4
