REMARK  3 active torsions:
REMARK  status: ('A' for Active; 'I' for Inactive)
REMARK    1  A    between atoms: C1_1  and  C2_2 
REMARK    2  A    between atoms: C3_3  and  C5_8 
REMARK    3  A    between atoms: C4_6  and  N2_7 
ROOT
ATOM      1  C2  <0> d          -2.094   1.839   1.384  0.00  0.00     0.017 A 
ATOM      2  C3  <0> d          -0.718   1.572   1.248  0.00  0.00     0.068 A 
ATOM      3  N1  <0> d          -0.173   1.833   2.403  0.00  0.00    -0.131 NA
ATOM      4  O1  <0> d          -0.990   2.208   3.212  0.00  0.00    -0.195 OA
ATOM      5  C4  <0> d          -2.224   2.245   2.683  0.00  0.00     0.174 A 
ENDROOT
BRANCH   1   6
ATOM      6  C1  <0> d          -3.174   1.704   0.341  0.00  0.00    -0.045 C 
ATOM      7  H1  <0> d          -3.594   0.699   0.381  0.00  0.00     0.033 H 
ATOM      8  H2  <0> d          -3.960   2.434   0.535  0.00  0.00     0.033 H 
ATOM      9  H3  <0> d          -2.749   1.882  -0.647  0.00  0.00     0.033 H 
ENDBRANCH   1   6
BRANCH   5  10
ATOM     10  N2  <0> d          -3.389   2.624   3.322  0.00  0.00    -0.378 N 
ATOM     11  H4  <0> d          -3.365   2.900   4.251  0.00  0.00     0.158 HD
ATOM     12  H5  <0> d          -4.232   2.613   2.840  0.00  0.00     0.158 HD
ENDBRANCH   5  10
BRANCH   2  13
ATOM     13  C5  <0> d          -0.013   1.086   0.008  0.00  0.00    -0.033 C 
ATOM     14  H6  <0> d           0.002  -0.004   0.002  0.00  0.00     0.035 H 
ATOM     15  H7  <0> d           1.010   1.463   0.000  0.00  0.00     0.035 H 
ATOM     16  H8  <0> d          -0.540   1.447  -0.875  0.00  0.00     0.035 H 
ENDBRANCH   2  13
TORSDOF 3
