REMARK  1 active torsions:
REMARK  status: ('A' for Active; 'I' for Inactive)
REMARK    1  A    between atoms: C1_1  and  C2_2 
ROOT
ATOM      1  C2  <0> d           0.002  -0.004   0.002  0.00  0.00    -0.060 A 
ATOM      2  C3  <0> d           0.006  -0.688  -1.199  0.00  0.00    -0.074 A 
ATOM      3  C4  <0> d           0.024  -2.070  -1.215  0.00  0.00    -0.048 A 
ATOM      4  C5  <0> d           0.038  -2.778  -0.022  0.00  0.00     0.095 A 
ATOM      5  C6  <0> d           0.037  -2.087   1.186  0.00  0.00     0.062 A 
ATOM      6  C7  <0> d           0.023  -0.701   1.196  0.00  0.00    -0.049 A 
ATOM      7  N1  <0> d           0.060  -2.799   2.396  0.00  0.00    -0.386 N 
ATOM      8  C8  <0> d          -0.229  -4.242   2.346  0.00  0.00     0.013 C 
ATOM      9  C9  <0> d           0.501  -4.820   1.125  0.00  0.00     0.041 C 
ATOM     10  O1  <0> d           0.051  -4.137  -0.047  0.00  0.00    -0.347 OA
ATOM     11  H4  <0> d          -0.005  -0.140  -2.130  0.00  0.00     0.084 H 
ATOM     12  H5  <0> d           0.025  -2.599  -2.156  0.00  0.00     0.087 H 
ATOM     13  H6  <0> d           0.024  -0.167   2.135  0.00  0.00     0.087 H 
ATOM     14  H7  <0> d           0.259  -2.356   3.235  0.00  0.00     0.159 HD
ATOM     15  H8  <0> d           0.132  -4.724   3.255  0.00  0.00     0.067 H 
ATOM     16  H9  <0> d          -1.303  -4.401   2.244  0.00  0.00     0.067 H 
ATOM     17  H10 <0> d           1.576  -4.677   1.241  0.00  0.00     0.077 H 
ATOM     18  H11 <0> d           0.280  -5.884   1.036  0.00  0.00     0.077 H 
ENDROOT
BRANCH   1  19
ATOM     19  C1  <0> d          -0.018   1.503   0.010  0.00  0.00    -0.051 C 
ATOM     20  H1  <0> d           1.004   1.880   0.003  0.00  0.00     0.033 H 
ATOM     21  H2  <0> d          -0.545   1.864  -0.873  0.00  0.00     0.033 H 
ATOM     22  H3  <0> d          -0.529   1.854   0.907  0.00  0.00     0.033 H 
ENDBRANCH   1  19
TORSDOF 1
