REMARK  4 active torsions:
REMARK  status: ('A' for Active; 'I' for Inactive)
REMARK    1  A    between atoms: C2_2  and  O4_12 
REMARK    2  A    between atoms: C3_4  and  C5_10 
REMARK    3  A    between atoms: C4_7  and  O2_9 
REMARK    4  A    between atoms: C5_10  and  O3_11 
ROOT
ATOM      1  C1  <0> d           1.475   1.936  -0.002  0.00  0.00     0.007 C 
ATOM      2  C2  <0> d          -0.019   1.541   0.011  0.00  0.00     0.067 C 
ATOM      3  H1  <0> d          -0.522   1.921  -0.879  0.00  0.00     0.087 H 
ATOM      4  C3  <0> d           0.002  -0.004   0.002  0.00  0.00     0.086 C 
ATOM      5  H2  <0> d          -0.091  -0.379  -1.017  0.00  0.00     0.090 H 
ATOM      6  O1  <0> d           1.288  -0.359   0.555  0.00  0.00    -0.351 OA
ATOM      7  C4  <0> d           2.221   0.584  -0.016  0.00  0.00     0.131 C 
ATOM      8  H3  <0> d           2.472   0.298  -1.038  0.00  0.00     0.128 H 
ATOM      9  H4  <0> d           1.710   2.512  -0.897  0.00  0.00     0.044 H 
ATOM     10  H5  <0> d           1.727   2.502   0.895  0.00  0.00     0.044 H 
ENDROOT
BRANCH   4  11
ATOM     11  C5  <0> d          -1.125  -0.557   0.877  0.00  0.00     0.043 C 
ATOM     12  H7  <0> d          -0.948  -0.280   1.916  0.00  0.00     0.078 H 
ATOM     13  H8  <0> d          -2.077  -0.142   0.547  0.00  0.00     0.078 H 
BRANCH  11  14
ATOM     14  O3  <0> d          -1.161  -1.981   0.763  0.00  0.00    -0.398 OA
ATOM     15  H9  <0> d          -1.853  -2.400   1.293  0.00  0.00     0.209 HD
ENDBRANCH  11  14
ENDBRANCH   4  11
BRANCH   2  16
ATOM     16  O4  <0> d          -0.656   2.026   1.194  0.00  0.00    -0.393 OA
ATOM     17  H10 <0> d          -0.697   2.991   1.251  0.00  0.00     0.210 HD
ENDBRANCH   2  16
BRANCH   7  18
ATOM     18  O2  <0> d           3.404   0.660   0.783  0.00  0.00    -0.371 OA
ATOM     19  H6  <0> d           3.887  -0.175   0.850  0.00  0.00     0.212 HD
ENDBRANCH   7  18
TORSDOF 4
