REMARK  2 active torsions:
REMARK  status: ('A' for Active; 'I' for Inactive)
REMARK    1  A    between atoms: C1_1  and  C2_2 
REMARK    2  A    between atoms: C7_9  and  N4_12 
ROOT
ATOM      1  C2  <0> d           1.217  -0.668  -0.013  0.00  0.00     0.033 A 
ATOM      2  C3  <0> d           0.002  -0.004   0.002  0.00  0.00    -0.057 A 
ATOM      3  C4  <0> d          -0.017   1.382   0.010  0.00  0.00    -0.051 A 
ATOM      4  C5  <0> d           1.196   2.054   0.002  0.00  0.00     0.097 A 
ATOM      5  C6  <0> d           2.395   1.319  -0.014  0.00  0.00     0.196 A 
ATOM      6  N1  <0> d           2.357  -0.012  -0.021  0.00  0.00    -0.232 NA
ATOM      7  N2  <0> d           3.410   2.219  -0.019  0.00  0.00    -0.043 NA
ATOM      8  C7  <0> d           2.923   3.436  -0.009  0.00  0.00     0.700 A 
ATOM      9  N3  <0> d           1.559   3.390   0.005  0.00  0.00    -0.186 N 
ATOM     10  H1  <0> d           0.939   4.174   0.015  0.00  0.00     0.184 HD
ATOM     11  H5  <0> d          -0.923  -0.561   0.008  0.00  0.00     0.086 H 
ATOM     12  H6  <0> d          -0.951   1.924   0.017  0.00  0.00     0.087 H 
ENDROOT
BRANCH   1  13
ATOM     13  C1  <0> d           1.233  -2.175  -0.022  0.00  0.00    -0.035 C 
ATOM     14  H2  <0> d           1.227  -2.533  -1.052  0.00  0.00     0.035 H 
ATOM     15  H3  <0> d           2.132  -2.532   0.481  0.00  0.00     0.035 H 
ATOM     16  H4  <0> d           0.352  -2.551   0.498  0.00  0.00     0.035 H 
ENDBRANCH   1  13
BRANCH   8  17
ATOM     17  N4  <0> d           3.676   4.589  -0.010  0.00  0.00    -0.233 N 
ATOM     18  H7  <0> d           3.238   5.455  -0.001  0.00  0.00     0.174 HD
ATOM     19  H8  <0> d           4.644   4.536  -0.019  0.00  0.00     0.174 HD
ENDBRANCH   8  17
TORSDOF 2
