REMARK  1 active torsions:
REMARK  status: ('A' for Active; 'I' for Inactive)
REMARK    1  A    between atoms: C2_2  and  O3_13 
ROOT
ATOM      1  C1  <0> d           0.615   0.713  -2.220  0.00  0.00    -0.035 C 
ATOM      2  C2  <0> d           1.891   1.178  -1.451  0.00  0.00     0.038 C 
ATOM      3  H1  <0> d           2.312   2.066  -1.922  0.00  0.00     0.083 H 
ATOM      4  C3  <0> d           1.415   1.510  -0.003  0.00  0.00    -0.016 C 
ATOM      5  C4  <0> d          -0.013   1.086   0.008  0.00  0.00     0.054 C 
ATOM      6  H2  <0> d           0.002  -0.004   0.002  0.00  0.00     0.085 H 
ATOM      7  C5  <0> d          -0.503   1.434  -1.454  0.00  0.00    -0.018 C 
ATOM      8  H3  <0> d          -0.586   2.496  -1.685  0.00  0.00     0.044 H 
ATOM      9  C6  <0> d          -1.850   0.705  -1.307  0.00  0.00     0.021 C 
ATOM     10  C7  <0> d          -2.243   1.121   0.118  0.00  0.00     0.259 C 
ATOM     11  O1  <0> d          -3.368   1.163   0.555  0.00  0.00    -0.265 OA
ATOM     12  O2  <0> d          -1.108   1.448   0.804  0.00  0.00    -0.316 OA
ATOM     13  H4  <0> d           0.646   1.040  -3.259  0.00  0.00     0.037 H 
ATOM     14  H5  <0> d           0.495  -0.368  -2.155  0.00  0.00     0.037 H 
ATOM     15  H6  <0> d           1.499   2.579   0.191  0.00  0.00     0.040 H 
ATOM     16  H7  <0> d           1.989   0.943   0.730  0.00  0.00     0.040 H 
ATOM     17  H8  <0> d          -2.575   1.066  -2.037  0.00  0.00     0.048 H 
ATOM     18  H9  <0> d          -1.724  -0.375  -1.382  0.00  0.00     0.048 H 
ENDROOT
BRANCH   2  19
ATOM     19  O3  <0> d           2.860   0.128  -1.424  0.00  0.00    -0.395 OA
ATOM     20  H10 <0> d           3.662   0.346  -0.930  0.00  0.00     0.210 HD
ENDBRANCH   2  19
TORSDOF 1
