REMARK  1 active torsions:
REMARK  status: ('A' for Active; 'I' for Inactive)
REMARK    1  A    between atoms: C1_1  and  N1_2 
ROOT
ATOM      1  N1  <0> d           1.200   1.716  -0.000  0.00  0.00    -0.246 N 
ATOM      2  C2  <0> d           2.005   0.637  -0.014  0.00  0.00     0.107 A 
ATOM      3  N2  <0> d           1.223  -0.415  -0.012  0.00  0.00    -0.122 NA
ATOM      4  N3  <0> d           0.002  -0.004   0.002  0.00  0.00    -0.024 NA
ATOM      5  N4  <0> d          -0.015   1.283   0.009  0.00  0.00    -0.045 NA
ATOM      6  H4  <0> d           3.085   0.638  -0.024  0.00  0.00     0.149 H 
ENDROOT
BRANCH   1   7
ATOM      7  C1  <0> d           1.625   3.118   0.003  0.00  0.00     0.005 C 
ATOM      8  H1  <0> d           1.740   3.460   1.031  0.00  0.00     0.059 H 
ATOM      9  H2  <0> d           2.577   3.210  -0.520  0.00  0.00     0.059 H 
ATOM     10  H3  <0> d           0.873   3.726  -0.500  0.00  0.00     0.059 H 
ENDBRANCH   1   7
TORSDOF 1
