REMARK  3 active torsions:
REMARK  status: ('A' for Active; 'I' for Inactive)
REMARK    1  A    between atoms: C1_1  and  O1_2 
REMARK    2  A    between atoms: O1_2  and  C2_3 
REMARK    3  A    between atoms: C2_3  and  C3_5 
ROOT
ATOM      1  C3  <0> d           1.232   3.551   0.009  0.00  0.00     0.057 A 
ATOM      2  C4  <0> d           2.466   4.216   0.001  0.00  0.00    -0.061 A 
ATOM      3  C5  <0> d           2.466   5.597   0.008  0.00  0.00    -0.026 A 
ATOM      4  C6  <0> d           1.256   6.276   0.023  0.00  0.00     0.209 A 
ATOM      5  N1  <0> d           0.108   5.622   0.030  0.00  0.00    -0.232 NA
ATOM      6  C7  <0> d           0.058   4.306   0.019  0.00  0.00     0.021 A 
ATOM      7  F1  <0> d           1.251   7.627   0.030  0.00  0.00    -0.184 F 
ATOM      8  H4  <0> d           3.393   3.662  -0.011  0.00  0.00     0.085 H 
ATOM      9  H5  <0> d           3.398   6.143   0.003  0.00  0.00     0.090 H 
ATOM     10  H6  <0> d          -0.900   3.806   0.021  0.00  0.00     0.116 H 
ENDROOT
BRANCH   1  11
ATOM     11  C2  <0> d           1.174   2.076   0.002  0.00  0.00     0.294 C 
ATOM     12  O2  <0> d           2.202   1.428  -0.011  0.00  0.00    -0.259 OA
BRANCH  11  13
ATOM     13  O1  <0> d          -0.018   1.448   0.010  0.00  0.00    -0.322 OA
BRANCH  13  14
ATOM     14  C1  <0> d           0.002  -0.004   0.002  0.00  0.00     0.013 C 
ATOM     15  H1  <0> d          -1.020  -0.381   0.010  0.00  0.00     0.067 H 
ATOM     16  H2  <0> d           0.512  -0.356  -0.895  0.00  0.00     0.067 H 
ATOM     17  H3  <0> d           0.529  -0.365   0.885  0.00  0.00     0.067 H 
ENDBRANCH  13  14
ENDBRANCH  11  13
ENDBRANCH   1  11
TORSDOF 3
