REMARK  3 active torsions:
REMARK  status: ('A' for Active; 'I' for Inactive)
REMARK    1  A    between atoms: C1_1  and  N1_2 
REMARK    2  A    between atoms: C3_4  and  C5_7 
REMARK    3  A    between atoms: C5_7  and  O1_8 
ROOT
ATOM      1  N1  <0> d           1.075   1.907   0.002  0.00  0.00    -0.354 N 
ATOM      2  C2  <0> d          -0.013   1.076   0.008  0.00  0.00     0.006 A 
ATOM      3  C3  <0> d          -1.105   1.864   0.017  0.00  0.00     0.074 A 
ATOM      4  N2  <0> d          -0.695   3.141   0.025  0.00  0.00    -0.245 NA
ATOM      5  C4  <0> d           0.610   3.174   0.013  0.00  0.00     0.066 A 
ATOM      6  H4  <0> d           0.002  -0.004   0.002  0.00  0.00     0.114 H 
ATOM      7  H5  <0> d           1.217   4.068   0.012  0.00  0.00     0.143 H 
ENDROOT
BRANCH   3   8
ATOM      8  C5  <0> d          -2.536   1.393   0.021  0.00  0.00     0.058 C 
ATOM      9  H6  <0> d          -3.038   1.763   0.915  0.00  0.00     0.083 H 
ATOM     10  H7  <0> d          -3.046   1.772  -0.865  0.00  0.00     0.083 H 
BRANCH   8  11
ATOM     11  O1  <0> d          -2.568  -0.035   0.013  0.00  0.00    -0.395 OA
ATOM     12  H8  <0> d          -3.460  -0.409   0.015  0.00  0.00     0.209 HD
ENDBRANCH   8  11
ENDBRANCH   3   8
BRANCH   1  13
ATOM     13  C1  <0> d           2.482   1.497  -0.013  0.00  0.00    -0.014 C 
ATOM     14  H1  <0> d           2.821   1.401  -1.044  0.00  0.00     0.057 H 
ATOM     15  H2  <0> d           3.084   2.248   0.499  0.00  0.00     0.057 H 
ATOM     16  H3  <0> d           2.587   0.538   0.495  0.00  0.00     0.057 H 
ENDBRANCH   1  13
TORSDOF 3
