REMARK  7 active torsions:
REMARK  status: ('A' for Active; 'I' for Inactive)
REMARK    1  A    between atoms: C1_1  and  C2_2 
REMARK    2  A    between atoms: C2_2  and  O1_3 
REMARK    3  A    between atoms: O1_3  and  C3_4 
REMARK    4  A    between atoms: C3_4  and  C4_6 
REMARK    5  A    between atoms: C4_6  and  C5_8 
REMARK    6  A    between atoms: C4_6  and  N1_10 
REMARK    7  A    between atoms: C5_8  and  O3_9 
ROOT
ATOM      1  C3  <0> d          -0.074   0.981   2.485  0.00  0.00     0.294 C 
ATOM      2  O2  <0> d           0.713   1.633   3.130  0.00  0.00    -0.263 OA
ENDROOT
BRANCH   1   3
ATOM      3  O1  <0> d          -0.364  -0.277   2.853  0.00  0.00    -0.320 OA
BRANCH   3   4
ATOM      4  C2  <0> d           0.304  -0.788   4.036  0.00  0.00     0.025 C 
ATOM      5  H5  <0> d           0.048  -0.160   4.902  0.00  0.00     0.074 H 
ATOM      6  H6  <0> d           1.393  -0.770   3.879  0.00  0.00     0.074 H 
BRANCH   4   7
ATOM      7  C1  <0> d          -0.150  -2.226   4.297  0.00  0.00    -0.056 C 
ATOM      8  H2  <0> d           0.357  -2.614   5.194  0.00  0.00     0.030 H 
ATOM      9  H3  <0> d           0.106  -2.854   3.431  0.00  0.00     0.030 H 
ATOM     10  H4  <0> d          -1.238  -2.244   4.454  0.00  0.00     0.030 H 
ENDBRANCH   4   7
ENDBRANCH   3   4
ENDBRANCH   1   3
BRANCH   1  11
ATOM     11  C4  <0> d          -0.729   1.579   1.267  0.00  0.00     0.232 C 
ATOM     12  H1  <0> d          -1.794   1.306   1.246  0.00  0.00     0.107 H 
BRANCH  11  13
ATOM     13  C5  <0> d          -0.013   1.086   0.008  0.00  0.00     0.054 C 
ATOM     14  H7  <0> d           1.019   1.466   0.000  0.00  0.00     0.078 H 
ATOM     15  H8  <0> d           0.002  -0.014   0.002  0.00  0.00     0.078 H 
BRANCH  13  16
ATOM     16  O3  <0> d          -0.704   1.559  -1.150  0.00  0.00    -0.398 OA
ATOM     17  H9  <0> d          -0.334   1.304  -2.154  0.00  0.00     0.209 HD
ENDBRANCH  13  16
ENDBRANCH  11  13
BRANCH  11  18
ATOM     18  N1  <0> d          -0.644   3.044   1.336  0.00  0.00     0.094 N 
ATOM     19  H10 <0> d          -1.123   3.481   0.447  0.00  0.00     0.314 HD
ATOM     20  H11 <0> d          -1.159   3.399   2.241  0.00  0.00     0.314 HD
ENDBRANCH  11  18
ENDBRANCH   1  11
TORSDOF 7
