REMARK  2 active torsions:
REMARK  status: ('A' for Active; 'I' for Inactive)
REMARK    1  A    between atoms: C1_1  and  C2_2 
REMARK    2  A    between atoms: C2_2  and  N1_3 
ROOT
ATOM      1  N1  <0> d          -2.103   1.072   1.277  0.00  0.00    -0.350 N 
ATOM      2  C3  <0> d          -3.202   1.692   0.745  0.00  0.00    -0.003 A 
ATOM      3  C4  <0> d          -4.254   0.882   0.971  0.00  0.00     0.018 A 
ATOM      4  N2  <0> d          -3.811  -0.198   1.632  0.00  0.00    -0.255 NA
ATOM      5  C5  <0> d          -2.524  -0.091   1.819  0.00  0.00     0.065 A 
ATOM      6  H6  <0> d          -3.220   2.645   0.238  0.00  0.00     0.113 H 
ATOM      7  H7  <0> d          -5.275   1.071   0.677  0.00  0.00     0.117 H 
ATOM      8  H8  <0> d          -1.899  -0.813   2.323  0.00  0.00     0.143 H 
ENDROOT
BRANCH   1   9
ATOM      9  C2  <0> d          -0.729   1.579   1.267  0.00  0.00    -0.003 C 
ATOM     10  H4  <0> d          -0.202   1.218   2.150  0.00  0.00     0.064 H 
ATOM     11  H5  <0> d          -0.744   2.669   1.273  0.00  0.00     0.064 H 
BRANCH   9  12
ATOM     12  C1  <0> d          -0.013   1.086   0.008  0.00  0.00    -0.061 C 
ATOM     13  H1  <0> d           0.002  -0.004   0.002  0.00  0.00     0.029 H 
ATOM     14  H2  <0> d           1.010   1.463   0.000  0.00  0.00     0.029 H 
ATOM     15  H3  <0> d          -0.540   1.447  -0.875  0.00  0.00     0.029 H 
ENDBRANCH   9  12
ENDBRANCH   1   9
TORSDOF 2
