REMARK  5 active torsions:
REMARK  status: ('A' for Active; 'I' for Inactive)
REMARK    1  A    between atoms: C1_1  and  C2_2 
REMARK    2  A    between atoms: C2_2  and  C3_3 
REMARK    3  A    between atoms: C2_2  and  C4_4 
REMARK    4  A    between atoms: C2_2  and  O1_8 
REMARK    5  A    between atoms: C5_5  and  C6_6 
ROOT
ATOM      1  C2  <0> d           0.002  -0.004   0.002  0.00  0.00     0.114 C 
ENDROOT
BRANCH   1   2
ATOM      2  C1  <0> d          -0.019   1.526   0.010  0.00  0.00    -0.038 C 
ATOM      3  H1  <0> d           1.004   1.903   0.003  0.00  0.00     0.033 H 
ATOM      4  H2  <0> d          -0.546   1.887  -0.873  0.00  0.00     0.033 H 
ATOM      5  H3  <0> d          -0.529   1.877   0.907  0.00  0.00     0.033 H 
ENDBRANCH   1   2
BRANCH   1   6
ATOM      6  C3  <0> d           0.742  -0.511   1.242  0.00  0.00    -0.038 C 
ATOM      7  H4  <0> d           0.232  -0.159   2.138  0.00  0.00     0.033 H 
ATOM      8  H5  <0> d           0.757  -1.601   1.236  0.00  0.00     0.033 H 
ATOM      9  H6  <0> d           1.765  -0.134   1.234  0.00  0.00     0.033 H 
ENDBRANCH   1   6
BRANCH   1  10
ATOM     10  C4  <0> d          -1.379  -0.514   0.013  0.00  0.00    -0.065 C 
ATOM     11  C5  <0> d          -2.480  -0.920   0.021  0.00  0.00    -0.076 C 
BRANCH  11  12
ATOM     12  C6  <0> d          -3.824  -1.416   0.031  0.00  0.00    -0.042 C 
ATOM     13  C7  <0> d          -4.049  -2.725   0.026  0.00  0.00    -0.114 C 
ATOM     14  H8  <0> d          -3.219  -3.416   0.014  0.00  0.00     0.067 H 
ATOM     15  H9  <0> d          -5.062  -3.099   0.034  0.00  0.00     0.067 H 
ATOM     16  H7  <0> d          -4.654  -0.725   0.043  0.00  0.00     0.096 H 
ENDBRANCH  11  12
ENDBRANCH   1  10
BRANCH   1  17
ATOM     17  O1  <0> d           0.671  -0.465  -1.174  0.00  0.00    -0.378 OA
ATOM     18  H10 <0> d           1.588  -0.167  -1.247  0.00  0.00     0.211 HD
ENDBRANCH   1  17
TORSDOF 5
