REMARK  2 active torsions:
REMARK  status: ('A' for Active; 'I' for Inactive)
REMARK    1  A    between atoms: C1_1  and  O1_2 
REMARK    2  A    between atoms: O1_2  and  C2_3 
ROOT
ATOM      1  C2  <0> d           1.050   1.930   0.002  0.00  0.00     0.212 A 
ATOM      2  C3  <0> d          -0.013   1.076   0.008  0.00  0.00     0.017 A 
ATOM      3  C4  <0> d          -1.136   1.930   0.017  0.00  0.00     0.158 A 
ATOM      4  N1  <0> d          -0.673   3.150   0.025  0.00  0.00    -0.113 NA
ATOM      5  O2  <0> d           0.536   3.170   0.014  0.00  0.00    -0.186 OA
ATOM      6 Cl1  <0> d          -2.805   1.452   0.020  0.00  0.00    -0.060 Cl
ATOM      7  H4  <0> d           0.002  -0.004   0.002  0.00  0.00     0.096 H 
ENDROOT
BRANCH   1   8
ATOM      8  O1  <0> d           2.362   1.595  -0.013  0.00  0.00    -0.334 OA
BRANCH   8   9
ATOM      9  C1  <0> d           3.305   2.668  -0.016  0.00  0.00     0.012 C 
ATOM     10  H1  <0> d           3.151   3.285  -0.901  0.00  0.00     0.067 H 
ATOM     11  H2  <0> d           3.169   3.275   0.879  0.00  0.00     0.067 H 
ATOM     12  H3  <0> d           4.317   2.262  -0.028  0.00  0.00     0.067 H 
ENDBRANCH   8   9
ENDBRANCH   1   8
TORSDOF 2
