REMARK  3 active torsions:
REMARK  status: ('A' for Active; 'I' for Inactive)
REMARK    1  A    between atoms: C1_1  and  C2_2 
REMARK    2  A    between atoms: C2_2  and  C6_8 
REMARK    3  A    between atoms: C4_4  and  C5_6 
ROOT
ATOM      1  C2  <0> d           1.335   1.811  -0.001  0.00  0.00    -0.034 A 
ATOM      2  C3  <0> d           0.484   1.792   1.271  0.00  0.00    -0.045 A 
ATOM      3  C4  <0> d          -0.013   1.086   0.008  0.00  0.00     0.038 A 
ATOM      4  H1  <0> d           0.002  -0.004   0.002  0.00  0.00     0.057 H 
ATOM      5  H5  <0> d          -0.012   2.719   1.558  0.00  0.00     0.035 H 
ATOM      6  H6  <0> d           0.826   1.167   2.096  0.00  0.00     0.035 H 
ENDROOT
BRANCH   1   7
ATOM      7  C1  <0> d           2.600   0.950  -0.018  0.00  0.00    -0.068 C 
ATOM      8  H2  <0> d           2.603   0.326  -0.911  0.00  0.00     0.028 H 
ATOM      9  H3  <0> d           3.478   1.596  -0.023  0.00  0.00     0.028 H 
ATOM     10  H4  <0> d           2.620   0.316   0.869  0.00  0.00     0.028 H 
ENDBRANCH   1   7
BRANCH   1  11
ATOM     11  C6  <0> d           1.423   3.128  -0.773  0.00  0.00    -0.068 C 
ATOM     12  H7  <0> d           0.714   3.843  -0.355  0.00  0.00     0.028 H 
ATOM     13  H8  <0> d           2.433   3.530  -0.693  0.00  0.00     0.028 H 
ATOM     14  H9  <0> d           1.184   2.952  -1.822  0.00  0.00     0.028 H 
ENDBRANCH   1  11
BRANCH   3  15
ATOM     15  C5  <0> d          -1.151   1.724  -0.745  0.00  0.00     0.177 C 
ATOM     16  O1  <0> d          -0.980   2.769  -1.326  0.00  0.00    -0.648 OA
ATOM     17  O2  <0> d          -2.356   1.133  -0.768  0.00  0.00    -0.648 OA
ENDBRANCH   3  15
TORSDOF 3
