REMARK  3 active torsions:
REMARK  status: ('A' for Active; 'I' for Inactive)
REMARK    1  A    between atoms: C1_1  and  C2_2 
REMARK    2  A    between atoms: C5_6  and  O1_8 
REMARK    3  A    between atoms: O1_8  and  C6_9 
ROOT
ATOM      1  C2  <0> d          -0.742   1.585  -1.213  0.00  0.00     0.105 A 
ATOM      2  N1  <0> d          -0.870   2.913  -1.404  0.00  0.00    -0.312 N 
ATOM      3  C3  <0> d          -1.518   3.384  -2.490  0.00  0.00     0.250 A 
ATOM      4  C4  <0> d          -2.051   2.465  -3.408  0.00  0.00     0.034 A 
ATOM      5  C5  <0> d          -1.888   1.116  -3.159  0.00  0.00     0.171 A 
ATOM      6  N2  <0> d          -1.228   0.721  -2.061  0.00  0.00    -0.211 NA
ATOM      7  O2  <0> d          -1.639   4.585  -2.670  0.00  0.00    -0.268 OA
ATOM      8  H4  <0> d          -2.576   2.805  -4.288  0.00  0.00     0.099 H 
ATOM      9  H8  <0> d          -0.496   3.532  -0.758  0.00  0.00     0.170 HD
ENDROOT
BRANCH   5  10
ATOM     10  O1  <0> d          -2.387   0.200  -4.020  0.00  0.00    -0.339 OA
BRANCH  10  11
ATOM     11  C6  <0> d          -2.179  -1.177  -3.696  0.00  0.00     0.012 C 
ATOM     12  H5  <0> d          -1.109  -1.379  -3.640  0.00  0.00     0.067 H 
ATOM     13  H6  <0> d          -2.641  -1.397  -2.734  0.00  0.00     0.067 H 
ATOM     14  H7  <0> d          -2.627  -1.803  -4.467  0.00  0.00     0.067 H 
ENDBRANCH  10  11
ENDBRANCH   5  10
BRANCH   1  15
ATOM     15  C1  <0> d          -0.013   1.086   0.008  0.00  0.00    -0.021 C 
ATOM     16  H1  <0> d           0.002  -0.004   0.002  0.00  0.00     0.037 H 
ATOM     17  H2  <0> d           1.010   1.463   0.000  0.00  0.00     0.037 H 
ATOM     18  H3  <0> d          -0.523   1.437   0.905  0.00  0.00     0.037 H 
ENDBRANCH   1  15
TORSDOF 3
