REMARK  3 active torsions:
REMARK  status: ('A' for Active; 'I' for Inactive)
REMARK    1  A    between atoms: C1_1  and  O1_2 
REMARK    2  A    between atoms: O1_2  and  C2_3 
REMARK    3  A    between atoms: C2_3  and  C3_5 
ROOT
ATOM      1  C3  <0> d          -1.342   3.693   0.024  0.00  0.00     0.034 C 
ATOM      2  H1  <0> d          -0.657   4.158   0.732  0.00  0.00     0.056 H 
ATOM      3  C4  <0> d          -0.534   3.159  -1.220  0.00  0.00    -0.049 C 
ATOM      4  C5  <0> d          -0.813   1.625  -1.216  0.00  0.00    -0.053 C 
ATOM      5  H2  <0> d          -0.645   1.108  -2.161  0.00  0.00     0.040 H 
ATOM      6  C6  <0> d          -0.013   1.086   0.008  0.00  0.00    -0.061 C 
ATOM      7  C7  <0> d          -0.783   1.607   1.242  0.00  0.00    -0.060 C 
ATOM      8  C8  <0> d          -1.980   2.413   0.645  0.00  0.00    -0.042 C 
ATOM      9  H3  <0> d          -2.824   2.579   1.315  0.00  0.00     0.041 H 
ATOM     10  C9  <0> d          -2.276   1.578  -0.650  0.00  0.00    -0.058 C 
ATOM     11  H7  <0> d           0.535   3.351  -1.121  0.00  0.00     0.034 H 
ATOM     12  H8  <0> d          -0.919   3.613  -2.133  0.00  0.00     0.034 H 
ATOM     13  H9  <0> d           0.002  -0.004   0.002  0.00  0.00     0.033 H 
ATOM     14  H10 <0> d           1.004   1.479   0.000  0.00  0.00     0.033 H 
ATOM     15  H11 <0> d          -1.147   0.774   1.843  0.00  0.00     0.033 H 
ATOM     16  H12 <0> d          -0.146   2.259   1.841  0.00  0.00     0.033 H 
ATOM     17  H13 <0> d          -2.986   2.081  -1.308  0.00  0.00     0.034 H 
ATOM     18  H14 <0> d          -2.592   0.561  -0.418  0.00  0.00     0.034 H 
ENDROOT
BRANCH   1  19
ATOM     19  C2  <0> d          -2.415   4.669  -0.386  0.00  0.00     0.263 C 
ATOM     20  O2  <0> d          -3.579   4.396  -0.211  0.00  0.00    -0.265 OA
BRANCH  19  21
ATOM     21  O1  <0> d          -2.077   5.841  -0.946  0.00  0.00    -0.326 OA
BRANCH  21  22
ATOM     22  C1  <0> d          -3.163   6.732  -1.315  0.00  0.00     0.013 C 
ATOM     23  H4  <0> d          -2.753   7.641  -1.755  0.00  0.00     0.067 H 
ATOM     24  H5  <0> d          -3.808   6.237  -2.040  0.00  0.00     0.067 H 
ATOM     25  H6  <0> d          -3.741   6.987  -0.427  0.00  0.00     0.067 H 
ENDBRANCH  21  22
ENDBRANCH  19  21
ENDBRANCH   1  19
TORSDOF 3
