REMARK  0 active torsions:
REMARK  status: ('A' for Active; 'I' for Inactive)
ROOT
ATOM      1  C1  <0> d          -0.019   1.519   0.010  0.00  0.00    -0.054 C 
ATOM      2  C2  <0> d           1.382   2.118   0.000  0.00  0.00    -0.027 C 
ATOM      3  C3  <0> d           2.375   1.178   0.633  0.00  0.00     0.023 C 
ATOM      4  N1  <0> d           3.041   1.512   1.678  0.00  0.00    -0.269 NA
ATOM      5  C4  <0> d           3.922   0.665   2.274  0.00  0.00    -0.001 C 
ATOM      6  C5  <0> d           3.902  -0.636   2.023  0.00  0.00    -0.085 C 
ATOM      7  C6  <0> d           2.876  -1.206   1.076  0.00  0.00    -0.034 C 
ATOM      8  C7  <0> d           2.581  -0.177  -0.018  0.00  0.00     0.045 C 
ATOM      9  H1  <0> d           3.390  -0.141  -0.749  0.00  0.00     0.061 H 
ATOM     10  C8  <0> d           1.252  -0.523  -0.668  0.00  0.00     0.136 C 
ATOM     11  O1  <0> d           1.197  -1.186  -1.676  0.00  0.00    -0.297 OA
ATOM     12  C9  <0> d           0.002  -0.004   0.002  0.00  0.00    -0.009 C 
ATOM     13  H2  <0> d          -0.542   1.860   0.904  0.00  0.00     0.034 H 
ATOM     14  H3  <0> d          -0.559   1.870  -0.869  0.00  0.00     0.034 H 
ATOM     15  H4  <0> d           1.681   2.313  -1.030  0.00  0.00     0.042 H 
ATOM     16  H5  <0> d           1.374   3.057   0.554  0.00  0.00     0.042 H 
ATOM     17  H6  <0> d           4.653   1.060   2.964  0.00  0.00     0.114 H 
ATOM     18  H7  <0> d           4.620  -1.288   2.498  0.00  0.00     0.079 H 
ATOM     19  H8  <0> d           3.264  -2.119   0.624  0.00  0.00     0.040 H 
ATOM     20  H9  <0> d           1.960  -1.430   1.622  0.00  0.00     0.040 H 
ATOM     21  H10 <0> d          -0.032  -0.368   1.029  0.00  0.00     0.044 H 
ATOM     22  H11 <0> d          -0.872  -0.371  -0.536  0.00  0.00     0.044 H 
ENDROOT
TORSDOF 0
