REMARK  2 active torsions:
REMARK  status: ('A' for Active; 'I' for Inactive)
REMARK    1  A    between atoms: C1_1  and  N1_2 
REMARK    2  A    between atoms: C4_5  and  N3_7 
ROOT
ATOM      1  N1  <0> d           0.002  -0.004   0.002  0.00  0.00    -0.282 N 
ATOM      2  C2  <0> d           0.008  -0.782  -1.093  0.00  0.00     0.022 A 
ATOM      3  C3  <0> d           0.028  -2.096  -0.670  0.00  0.00     0.108 A 
ATOM      4  C4  <0> d           0.034  -2.078   0.748  0.00  0.00     0.163 A 
ATOM      5  N2  <0> d           0.025  -0.826   1.134  0.00  0.00    -0.154 NA
ATOM      6  C5  <0> d           0.040  -3.258  -1.506  0.00  0.00     0.105 C 
ATOM      7  N4  <0> d           0.050  -4.181  -2.169  0.00  0.00    -0.191 NA
ATOM      8  H4  <0> d          -0.003  -0.441  -2.118  0.00  0.00     0.116 H 
ENDROOT
BRANCH   4   9
ATOM      9  N3  <0> d           0.053  -3.195   1.584  0.00  0.00    -0.381 N 
ATOM     10  H5  <0> d           0.064  -4.087   1.202  0.00  0.00     0.157 HD
ATOM     11  H6  <0> d           0.057  -3.081   2.547  0.00  0.00     0.157 HD
ENDBRANCH   4   9
BRANCH   1  12
ATOM     12  C1  <0> d          -0.018   1.461   0.010  0.00  0.00     0.002 C 
ATOM     13  H1  <0> d           1.005   1.838   0.002  0.00  0.00     0.059 H 
ATOM     14  H2  <0> d          -0.545   1.822  -0.873  0.00  0.00     0.059 H 
ATOM     15  H3  <0> d          -0.528   1.812   0.907  0.00  0.00     0.059 H 
ENDBRANCH   1  12
TORSDOF 2
