REMARK  4 active torsions:
REMARK  status: ('A' for Active; 'I' for Inactive)
REMARK    1  A    between atoms: C1_1  and  C2_2 
REMARK    2  A    between atoms: C3_3  and  N5_10 
REMARK    3  A    between atoms: C4_5  and  N4_9 
REMARK    4  A    between atoms: C5_7  and  N3_8 
ROOT
ATOM      1  C2  <0> d          -0.718   1.572   1.248  0.00  0.00     0.030 A 
ATOM      2  C3  <0> d          -2.092   1.796   1.244  0.00  0.00     0.150 A 
ATOM      3  N1  <0> d          -2.681   2.221   2.360  0.00  0.00    -0.045 NA
ATOM      4  C4  <0> d          -1.976   2.439   3.459  0.00  0.00     0.724 A 
ATOM      5  N2  <0> d          -0.667   2.242   3.498  0.00  0.00    -0.045 NA
ATOM      6  C5  <0> d          -0.011   1.812   2.422  0.00  0.00     0.150 A 
ENDROOT
BRANCH   1   7
ATOM      7  C1  <0> d          -0.013   1.086   0.008  0.00  0.00    -0.044 C 
ATOM      8  H1  <0> d          -0.744   0.958  -0.804  0.00  0.00     0.033 H 
ATOM      9  H2  <0> d           0.475   0.122   0.217  0.00  0.00     0.033 H 
ATOM     10  H3  <0> d           0.746   1.822  -0.295  0.00  0.00     0.033 H 
ENDBRANCH   1   7
BRANCH   6  11
ATOM     11  N3  <0> d           1.360   1.608   2.470  0.00  0.00    -0.383 N 
ATOM     12  H4  <0> d           1.912   1.801   3.402  0.00  0.00     0.157 HD
ATOM     13  H5  <0> d           1.895   1.254   1.577  0.00  0.00     0.157 HD
ENDBRANCH   6  11
BRANCH   2  14
ATOM     14  N5  <0> d          -2.836   1.576   0.096  0.00  0.00    -0.383 N 
ATOM     15  H8  <0> d          -3.921   1.755   0.102  0.00  0.00     0.157 HD
ATOM     16  H9  <0> d          -2.342   1.221  -0.820  0.00  0.00     0.157 HD
ENDBRANCH   2  14
BRANCH   4  17
ATOM     17  N4  <0> d          -2.624   2.886   4.598  0.00  0.00    -0.231 N 
ATOM     18  H6  <0> d          -2.052   3.072   5.519  0.00  0.00     0.174 HD
ATOM     19  H7  <0> d          -3.711   3.054   4.582  0.00  0.00     0.174 HD
ENDBRANCH   4  17
TORSDOF 4
