REMARK  4 active torsions:
REMARK  status: ('A' for Active; 'I' for Inactive)
REMARK    1  A    between atoms: C3_3  and  O4_14 
REMARK    2  A    between atoms: C4_5  and  O3_13 
REMARK    3  A    between atoms: C5_7  and  O2_12 
REMARK    4  A    between atoms: C6_9  and  O1_11 
ROOT
ATOM      1  C1  <0> d          -1.164   1.667   0.017  0.00  0.00    -0.074 C 
ATOM      2  C2  <0> d          -0.013   1.076   0.008  0.00  0.00    -0.074 C 
ATOM      3  C3  <0> d           1.303   1.797  -0.001  0.00  0.00     0.079 C 
ATOM      4  H1  <0> d           2.006   1.282  -0.673  0.00  0.00     0.093 H 
ATOM      5  C4  <0> d           1.101   3.257  -0.415  0.00  0.00     0.091 C 
ATOM      6  H2  <0> d           2.028   3.841  -0.319  0.00  0.00     0.091 H 
ATOM      7  C5  <0> d          -0.039   3.846   0.425  0.00  0.00     0.091 C 
ATOM      8  H3  <0> d           0.154   3.755   1.504  0.00  0.00     0.091 H 
ATOM      9  C6  <0> d          -1.344   3.157   0.021  0.00  0.00     0.079 C 
ATOM     10  H4  <0> d          -1.685   3.493  -0.970  0.00  0.00     0.093 H 
ATOM     11  H5  <0> d          -2.088   1.071   0.022  0.00  0.00     0.080 H 
ATOM     12  H6  <0> d           0.041  -0.023   0.006  0.00  0.00     0.080 H 
ENDROOT
BRANCH   3  13
ATOM     13  O4  <0> d           1.877   1.751   1.307  0.00  0.00    -0.389 OA
ATOM     14  H10 <0> d           2.849   2.230   1.498  0.00  0.00     0.210 HD
ENDBRANCH   3  13
BRANCH   5  15
ATOM     15  O3  <0> d           0.759   3.320  -1.801  0.00  0.00    -0.390 OA
ATOM     16  H9  <0> d           0.576   4.294  -2.278  0.00  0.00     0.210 HD
ENDBRANCH   5  15
BRANCH   7  17
ATOM     17  O2  <0> d          -0.141   5.250   0.179  0.00  0.00    -0.390 OA
ATOM     18  H8  <0> d          -0.908   5.845   0.697  0.00  0.00     0.210 HD
ENDBRANCH   7  17
BRANCH   9  19
ATOM     19  O1  <0> d          -2.372   3.508   0.949  0.00  0.00    -0.389 OA
ATOM     20  H7  <0> d          -2.648   4.563   1.091  0.00  0.00     0.210 HD
ENDBRANCH   9  19
TORSDOF 4
