REMARK  1 active torsions:
REMARK  status: ('A' for Active; 'I' for Inactive)
REMARK    1  A    between atoms: C4_4  and  O2_10 
ROOT
ATOM      1  C1  <0> d          -0.017   1.374   0.010  0.00  0.00    -0.037 A 
ATOM      2  C2  <0> d           1.173   2.084   0.002  0.00  0.00     0.119 A 
ATOM      3  C3  <0> d           2.379   1.405  -0.011  0.00  0.00    -0.011 A 
ATOM      4  C4  <0> d           2.399   0.021  -0.021  0.00  0.00     0.102 A 
ATOM      5  C5  <0> d           1.202  -0.699  -0.018  0.00  0.00     0.108 A 
ATOM      6  C6  <0> d           0.002  -0.004   0.002  0.00  0.00    -0.017 A 
ATOM      7  C7  <0> d          -1.109  -1.036   0.018  0.00  0.00    -0.018 C 
ATOM      8  C8  <0> d          -0.345  -2.323   0.408  0.00  0.00     0.030 C 
ATOM      9  O1  <0> d           0.994  -2.046  -0.037  0.00  0.00    -0.347 OA
ATOM     10  F1  <0> d           1.156   3.435   0.007  0.00  0.00    -0.206 F 
ATOM     11  H1  <0> d          -0.959   1.901   0.017  0.00  0.00     0.089 H 
ATOM     12  H2  <0> d           3.307   1.956  -0.013  0.00  0.00     0.092 H 
ATOM     13  H3  <0> d          -1.870  -0.745   0.757  0.00  0.00     0.043 H 
ATOM     14  H4  <0> d          -1.570  -1.094  -0.979  0.00  0.00     0.043 H 
ATOM     15  H5  <0> d          -0.408  -2.472   1.496  0.00  0.00     0.075 H 
ATOM     16  H6  <0> d          -0.793  -3.186  -0.106  0.00  0.00     0.075 H 
ENDROOT
BRANCH   4  17
ATOM     17  O2  <0> d           3.588  -0.639  -0.033  0.00  0.00    -0.358 OA
ATOM     18  H7  <0> d           3.606  -1.739  -0.041  0.00  0.00     0.217 HD
ENDBRANCH   4  17
TORSDOF 1
