REMARK  7 active torsions:
REMARK  status: ('A' for Active; 'I' for Inactive)
REMARK    1  A    between atoms: C1_1  and  C2_2 
REMARK    2  A    between atoms: C2_2  and  C3_3 
REMARK    3  A    between atoms: C3_3  and  C4_4 
REMARK    4  A    between atoms: C4_4  and  C5_6 
REMARK    5  A    between atoms: C4_4  and  C6_7 
REMARK    6  A    between atoms: C6_7  and  O1_8 
REMARK    7  A    between atoms: O1_8  and  C7_9 
REMARK       I    between atoms: C7_9  and  N1_11 
ROOT
ATOM      1  C4  <0> d           1.125  -2.165  -0.020  0.00  0.00    -0.036 C 
ATOM      2  H1  <0> d           0.489  -2.452  -0.858  0.00  0.00     0.042 H 
ENDROOT
BRANCH   1   3
ATOM      3  C3  <0> d           2.490  -2.840  -0.163  0.00  0.00    -0.060 C 
ATOM      4  H7  <0> d           2.994  -2.458  -1.051  0.00  0.00     0.033 H 
ATOM      5  H8  <0> d           3.096  -2.625   0.718  0.00  0.00     0.033 H 
BRANCH   3   6
ATOM      6  C2  <0> d           2.301  -4.352  -0.294  0.00  0.00    -0.068 C 
ATOM      7  H5  <0> d           1.798  -4.734   0.594  0.00  0.00     0.032 H 
ATOM      8  H6  <0> d           1.696  -4.567  -1.175  0.00  0.00     0.032 H 
BRANCH   6   9
ATOM      9  C1  <0> d           3.667  -5.027  -0.437  0.00  0.00    -0.077 C 
ATOM     10  H2  <0> d           4.170  -4.645  -1.325  0.00  0.00     0.027 H 
ATOM     11  H3  <0> d           4.272  -4.812   0.444  0.00  0.00     0.027 H 
ATOM     12  H4  <0> d           3.532  -6.104  -0.531  0.00  0.00     0.027 H 
ENDBRANCH   6   9
ENDBRANCH   3   6
ENDBRANCH   1   3
BRANCH   1  13
ATOM     13  C5  <0> d           0.472  -2.607   1.291  0.00  0.00    -0.071 C 
ATOM     14  H9  <0> d           1.108  -2.320   2.128  0.00  0.00     0.028 H 
ATOM     15  H10 <0> d          -0.501  -2.126   1.392  0.00  0.00     0.028 H 
ATOM     16  H11 <0> d           0.344  -3.689   1.286  0.00  0.00     0.028 H 
ENDBRANCH   1  13
BRANCH   1  17
ATOM     17  C6  <0> d           1.305  -0.646  -0.014  0.00  0.00     0.034 C 
ATOM     18  H12 <0> d           1.849  -0.340  -0.907  0.00  0.00     0.075 H 
ATOM     19  H13 <0> d           1.866  -0.350   0.872  0.00  0.00     0.075 H 
BRANCH  17  20
ATOM     20  O1  <0> d           0.002  -0.004   0.002  0.00  0.00    -0.304 OA
BRANCH  20  21
ATOM     21  C7  <0> d          -0.016   1.342   0.009  0.00  0.00     0.358 C 
ATOM     22  O2  <0> d           1.028   1.964   0.003  0.00  0.00    -0.239 OA
ATOM     23  N1  <0> d          -1.192   2.000   0.019  0.00  0.00    -0.346 N 
ATOM     24  H14 <0> d          -2.026   1.504   0.020  0.00  0.00     0.161 HD
ATOM     25  H15 <0> d          -1.206   2.970   0.024  0.00  0.00     0.161 HD
ENDBRANCH  20  21
ENDBRANCH  17  20
ENDBRANCH   1  17
TORSDOF 7
