REMARK  9 active torsions:
REMARK  status: ('A' for Active; 'I' for Inactive)
REMARK    1  A    between atoms: C1_1  and  C2_2 
REMARK    2  A    between atoms: C2_2  and  C3_3 
REMARK    3  A    between atoms: C3_3  and  C4_4 
REMARK    4  A    between atoms: C4_4  and  C5_5 
REMARK    5  A    between atoms: C5_5  and  C6_7 
REMARK    6  A    between atoms: C5_5  and  O1_12 
REMARK    7  A    between atoms: C6_7  and  C7_8 
REMARK    8  A    between atoms: C6_7  and  C8_9 
REMARK    9  A    between atoms: C6_7  and  C9_10 
ROOT
ATOM      1  C5  <0> d          -2.119   1.424   1.269  0.00  0.00     0.045 C 
ATOM      2  H1  <0> d          -1.547   1.690   2.158  0.00  0.00     0.084 H 
ENDROOT
BRANCH   1   3
ATOM      3  C4  <0> d          -3.454   2.171   1.280  0.00  0.00    -0.040 C 
ATOM      4  H9  <0> d          -3.272   3.242   1.195  0.00  0.00     0.036 H 
ATOM      5  H10 <0> d          -4.063   1.839   0.439  0.00  0.00     0.036 H 
BRANCH   3   6
ATOM      6  C3  <0> d          -4.191   1.881   2.589  0.00  0.00    -0.063 C 
ATOM      7  H7  <0> d          -4.373   0.810   2.673  0.00  0.00     0.033 H 
ATOM      8  H8  <0> d          -3.582   2.213   3.430  0.00  0.00     0.033 H 
BRANCH   6   9
ATOM      9  C2  <0> d          -5.526   2.628   2.599  0.00  0.00    -0.068 C 
ATOM     10  H5  <0> d          -5.344   3.699   2.515  0.00  0.00     0.032 H 
ATOM     11  H6  <0> d          -6.135   2.295   1.758  0.00  0.00     0.032 H 
BRANCH   9  12
ATOM     12  C1  <0> d          -6.263   2.338   3.909  0.00  0.00    -0.077 C 
ATOM     13  H2  <0> d          -6.445   1.266   3.993  0.00  0.00     0.027 H 
ATOM     14  H3  <0> d          -5.654   2.670   4.749  0.00  0.00     0.027 H 
ATOM     15  H4  <0> d          -7.214   2.870   3.916  0.00  0.00     0.027 H 
ENDBRANCH   9  12
ENDBRANCH   6   9
ENDBRANCH   3   6
ENDBRANCH   1   3
BRANCH   1  16
ATOM     16  C6  <0> d          -1.328   1.812   0.018  0.00  0.00    -0.005 C 
BRANCH  16  17
ATOM     17  C7  <0> d          -1.069   3.319   0.025  0.00  0.00    -0.064 C 
ATOM     18  H11 <0> d          -0.505   3.595  -0.866  0.00  0.00     0.028 H 
ATOM     19  H12 <0> d          -2.020   3.852   0.033  0.00  0.00     0.028 H 
ATOM     20  H13 <0> d          -0.496   3.586   0.914  0.00  0.00     0.028 H 
ENDBRANCH  16  17
BRANCH  16  21
ATOM     21  C8  <0> d          -2.131   1.438  -1.229  0.00  0.00    -0.064 C 
ATOM     22  H14 <0> d          -2.316   0.364  -1.234  0.00  0.00     0.028 H 
ATOM     23  H15 <0> d          -3.082   1.970  -1.222  0.00  0.00     0.028 H 
ATOM     24  H16 <0> d          -1.567   1.714  -2.120  0.00  0.00     0.028 H 
ENDBRANCH  16  21
BRANCH  16  25
ATOM     25  C9  <0> d          -0.013   1.076   0.008  0.00  0.00    -0.102 C 
ATOM     26  C10 <0> d           1.113   1.746   0.001  0.00  0.00    -0.124 C 
ATOM     27  H18 <0> d           1.098   2.826   0.007  0.00  0.00     0.066 H 
ATOM     28  H19 <0> d           2.055   1.219  -0.011  0.00  0.00     0.066 H 
ATOM     29  H17 <0> d           0.002  -0.004   0.002  0.00  0.00     0.076 H 
ENDBRANCH  16  25
ENDBRANCH   1  16
BRANCH   1  30
ATOM     30  O1  <0> d          -2.361   0.016   1.263  0.00  0.00    -0.395 OA
ATOM     31  H20 <0> d          -2.867  -0.293   0.498  0.00  0.00     0.210 HD
ENDBRANCH   1  30
TORSDOF 9
