REMARK  1 active torsions:
REMARK  status: ('A' for Active; 'I' for Inactive)
REMARK    1  A    between atoms: C1_1  and  C2_2 
ROOT
ATOM      1  C2  <0> d           1.159   3.822   0.012  0.00  0.00    -0.059 A 
ATOM      2  C3  <0> d          -0.039   4.507   0.027  0.00  0.00    -0.057 A 
ATOM      3  C4  <0> d          -1.243   3.801   0.034  0.00  0.00     0.046 A 
ATOM      4  C5  <0> d          -1.227   2.404   0.021  0.00  0.00    -0.042 A 
ATOM      5  C6  <0> d          -0.021   1.732   0.012  0.00  0.00     0.036 A 
ATOM      6  C7  <0> d           1.169   2.439   0.004  0.00  0.00    -0.056 A 
ATOM      7 Cl1  <0> d           0.002  -0.004   0.002  0.00  0.00    -0.084 Cl
ATOM      8  C8  <0> d          -2.490   4.505   0.050  0.00  0.00     0.099 C 
ATOM      9  N1  <0> d          -3.479   5.064   0.063  0.00  0.00    -0.191 NA
ATOM     10  H4  <0> d          -0.045   5.587   0.034  0.00  0.00     0.086 H 
ATOM     11  H5  <0> d          -2.155   1.852   0.022  0.00  0.00     0.088 H 
ATOM     12  H6  <0> d           2.110   1.909  -0.008  0.00  0.00     0.086 H 
ENDROOT
BRANCH   1  13
ATOM     13  C1  <0> d           2.459   4.584   0.004  0.00  0.00    -0.051 C 
ATOM     14  H1  <0> d           2.252   5.664   0.012  0.00  0.00     0.033 H 
ATOM     15  H2  <0> d           3.029   4.327  -0.902  0.00  0.00     0.033 H 
ATOM     16  H3  <0> d           3.047   4.316   0.894  0.00  0.00     0.033 H 
ENDBRANCH   1  13
TORSDOF 1
