REMARK  5 active torsions:
REMARK  status: ('A' for Active; 'I' for Inactive)
REMARK    1  A    between atoms: C1_1  and  C2_2 
REMARK    2  A    between atoms: C2_2  and  C3_3 
REMARK    3  A    between atoms: C3_3  and  C4_5 
REMARK    4  A    between atoms: C4_5  and  C5_7 
REMARK    5  A    between atoms: C4_5  and  C6_8 
ROOT
ATOM      1  C4  <0> d           0.002  -0.004   0.002  0.00  0.00     0.048 C 
ATOM      2  H1  <0> d           0.470  -0.327  -0.821  0.00  0.00     0.058 H 
ENDROOT
BRANCH   1   3
ATOM      3  C3  <0> d          -1.412  -0.526   0.013  0.00  0.00     0.135 C 
ATOM      4  O1  <0> d          -2.302   0.152   0.467  0.00  0.00    -0.297 OA
BRANCH   3   5
ATOM      5  C2  <0> d          -1.715  -1.893  -0.543  0.00  0.00    -0.013 C 
ATOM      6  H5  <0> d          -1.452  -1.927  -1.508  0.00  0.00     0.043 H 
ATOM      7  H6  <0> d          -1.153  -2.644   0.012  0.00  0.00     0.043 H 
BRANCH   5   8
ATOM      8  C1  <0> d          -3.212  -2.177  -0.412  0.00  0.00    -0.070 C 
ATOM      9  H2  <0> d          -3.774  -1.426  -0.968  0.00  0.00     0.028 H 
ATOM     10  H3  <0> d          -3.431  -3.166  -0.815  0.00  0.00     0.028 H 
ATOM     11  H4  <0> d          -3.498  -2.140   0.639  0.00  0.00     0.028 H 
ENDBRANCH   5   8
ENDBRANCH   3   5
ENDBRANCH   1   3
BRANCH   1  12
ATOM     12  C5  <0> d           0.742  -0.511   1.242  0.00  0.00    -0.062 C 
ATOM     13  H7  <0> d           1.765  -0.134   1.234  0.00  0.00     0.028 H 
ATOM     14  H8  <0> d           0.232  -0.159   2.138  0.00  0.00     0.028 H 
ATOM     15  H9  <0> d           0.757  -1.601   1.236  0.00  0.00     0.028 H 
ENDBRANCH   1  12
BRANCH   1  16
ATOM     16  C6  <0> d          -0.019   1.526   0.010  0.00  0.00     0.140 C 
ATOM     17  O3  <0> d           1.325   2.026   0.000  0.00  0.00    -0.358 OA
ATOM     18  C8  <0> d           1.471   2.837  -1.183  0.00  0.00     0.042 C 
ATOM     19  C7  <0> d           0.010   3.211  -1.534  0.00  0.00     0.042 C 
ATOM     20  H13 <0> d           2.056   3.731  -0.966  0.00  0.00     0.077 H 
ATOM     21  H14 <0> d           1.929   2.264  -1.989  0.00  0.00     0.077 H 
ATOM     22  O2  <0> d          -0.700   2.006  -1.161  0.00  0.00    -0.358 OA
ATOM     23  H11 <0> d          -0.329   4.062  -0.943  0.00  0.00     0.077 H 
ATOM     24  H12 <0> d          -0.096   3.413  -2.600  0.00  0.00     0.077 H 
ATOM     25  H10 <0> d          -0.534   1.880   0.903  0.00  0.00     0.130 H 
ENDBRANCH   1  16
TORSDOF 5
