REMARK  5 active torsions:
REMARK  status: ('A' for Active; 'I' for Inactive)
REMARK    1  A    between atoms: C1_1  and  C2_2 
REMARK    2  A    between atoms: C2_2  and  C3_3 
REMARK    3  A    between atoms: C2_2  and  C4_4 
REMARK    4  A    between atoms: C4_4  and  C5_5 
REMARK    5  A    between atoms: C7_7  and  N2_10 
ROOT
ATOM      1  C4  <0> d          -1.433  -0.534   0.013  0.00  0.00    -0.020 C 
ATOM      2  H8  <0> d          -1.419  -1.620   0.097  0.00  0.00     0.043 H 
ATOM      3  H9  <0> d          -1.970  -0.111   0.862  0.00  0.00     0.043 H 
ENDROOT
BRANCH   1   4
ATOM      4  C2  <0> d           0.002  -0.004   0.002  0.00  0.00    -0.056 C 
ATOM      5  H4  <0> d           0.512  -0.356  -0.895  0.00  0.00     0.039 H 
BRANCH   4   6
ATOM      6  C1  <0> d          -0.019   1.526   0.010  0.00  0.00    -0.073 C 
ATOM      7  H1  <0> d           1.004   1.903   0.003  0.00  0.00     0.028 H 
ATOM      8  H2  <0> d          -0.546   1.887  -0.873  0.00  0.00     0.028 H 
ATOM      9  H3  <0> d          -0.529   1.877   0.907  0.00  0.00     0.028 H 
ENDBRANCH   4   6
BRANCH   4  10
ATOM     10  C3  <0> d           0.742  -0.511   1.242  0.00  0.00    -0.073 C 
ATOM     11  H5  <0> d           0.232  -0.159   2.138  0.00  0.00     0.028 H 
ATOM     12  H6  <0> d           0.757  -1.601   1.236  0.00  0.00     0.028 H 
ATOM     13  H7  <0> d           1.765  -0.134   1.234  0.00  0.00     0.028 H 
ENDBRANCH   4  10
ENDBRANCH   1   4
BRANCH   1  14
ATOM     14  C5  <0> d          -2.125  -0.137  -1.266  0.00  0.00     0.066 A 
ATOM     15  N1  <0> d          -2.239   1.077  -1.729  0.00  0.00    -0.131 NA
ATOM     16  O1  <0> d          -2.953   1.018  -2.951  0.00  0.00    -0.196 OA
ATOM     17  C7  <0> d          -3.260  -0.269  -3.185  0.00  0.00     0.168 A 
ATOM     18  C6  <0> d          -2.761  -1.009  -2.160  0.00  0.00    -0.006 A 
ATOM     19  H10 <0> d          -2.840  -2.081  -2.053  0.00  0.00     0.093 H 
BRANCH  17  20
ATOM     20  N2  <0> d          -3.958  -0.754  -4.275  0.00  0.00    -0.378 N 
ATOM     21  H11 <0> d          -4.131  -1.706  -4.356  0.00  0.00     0.158 HD
ATOM     22  H12 <0> d          -4.276  -0.144  -4.959  0.00  0.00     0.158 HD
ENDBRANCH  17  20
ENDBRANCH   1  14
TORSDOF 5
