REMARK  0 active torsions:
REMARK  status: ('A' for Active; 'I' for Inactive)
ROOT
ATOM      1  C1  <0> d           1.204   3.214   0.017  0.00  0.00    -0.030 C 
ATOM      2  C2  <0> d          -0.153   3.808  -0.371  0.00  0.00     0.023 C 
ATOM      3  O1  <0> d          -1.171   3.147   0.391  0.00  0.00    -0.387 OA
ATOM      4  C3  <0> d          -1.342   1.776   0.018  0.00  0.00     0.034 C 
ATOM      5  C4  <0> d          -0.013   1.076   0.008  0.00  0.00    -0.084 C 
ATOM      6  C5  <0> d           1.120   1.713   0.001  0.00  0.00    -0.103 C 
ATOM      7  H1  <0> d           1.477   3.555   1.026  0.00  0.00     0.042 H 
ATOM      8  H2  <0> d           1.967   3.547  -0.702  0.00  0.00     0.042 H 
ATOM      9  H3  <0> d          -0.159   4.886  -0.151  0.00  0.00     0.074 H 
ATOM     10  H4  <0> d          -0.328   3.653  -1.446  0.00  0.00     0.074 H 
ATOM     11  H5  <0> d          -2.006   1.280   0.741  0.00  0.00     0.080 H 
ATOM     12  H6  <0> d          -1.786   1.722  -0.986  0.00  0.00     0.080 H 
ATOM     13  H7  <0> d          -0.025  -0.024   0.007  0.00  0.00     0.079 H 
ATOM     14  H8  <0> d           2.067   1.152  -0.018  0.00  0.00     0.076 H 
ENDROOT
TORSDOF 0
