REMARK  1 active torsions:
REMARK  status: ('A' for Active; 'I' for Inactive)
REMARK    1  A    between atoms: C1_1  and  C2_2 
ROOT
ATOM      1  C2  <0> d           1.161   2.039   0.002  0.00  0.00    -0.041 A 
ATOM      2  C3  <0> d           2.372   1.363  -0.013  0.00  0.00    -0.035 A 
ATOM      3  C4  <0> d           2.353  -0.024  -0.020  0.00  0.00     0.157 A 
ATOM      4  C5  <0> d           1.133  -0.683  -0.013  0.00  0.00     0.164 A 
ATOM      5  N1  <0> d           0.002  -0.004   0.002  0.00  0.00    -0.245 NA
ATOM      6  C6  <0> d          -0.016   1.315   0.009  0.00  0.00     0.010 A 
ATOM      7 Cl1  <0> d           1.094  -2.418  -0.021  0.00  0.00    -0.059 Cl
ATOM      8  F1  <0> d           3.509  -0.724  -0.034  0.00  0.00    -0.203 F 
ATOM      9  H4  <0> d           3.306   1.904  -0.019  0.00  0.00     0.089 H 
ATOM     10  H5  <0> d          -0.962   1.835   0.017  0.00  0.00     0.115 H 
ENDROOT
BRANCH   1  11
ATOM     11  C1  <0> d           1.128   3.546   0.010  0.00  0.00    -0.050 C 
ATOM     12  H1  <0> d           1.130   3.904   1.039  0.00  0.00     0.033 H 
ATOM     13  H2  <0> d           2.006   3.931  -0.510  0.00  0.00     0.033 H 
ATOM     14  H3  <0> d           0.226   3.893  -0.494  0.00  0.00     0.033 H 
ENDBRANCH   1  11
TORSDOF 1
