REMARK  0 active torsions:
REMARK  status: ('A' for Active; 'I' for Inactive)
ROOT
ATOM      1  C1  <0> d          -0.791   3.122  -1.213  0.00  0.00    -0.065 C 
ATOM      2  C2  <0> d          -0.753   1.593  -1.233  0.00  0.00    -0.064 C 
ATOM      3  C3  <0> d          -0.013   1.086   0.008  0.00  0.00    -0.050 C 
ATOM      4  C4  <0> d          -0.726   1.577   1.263  0.00  0.00     0.042 C 
ATOM      5  C5  <0> d          -0.790   3.100   1.286  0.00  0.00    -0.050 C 
ATOM      6  C6  <0> d          -1.527   3.600   0.041  0.00  0.00    -0.064 C 
ATOM      7  C7  <0> d           0.001   1.060   2.520  0.00  0.00    -0.035 C 
ATOM      8  C8  <0> d          -0.796  -0.226   2.836  0.00  0.00    -0.004 C 
ATOM      9  N1  <0> d          -2.126  -0.017   2.248  0.00  0.00    -0.360 N 
ATOM     10  C9  <0> d          -2.111   0.987   1.352  0.00  0.00     0.226 C 
ATOM     11  O1  <0> d          -3.070   1.361   0.710  0.00  0.00    -0.273 OA
ATOM     12  H1  <0> d          -1.316   3.487  -2.108  0.00  0.00     0.033 H 
ATOM     13  H2  <0> d           0.237   3.514  -1.205  0.00  0.00     0.033 H 
ATOM     14  H3  <0> d          -1.780   1.200  -1.233  0.00  0.00     0.033 H 
ATOM     15  H4  <0> d          -0.230   1.251  -2.138  0.00  0.00     0.033 H 
ATOM     16  H5  <0> d           0.002  -0.014   0.002  0.00  0.00     0.034 H 
ATOM     17  H6  <0> d           1.019   1.466   0.000  0.00  0.00     0.034 H 
ATOM     18  H7  <0> d          -1.327   3.431   2.187  0.00  0.00     0.034 H 
ATOM     19  H8  <0> d           0.231   3.510   1.296  0.00  0.00     0.034 H 
ATOM     20  H9  <0> d          -1.560   4.700   0.050  0.00  0.00     0.033 H 
ATOM     21  H10 <0> d          -2.553   3.203   0.037  0.00  0.00     0.033 H 
ATOM     22  H11 <0> d           1.057   0.868   2.280  0.00  0.00     0.037 H 
ATOM     23  H12 <0> d          -0.062   1.816   3.317  0.00  0.00     0.037 H 
ATOM     24  H13 <0> d          -0.289  -1.091   2.385  0.00  0.00     0.064 H 
ATOM     25  H14 <0> d          -0.856  -0.362   3.926  0.00  0.00     0.064 H 
ATOM     26  H15 <0> d          -2.970  -0.649   2.560  0.00  0.00     0.162 HD
ENDROOT
TORSDOF 0
