REMARK  4 active torsions:
REMARK  status: ('A' for Active; 'I' for Inactive)
REMARK    1  A    between atoms: C1_1  and  O1_2 
REMARK    2  A    between atoms: O1_2  and  C2_3 
REMARK    3  A    between atoms: C2_3  and  C3_5 
REMARK    4  A    between atoms: C6_8  and  N2_11 
ROOT
ATOM      1  C3  <0> d          -1.247  -2.105   0.003  0.00  0.00     0.057 A 
ATOM      2  C4  <0> d          -2.484  -2.770   0.005  0.00  0.00    -0.062 A 
ATOM      3  C5  <0> d          -2.490  -4.138  -0.002  0.00  0.00    -0.038 A 
ATOM      4  C6  <0> d          -1.278  -4.827  -0.011  0.00  0.00     0.120 A 
ATOM      5  N1  <0> d          -0.123  -4.175  -0.013  0.00  0.00    -0.243 NA
ATOM      6  C7  <0> d          -0.072  -2.859  -0.013  0.00  0.00     0.020 A 
ATOM      7  H4  <0> d          -3.410  -2.214   0.013  0.00  0.00     0.085 H 
ATOM      8  H5  <0> d          -3.424  -4.679   0.000  0.00  0.00     0.089 H 
ATOM      9  H6  <0> d           0.885  -2.360  -0.019  0.00  0.00     0.116 H 
ENDROOT
BRANCH   1  10
ATOM     10  C2  <0> d          -1.190  -0.632   0.010  0.00  0.00     0.294 C 
ATOM     11  O2  <0> d          -2.218   0.016   0.023  0.00  0.00    -0.259 OA
BRANCH  10  12
ATOM     12  O1  <0> d           0.002  -0.004   0.002  0.00  0.00    -0.322 OA
BRANCH  12  13
ATOM     13  C1  <0> d          -0.017   1.425   0.010  0.00  0.00     0.013 C 
ATOM     14  H1  <0> d           1.005   1.802   0.002  0.00  0.00     0.067 H 
ATOM     15  H2  <0> d          -0.544   1.786  -0.873  0.00  0.00     0.067 H 
ATOM     16  H3  <0> d          -0.527   1.776   0.907  0.00  0.00     0.067 H 
ENDBRANCH  12  13
ENDBRANCH  10  12
ENDBRANCH   1  10
BRANCH   4  17
ATOM     17  N2  <0> d          -1.280  -6.211  -0.018  0.00  0.00    -0.384 N 
ATOM     18  H7  <0> d          -2.120  -6.695  -0.016  0.00  0.00     0.157 HD
ATOM     19  H8  <0> d          -0.440  -6.697  -0.024  0.00  0.00     0.157 HD
ENDBRANCH   4  17
TORSDOF 4
