REMARK  4 active torsions:
REMARK  status: ('A' for Active; 'I' for Inactive)
REMARK    1  A    between atoms: C1_1  and  O1_2 
REMARK    2  A    between atoms: O1_2  and  C2_3 
REMARK    3  A    between atoms: C7_8  and  C8_9 
REMARK    4  A    between atoms: C8_9  and  C9_10 
ROOT
ATOM      1  C2  <0> d          -2.956   0.216  -1.025  0.00  0.00     0.074 A 
ATOM      2  C3  <0> d          -3.731  -0.205  -2.097  0.00  0.00    -0.050 A 
ATOM      3  C4  <0> d          -3.716   0.509  -3.280  0.00  0.00    -0.080 A 
ATOM      4  C5  <0> d          -2.931   1.641  -3.396  0.00  0.00    -0.082 A 
ATOM      5  C6  <0> d          -2.163   2.065  -2.328  0.00  0.00    -0.074 A 
ATOM      6  C7  <0> d          -2.170   1.352  -1.144  0.00  0.00    -0.021 A 
ATOM      7  H4  <0> d          -4.344  -1.089  -2.007  0.00  0.00     0.087 H 
ATOM      8  H5  <0> d          -4.319   0.182  -4.114  0.00  0.00     0.083 H 
ATOM      9  H6  <0> d          -2.921   2.198  -4.321  0.00  0.00     0.083 H 
ATOM     10  H7  <0> d          -1.554   2.952  -2.419  0.00  0.00     0.084 H 
ENDROOT
BRANCH   6  11
ATOM     11  C8  <0> d          -1.328   1.812   0.018  0.00  0.00    -0.024 C 
ATOM     12  H8  <0> d          -1.853   1.605   0.951  0.00  0.00     0.046 H 
ATOM     13  H9  <0> d          -1.145   2.883  -0.066  0.00  0.00     0.046 H 
BRANCH  11  14
ATOM     14  C9  <0> d          -0.013   1.076   0.008  0.00  0.00    -0.108 C 
ATOM     15  C10 <0> d           1.113   1.746   0.001  0.00  0.00    -0.124 C 
ATOM     16  H11 <0> d           2.055   1.219  -0.011  0.00  0.00     0.066 H 
ATOM     17  H12 <0> d           1.098   2.826   0.007  0.00  0.00     0.066 H 
ATOM     18  H10 <0> d           0.002  -0.004   0.002  0.00  0.00     0.076 H 
ENDBRANCH  11  14
ENDBRANCH   6  11
BRANCH   1  19
ATOM     19  O1  <0> d          -2.969  -0.484   0.140  0.00  0.00    -0.355 OA
BRANCH  19  20
ATOM     20  C1  <0> d          -3.802  -1.644   0.191  0.00  0.00     0.010 C 
ATOM     21  H1  <0> d          -4.838  -1.355   0.011  0.00  0.00     0.066 H 
ATOM     22  H2  <0> d          -3.485  -2.353  -0.574  0.00  0.00     0.066 H 
ATOM     23  H3  <0> d          -3.720  -2.108   1.173  0.00  0.00     0.066 H 
ENDBRANCH  19  20
ENDBRANCH   1  19
TORSDOF 4
