REMARK  3 active torsions:
REMARK  status: ('A' for Active; 'I' for Inactive)
REMARK    1  A    between atoms: C1_1  and  C2_2 
REMARK    2  A    between atoms: C2_2  and  C3_4 
REMARK    3  A    between atoms: C2_2  and  N2_7 
REMARK       I    between atoms: C3_4  and  N1_6 
ROOT
ATOM      1  C2  <0> d          -2.502   1.389   0.021  0.00  0.00     0.107 C 
ATOM      2  H1  <0> d          -3.141   2.153   0.462  0.00  0.00     0.090 H 
ENDROOT
BRANCH   1   3
ATOM      3  C1  <0> d          -2.951   1.114  -1.416  0.00  0.00    -0.047 C 
ATOM      4  H2  <0> d          -3.984   0.766  -1.413  0.00  0.00     0.030 H 
ATOM      5  H3  <0> d          -2.878   2.031  -2.001  0.00  0.00     0.030 H 
ATOM      6  H4  <0> d          -2.312   0.350  -1.857  0.00  0.00     0.030 H 
ENDBRANCH   1   3
BRANCH   1   7
ATOM      7  C3  <0> d          -2.603   0.122   0.830  0.00  0.00     0.239 C 
ATOM      8  O1  <0> d          -1.612  -0.345   1.352  0.00  0.00    -0.271 OA
ATOM      9  N1  <0> d          -3.793  -0.493   0.973  0.00  0.00    -0.368 N 
ATOM     10  H5  <0> d          -4.585  -0.120   0.556  0.00  0.00     0.159 HD
ATOM     11  H6  <0> d          -3.858  -1.309   1.494  0.00  0.00     0.159 HD
ENDBRANCH   1   7
BRANCH   1  12
ATOM     12  N2  <0> d          -1.113   1.857   0.017  0.00  0.00    -0.268 N 
ATOM     13  N3  <0> d          -0.694   3.193   0.025  0.00  0.00    -0.184 NA
ATOM     14  C6  <0> d           0.614   3.211   0.013  0.00  0.00     0.023 A 
ATOM     15  C5  <0> d           1.069   1.888   0.002  0.00  0.00    -0.048 A 
ATOM     16  H9  <0> d           1.236   4.094   0.012  0.00  0.00     0.117 H 
ATOM     17  C4  <0> d          -0.013   1.076   0.008  0.00  0.00     0.001 A 
ATOM     18  H8  <0> d           2.102   1.572  -0.009  0.00  0.00     0.087 H 
ATOM     19  H7  <0> d           0.002  -0.004   0.002  0.00  0.00     0.114 H 
ENDBRANCH   1  12
TORSDOF 3
