REMARK  5 active torsions:
REMARK  status: ('A' for Active; 'I' for Inactive)
REMARK    1  A    between atoms: C1_1  and  C2_2 
REMARK    2  A    between atoms: C2_2  and  C3_3 
REMARK    3  A    between atoms: C2_2  and  C4_4 
REMARK    4  A    between atoms: C2_2  and  O3_11 
REMARK    5  A    between atoms: C4_4  and  C5_6 
ROOT
ATOM      1  C2  <0> d           1.280   1.981   0.001  0.00  0.00     0.117 C 
ENDROOT
BRANCH   1   2
ATOM      2  C1  <0> d           2.393   1.116   0.595  0.00  0.00    -0.041 C 
ATOM      3  H1  <0> d           2.506   0.210  -0.001  0.00  0.00     0.032 H 
ATOM      4  H2  <0> d           3.330   1.674   0.589  0.00  0.00     0.032 H 
ATOM      5  H3  <0> d           2.137   0.848   1.620  0.00  0.00     0.032 H 
ENDBRANCH   1   2
BRANCH   1   6
ATOM      6  C3  <0> d           1.640   2.358  -1.438  0.00  0.00    -0.041 C 
ATOM      7  H4  <0> d           0.848   2.975  -1.861  0.00  0.00     0.032 H 
ATOM      8  H5  <0> d           2.577   2.916  -1.444  0.00  0.00     0.032 H 
ATOM      9  H6  <0> d           1.753   1.452  -2.034  0.00  0.00     0.032 H 
ENDBRANCH   1   6
BRANCH   1  10
ATOM     10  C4  <0> d          -0.014   1.210   0.009  0.00  0.00     0.216 C 
ATOM     11  O1  <0> d           0.002  -0.004   0.002  0.00  0.00    -0.287 OA
BRANCH  10  12
ATOM     12  C5  <0> d          -1.248   1.900   0.018  0.00  0.00     0.123 A 
ATOM     13  O2  <0> d          -1.410   3.240   0.032  0.00  0.00    -0.319 OA
ATOM     14  C8  <0> d          -2.716   3.531   0.034  0.00  0.00     0.019 A 
ATOM     15  C7  <0> d          -3.425   2.379   0.031  0.00  0.00    -0.059 A 
ATOM     16  H9  <0> d          -3.137   4.526   0.042  0.00  0.00     0.123 H 
ATOM     17  C6  <0> d          -2.502   1.324   0.021  0.00  0.00    -0.045 A 
ATOM     18  H8  <0> d          -4.501   2.288   0.035  0.00  0.00     0.086 H 
ATOM     19  H7  <0> d          -2.728   0.268   0.016  0.00  0.00     0.088 H 
ENDBRANCH  10  12
ENDBRANCH   1  10
BRANCH   1  20
ATOM     20  O3  <0> d           1.132   3.169   0.781  0.00  0.00    -0.382 OA
ATOM     21  H10 <0> d           0.903   3.006   1.706  0.00  0.00     0.211 HD
ENDBRANCH   1  20
TORSDOF 5
