REMARK  5 active torsions:
REMARK  status: ('A' for Active; 'I' for Inactive)
REMARK    1  A    between atoms: C1_1  and  C2_2 
REMARK    2  A    between atoms: C2_2  and  C3_3 
REMARK    3  A    between atoms: C3_3  and  C4_4 
REMARK    4  A    between atoms: C7_8  and  C10_14 
REMARK    5  A    between atoms: C9_11  and  O1_13 
ROOT
ATOM      1  C4  <0> d          -0.773   3.123  -1.223  0.00  0.00    -0.029 C 
ATOM      2  H1  <0> d           0.249   3.500  -1.231  0.00  0.00     0.043 H 
ATOM      3  C5  <0> d          -1.490   3.616   0.036  0.00  0.00    -0.059 C 
ATOM      4  C6  <0> d          -0.750   3.109   1.275  0.00  0.00    -0.061 C 
ATOM      5  C7  <0> d          -0.729   1.579   1.267  0.00  0.00    -0.055 C 
ATOM      6  H2  <0> d          -0.202   1.218   2.150  0.00  0.00     0.039 H 
ATOM      7  C8  <0> d          -0.013   1.086   0.008  0.00  0.00    -0.038 C 
ATOM      8  C9  <0> d          -0.753   1.593  -1.232  0.00  0.00     0.039 C 
ATOM      9  H3  <0> d          -1.775   1.215  -1.224  0.00  0.00     0.083 H 
ATOM     10  H11 <0> d          -1.504   4.706   0.042  0.00  0.00     0.033 H 
ATOM     11  H12 <0> d          -2.512   3.239   0.043  0.00  0.00     0.033 H 
ATOM     12  H13 <0> d           0.273   3.486   1.268  0.00  0.00     0.033 H 
ATOM     13  H14 <0> d          -1.260   3.461   2.172  0.00  0.00     0.033 H 
ATOM     14  H15 <0> d           0.002  -0.004   0.002  0.00  0.00     0.037 H 
ATOM     15  H16 <0> d           1.010   1.463   0.000  0.00  0.00     0.037 H 
ENDROOT
BRANCH   1  16
ATOM     16  C3  <0> d          -1.513   3.629  -2.463  0.00  0.00    -0.060 C 
ATOM     17  H9  <0> d          -1.057   3.206  -3.357  0.00  0.00     0.033 H 
ATOM     18  H10 <0> d          -2.559   3.326  -2.411  0.00  0.00     0.033 H 
BRANCH  16  19
ATOM     19  C2  <0> d          -1.427   5.156  -2.520  0.00  0.00    -0.068 C 
ATOM     20  H7  <0> d          -1.884   5.579  -1.625  0.00  0.00     0.032 H 
ATOM     21  H8  <0> d          -0.381   5.459  -2.572  0.00  0.00     0.032 H 
BRANCH  19  22
ATOM     22  C1  <0> d          -2.167   5.663  -3.759  0.00  0.00    -0.077 C 
ATOM     23  H4  <0> d          -1.710   5.239  -4.654  0.00  0.00     0.027 H 
ATOM     24  H5  <0> d          -3.213   5.360  -3.707  0.00  0.00     0.027 H 
ATOM     25  H6  <0> d          -2.105   6.750  -3.800  0.00  0.00     0.027 H 
ENDBRANCH  19  22
ENDBRANCH  16  19
ENDBRANCH   1  16
BRANCH   8  26
ATOM     26  O1  <0> d          -0.084   1.132  -2.407  0.00  0.00    -0.395 OA
ATOM     27  H17 <0> d          -0.033   0.169  -2.479  0.00  0.00     0.210 HD
ENDBRANCH   8  26
BRANCH   5  28
ATOM     28  C10 <0> d          -2.164   1.050   1.278  0.00  0.00    -0.073 C 
ATOM     29  H18 <0> d          -2.149  -0.040   1.272  0.00  0.00     0.028 H 
ATOM     30  H19 <0> d          -2.674   1.401   2.175  0.00  0.00     0.028 H 
ATOM     31  H20 <0> d          -2.691   1.411   0.395  0.00  0.00     0.028 H 
ENDBRANCH   5  28
TORSDOF 5
