REMARK  1 active torsions:
REMARK  status: ('A' for Active; 'I' for Inactive)
REMARK    1  A    between atoms: C1_1  and  C2_2 
ROOT
ATOM      1  C2  <0> d           0.002  -0.004   0.002  0.00  0.00     0.026 A 
ATOM      2  C3  <0> d           0.008  -0.798  -1.111  0.00  0.00     0.068 A 
ATOM      3  C4  <0> d           0.030  -2.182  -0.625  0.00  0.00    -0.046 A 
ATOM      4  C5  <0> d           0.035  -2.111   0.718  0.00  0.00    -0.021 A 
ATOM      5  N1  <0> d           0.024  -0.799   1.091  0.00  0.00    -0.368 N 
ATOM      6  H1  <0> d           0.028  -0.483   2.009  0.00  0.00     0.165 HD
ATOM      7  C6  <0> d          -0.005  -0.366  -2.476  0.00  0.00     0.101 C 
ATOM      8  N2  <0> d          -0.015  -0.023  -3.559  0.00  0.00    -0.191 NA
ATOM      9  H5  <0> d           0.039  -3.079  -1.226  0.00  0.00     0.088 H 
ATOM     10  H6  <0> d           0.051  -2.955   1.392  0.00  0.00     0.111 H 
ENDROOT
BRANCH   1  11
ATOM     11  C1  <0> d          -0.018   1.503   0.010  0.00  0.00    -0.036 C 
ATOM     12  H2  <0> d           1.004   1.880   0.003  0.00  0.00     0.035 H 
ATOM     13  H3  <0> d          -0.545   1.864  -0.873  0.00  0.00     0.035 H 
ATOM     14  H4  <0> d          -0.529   1.854   0.907  0.00  0.00     0.035 H 
ENDBRANCH   1  11
TORSDOF 1
