REMARK  1 active torsions:
REMARK  status: ('A' for Active; 'I' for Inactive)
REMARK    1  A    between atoms: C2_2  and  N1_3 
ROOT
ATOM      1  N1  <0> d           0.002  -0.004   0.002  0.00  0.00    -0.162 N 
ATOM      2  N2  <0> d          -0.015   1.283   0.009  0.00  0.00    -0.148 NA
ATOM      3  C3  <0> d           1.231   1.728  -0.000  0.00  0.00     0.109 A 
ATOM      4  C4  <0> d           1.866   2.982   0.000  0.00  0.00    -0.051 A 
ATOM      5  C5  <0> d           3.223   3.045  -0.012  0.00  0.00    -0.081 A 
ATOM      6  C6  <0> d           4.011   1.894  -0.026  0.00  0.00    -0.081 A 
ATOM      7  C7  <0> d           3.461   0.651  -0.028  0.00  0.00    -0.051 A 
ATOM      8  C8  <0> d           2.062   0.514  -0.015  0.00  0.00     0.109 A 
ATOM      9  N3  <0> d           1.196  -0.487  -0.012  0.00  0.00    -0.148 NA
ATOM     10  H4  <0> d           1.279   3.889   0.011  0.00  0.00     0.087 H 
ATOM     11  H5  <0> d           3.705   4.012  -0.011  0.00  0.00     0.083 H 
ATOM     12  H6  <0> d           5.087   1.993  -0.036  0.00  0.00     0.083 H 
ATOM     13  H7  <0> d           4.093  -0.224  -0.038  0.00  0.00     0.087 H 
ENDROOT
BRANCH   1  14
ATOM     14  C2  <0> d          -1.148  -0.791   0.009  0.00  0.00     0.015 C 
ATOM     15  C1  <0> d          -1.048  -2.107   0.001  0.00  0.00    -0.103 C 
ATOM     16  H1  <0> d          -0.074  -2.574  -0.011  0.00  0.00     0.068 H 
ATOM     17  H2  <0> d          -1.939  -2.716   0.007  0.00  0.00     0.068 H 
ATOM     18  H3  <0> d          -2.122  -0.324   0.021  0.00  0.00     0.116 H 
ENDBRANCH   1  14
TORSDOF 1
