REMARK  3 active torsions:
REMARK  status: ('A' for Active; 'I' for Inactive)
REMARK    1  A    between atoms: C7_9  and  C8_11 
REMARK    2  A    between atoms: C8_11  and  C9_13 
REMARK    3  A    between atoms: C9_13  and  O2_14 
ROOT
ATOM      1  C1  <0> d          -0.729   1.334  -1.011  0.00  0.00    -0.061 C 
ATOM      2  C2  <0> d           0.042   0.960   0.276  0.00  0.00    -0.061 C 
ATOM      3  C3  <0> d          -0.771   1.619   1.431  0.00  0.00    -0.044 C 
ATOM      4  H1  <0> d          -0.600   1.210   2.427  0.00  0.00     0.041 H 
ATOM      5  C4  <0> d          -2.232   1.490   0.864  0.00  0.00    -0.058 C 
ATOM      6  C5  <0> d          -1.938   2.184  -0.513  0.00  0.00    -0.053 C 
ATOM      7  H2  <0> d          -2.779   2.264  -1.201  0.00  0.00     0.040 H 
ATOM      8  C6  <0> d          -1.303   3.531  -0.051  0.00  0.00    -0.051 C 
ATOM      9  C7  <0> d          -0.527   3.149   1.256  0.00  0.00     0.010 C 
ATOM     10  H3  <0> d          -0.872   3.635   2.059  0.00  0.00     0.052 H 
ATOM     11  H4  <0> d          -0.097   1.924  -1.675  0.00  0.00     0.033 H 
ATOM     12  H5  <0> d          -1.080   0.435  -1.518  0.00  0.00     0.033 H 
ATOM     13  H6  <0> d           0.070  -0.123   0.400  0.00  0.00     0.033 H 
ATOM     14  H7  <0> d           1.054   1.364   0.243  0.00  0.00     0.033 H 
ATOM     15  H8  <0> d          -2.952   2.053   1.459  0.00  0.00     0.034 H 
ATOM     16  H9  <0> d          -2.534   0.451   0.742  0.00  0.00     0.034 H 
ATOM     17  H10 <0> d          -0.626   3.914  -0.815  0.00  0.00     0.034 H 
ATOM     18  H11 <0> d          -2.082   4.262   0.169  0.00  0.00     0.034 H 
ENDROOT
BRANCH   9  19
ATOM     19  C8  <0> d           0.944   3.431   1.088  0.00  0.00     0.154 C 
ATOM     20  O1  <0> d           1.409   3.567  -0.018  0.00  0.00    -0.295 OA
BRANCH  19  21
ATOM     21  C9  <0> d           1.833   3.543   2.299  0.00  0.00     0.072 C 
ATOM     22  H12 <0> d           1.509   4.288   2.882  0.00  0.00     0.085 H 
ATOM     23  H13 <0> d           1.807   2.607   2.857  0.00  0.00     0.085 H 
BRANCH  21  24
ATOM     24  O2  <0> d           3.173   3.812   1.883  0.00  0.00    -0.394 OA
ATOM     25  H14 <0> d           3.802   3.897   2.612  0.00  0.00     0.209 HD
ENDBRANCH  21  24
ENDBRANCH  19  21
ENDBRANCH   9  19
TORSDOF 3
