REMARK  3 active torsions:
REMARK  status: ('A' for Active; 'I' for Inactive)
REMARK    1  A    between atoms: C1_1  and  C2_2 
REMARK    2  A    between atoms: C2_2  and  C7_12 
REMARK    3  A    between atoms: C3_3  and  C6_9 
REMARK       I    between atoms: C6_9  and  N1_11 
ROOT
ATOM      1  C2  <0> d          -0.203  -0.136  -0.084  0.00  0.00     0.076 C 
ATOM      2  C3  <0> d           0.700  -0.517  -1.279  0.00  0.00     0.061 C 
ATOM      3  H1  <0> d           1.408   0.281  -1.504  0.00  0.00     0.060 H 
ATOM      4  C4  <0> d          -0.341  -0.675  -2.415  0.00  0.00     0.030 C 
ATOM      5  C5  <0> d          -1.629  -0.993  -1.688  0.00  0.00     0.260 C 
ATOM      6  O1  <0> d          -2.618  -1.457  -2.204  0.00  0.00    -0.265 OA
ATOM      7  O2  <0> d          -1.513  -0.686  -0.391  0.00  0.00    -0.310 OA
ATOM      8  H5  <0> d          -0.062  -1.495  -3.077  0.00  0.00     0.049 H 
ATOM      9  H6  <0> d          -0.438   0.254  -2.977  0.00  0.00     0.049 H 
ENDROOT
BRANCH   1  10
ATOM     10  C1  <0> d          -0.287   1.386   0.050  0.00  0.00    -0.047 C 
ATOM     11  H2  <0> d           0.709   1.790   0.235  0.00  0.00     0.031 H 
ATOM     12  H3  <0> d          -0.686   1.811  -0.870  0.00  0.00     0.031 H 
ATOM     13  H4  <0> d          -0.942   1.641   0.883  0.00  0.00     0.031 H 
ENDBRANCH   1  10
BRANCH   1  14
ATOM     14  C7  <0> d           0.341  -0.751   1.207  0.00  0.00    -0.047 C 
ATOM     15  H9  <0> d          -0.262  -0.416   2.051  0.00  0.00     0.031 H 
ATOM     16  H10 <0> d           0.297  -1.838   1.138  0.00  0.00     0.031 H 
ATOM     17  H11 <0> d           1.375  -0.438   1.352  0.00  0.00     0.031 H 
ENDBRANCH   1  14
BRANCH   2  18
ATOM     18  C6  <0> d           1.419  -1.816  -1.020  0.00  0.00     0.223 C 
ATOM     19  O3  <0> d           0.871  -2.871  -1.261  0.00  0.00    -0.273 OA
ATOM     20  N1  <0> d           2.670  -1.806  -0.519  0.00  0.00    -0.370 N 
ATOM     21  H7  <0> d           3.108  -0.962  -0.326  0.00  0.00     0.159 HD
ATOM     22  H8  <0> d           3.133  -2.642  -0.352  0.00  0.00     0.159 HD
ENDBRANCH   2  18
TORSDOF 3
