REMARK  2 active torsions:
REMARK  status: ('A' for Active; 'I' for Inactive)
REMARK    1  A    between atoms: C2_2  and  C4_7 
REMARK    2  A    between atoms: C3_5  and  N2_6 
ROOT
ATOM      1  C1  <0> d          -0.017   1.409   0.010  0.00  0.00    -0.006 A 
ATOM      2  C2  <0> d           1.255   1.844  -0.000  0.00  0.00     0.086 A 
ATOM      3  O1  <0> d           2.064   0.773  -0.013  0.00  0.00    -0.216 OA
ATOM      4  N1  <0> d           1.253  -0.389  -0.012  0.00  0.00    -0.111 NA
ATOM      5  C3  <0> d           0.002  -0.004   0.002  0.00  0.00     0.151 A 
ATOM      6  H1  <0> d          -0.900   2.032   0.026  0.00  0.00     0.093 H 
ENDROOT
BRANCH   2   7
ATOM      7  C4  <0> d           1.697   3.285   0.003  0.00  0.00    -0.005 A 
ATOM      8  C6  <0> d           2.564   3.755   1.173  0.00  0.00    -0.055 A 
ATOM      9  C5  <0> d           3.185   3.568  -0.213  0.00  0.00    -0.055 A 
ATOM     10  H7  <0> d           2.421   4.777   1.526  0.00  0.00     0.034 H 
ATOM     11  H8  <0> d           2.814   3.023   1.940  0.00  0.00     0.034 H 
ATOM     12  H5  <0> d           3.844   2.712  -0.357  0.00  0.00     0.034 H 
ATOM     13  H6  <0> d           3.450   4.466  -0.771  0.00  0.00     0.034 H 
ATOM     14  H4  <0> d           0.983   3.996  -0.413  0.00  0.00     0.050 H 
ENDBRANCH   2   7
BRANCH   5  15
ATOM     15  N2  <0> d          -1.111  -0.838   0.009  0.00  0.00    -0.382 N 
ATOM     16  H2  <0> d          -2.003  -0.457   0.019  0.00  0.00     0.157 HD
ATOM     17  H3  <0> d          -0.995  -1.801   0.002  0.00  0.00     0.157 HD
ENDBRANCH   5  15
TORSDOF 2
