REMARK  2 active torsions:
REMARK  status: ('A' for Active; 'I' for Inactive)
REMARK    1  A    between atoms: C1_1  and  C2_2 
REMARK    2  A    between atoms: C2_2  and  C3_3 
ROOT
ATOM      1  C3  <0> d           0.718  -0.497  -1.257  0.00  0.00     0.372 C 
ATOM      2  N1  <0> d           0.750  -1.979  -1.285  0.00  0.00     0.155 N 
ATOM      3  C4  <0> d           0.107  -2.377  -2.561  0.00  0.00     0.139 C 
ATOM      4  C5  <0> d           0.214  -1.090  -3.417  0.00  0.00     0.050 C 
ATOM      5  O1  <0> d           0.028  -0.046  -2.434  0.00  0.00    -0.329 OA
ATOM      6  C6  <0> d           2.184  -2.355  -1.312  0.00  0.00     0.139 C 
ATOM      7  C7  <0> d           2.880  -1.091  -0.749  0.00  0.00     0.050 C 
ATOM      8  O2  <0> d           2.075  -0.023  -1.279  0.00  0.00    -0.329 OA
ATOM      9  H6  <0> d           0.656  -3.224  -2.999  0.00  0.00     0.083 H 
ATOM     10  H7  <0> d          -0.934  -2.673  -2.370  0.00  0.00     0.083 H 
ATOM     11  H8  <0> d           1.202  -1.052  -3.900  0.00  0.00     0.077 H 
ATOM     12  H9  <0> d          -0.571  -1.097  -4.188  0.00  0.00     0.077 H 
ATOM     13  H10 <0> d           2.342  -3.243  -0.683  0.00  0.00     0.083 H 
ATOM     14  H11 <0> d           2.484  -2.580  -2.346  0.00  0.00     0.083 H 
ATOM     15  H12 <0> d           2.871  -1.126   0.350  0.00  0.00     0.077 H 
ATOM     16  H13 <0> d           3.920  -1.056  -1.106  0.00  0.00     0.077 H 
ENDROOT
BRANCH   1  17
ATOM     17  C2  <0> d           0.002  -0.004   0.002  0.00  0.00     0.014 C 
ATOM     18  H4  <0> d           0.534  -0.368   0.893  0.00  0.00     0.043 H 
ATOM     19  H5  <0> d          -1.030  -0.385   0.010  0.00  0.00     0.043 H 
BRANCH  17  20
ATOM     20  C1  <0> d          -0.019   1.526   0.010  0.00  0.00    -0.070 C 
ATOM     21  H1  <0> d          -0.534   1.881   0.915  0.00  0.00     0.027 H 
ATOM     22  H2  <0> d          -0.551   1.890  -0.881  0.00  0.00     0.027 H 
ATOM     23  H3  <0> d           1.013   1.907   0.003  0.00  0.00     0.027 H 
ENDBRANCH  17  20
ENDBRANCH   1  17
TORSDOF 2
