REMARK  4 active torsions:
REMARK  status: ('A' for Active; 'I' for Inactive)
REMARK    1  A    between atoms: C1_1  and  C2_2 
REMARK    2  A    between atoms: C1_1  and  O2_7 
REMARK    3  A    between atoms: C2_2  and  C3_4 
REMARK    4  A    between atoms: C2_2  and  O1_6 
ROOT
ATOM      1  C2  <0> d          -0.729   1.579   1.267  0.00  0.00     0.080 C 
ATOM      2  H1  <0> d          -0.822   2.665   1.230  0.00  0.00     0.089 H 
ENDROOT
BRANCH   1   3
ATOM      3  C1  <0> d          -0.013   1.086   0.008  0.00  0.00     0.043 C 
ATOM      4  H2  <0> d           0.002  -0.004   0.002  0.00  0.00     0.078 H 
ATOM      5  H3  <0> d           1.010   1.463   0.000  0.00  0.00     0.078 H 
BRANCH   3   6
ATOM      6  O2  <0> d          -0.704   1.559  -1.150  0.00  0.00    -0.398 OA
ATOM      7  H7  <0> d          -0.304   1.284  -1.986  0.00  0.00     0.209 HD
ENDBRANCH   3   6
ENDBRANCH   1   3
BRANCH   1   8
ATOM      8  C3  <0> d           0.079   1.179   2.503  0.00  0.00     0.084 C 
ATOM      9  F1  <0> d          -0.515   1.727   3.645  0.00  0.00    -0.253 F 
ATOM     10  H4  <0> d           0.097   0.092   2.589  0.00  0.00     0.086 H 
ATOM     11  H5  <0> d           1.098   1.553   2.408  0.00  0.00     0.086 H 
ENDBRANCH   1   8
BRANCH   1  12
ATOM     12  O1  <0> d          -2.030   0.991   1.336  0.00  0.00    -0.391 OA
ATOM     13  H6  <0> d          -2.023   0.025   1.372  0.00  0.00     0.210 HD
ENDBRANCH   1  12
TORSDOF 4
