REMARK  1 active torsions:
REMARK  status: ('A' for Active; 'I' for Inactive)
REMARK    1  A    between atoms: C5_6  and  C6_7 
ROOT
ATOM      1  C6  <0> d          -1.287  -0.784   0.010  0.00  0.00     0.040 C 
ATOM      2  C7  <0> d          -1.720  -1.030  -1.375  0.00  0.00     0.063 C 
ATOM      3  N2  <0> d          -2.055  -1.221  -2.444  0.00  0.00    -0.197 NA
ATOM      4  H4  <0> d          -1.133  -1.736   0.517  0.00  0.00     0.062 H 
ATOM      5  H5  <0> d          -2.054  -0.213   0.534  0.00  0.00     0.062 H 
ENDROOT
BRANCH   1   6
ATOM      6  C5  <0> d           0.002  -0.004   0.002  0.00  0.00    -0.027 A 
ATOM      7  C1  <0> d          -0.017   1.383   0.010  0.00  0.00    -0.070 A 
ATOM      8  C2  <0> d           1.192   2.059   0.002  0.00  0.00    -0.026 A 
ATOM      9  H1  <0> d          -0.952   1.923   0.026  0.00  0.00     0.084 H 
ATOM     10  C3  <0> d           2.372   1.333  -0.013  0.00  0.00     0.209 A 
ATOM     11  H2  <0> d           1.215   3.139   0.007  0.00  0.00     0.090 H 
ATOM     12  N1  <0> d           2.350   0.013  -0.021  0.00  0.00    -0.232 NA
ATOM     13  F1  <0> d           3.556   1.982  -0.021  0.00  0.00    -0.184 F 
ATOM     14  C4  <0> d           1.217  -0.662  -0.014  0.00  0.00     0.012 A 
ATOM     15  H3  <0> d           1.238  -1.742  -0.020  0.00  0.00     0.115 H 
ENDBRANCH   1   6
TORSDOF 1
