REMARK  4 active torsions:
REMARK  status: ('A' for Active; 'I' for Inactive)
REMARK    1  A    between atoms: C1_1  and  C2_2 
REMARK    2  A    between atoms: C2_2  and  C3_3 
REMARK    3  A    between atoms: C2_2  and  C4_4 
REMARK    4  A    between atoms: C2_2  and  C5_5 
ROOT
ATOM      1  C2  <0> d          -0.729   1.579   1.267  0.00  0.00    -0.009 C 
ENDROOT
BRANCH   1   2
ATOM      2  C1  <0> d          -0.013   1.086   0.008  0.00  0.00    -0.064 C 
ATOM      3  H2  <0> d           0.002  -0.004   0.002  0.00  0.00     0.028 H 
ATOM      4  H3  <0> d           1.010   1.463   0.000  0.00  0.00     0.028 H 
ATOM      5  H4  <0> d          -0.540   1.447  -0.875  0.00  0.00     0.028 H 
ENDBRANCH   1   2
BRANCH   1   6
ATOM      6  C3  <0> d          -0.750   3.109   1.275  0.00  0.00    -0.064 C 
ATOM      7  H5  <0> d          -1.277   3.470   0.392  0.00  0.00     0.028 H 
ATOM      8  H6  <0> d          -1.260   3.461   2.172  0.00  0.00     0.028 H 
ATOM      9  H7  <0> d           0.273   3.486   1.268  0.00  0.00     0.028 H 
ENDBRANCH   1   6
BRANCH   1  10
ATOM     10  C4  <0> d          -2.164   1.050   1.278  0.00  0.00    -0.064 C 
ATOM     11  H8  <0> d          -2.149  -0.040   1.272  0.00  0.00     0.028 H 
ATOM     12  H9  <0> d          -2.674   1.401   2.175  0.00  0.00     0.028 H 
ATOM     13  H10 <0> d          -2.691   1.411   0.395  0.00  0.00     0.028 H 
ENDBRANCH   1  10
BRANCH   1  14
ATOM     14  C5  <0> d           0.000   1.080   2.488  0.00  0.00     0.016 A 
ATOM     15  N1  <0> d           1.297   1.350   2.811  0.00  0.00    -0.369 N 
ATOM     16  C8  <0> d           1.595   0.724   3.985  0.00  0.00    -0.023 A 
ATOM     17  H1  <0> d           1.907   1.897   2.291  0.00  0.00     0.165 HD
ATOM     18  C7  <0> d           0.496   0.063   4.401  0.00  0.00    -0.066 A 
ATOM     19  H13 <0> d           2.547   0.753   4.493  0.00  0.00     0.111 H 
ATOM     20  C6  <0> d          -0.520   0.294   3.452  0.00  0.00    -0.059 A 
ATOM     21  H12 <0> d           0.409  -0.530   5.299  0.00  0.00     0.085 H 
ATOM     22  H11 <0> d          -1.528  -0.090   3.489  0.00  0.00     0.086 H 
ENDBRANCH   1  14
TORSDOF 4
