REMARK  2 active torsions:
REMARK  status: ('A' for Active; 'I' for Inactive)
REMARK    1  A    between atoms: C5_6  and  C6_7 
REMARK    2  A    between atoms: C5_6  and  O4_10 
ROOT
ATOM      1  C1  <0> d          -0.019   1.528   0.010  0.00  0.00    -0.007 C 
ATOM      2  C2  <0> d           1.420   2.050  -0.001  0.00  0.00     0.023 C 
ATOM      3  O1  <0> d           2.124   1.527   1.128  0.00  0.00    -0.391 OA
ATOM      4  C3  <0> d           2.216   0.101   1.149  0.00  0.00     0.023 C 
ATOM      5  C4  <0> d           0.809  -0.499   1.206  0.00  0.00    -0.007 C 
ATOM      6  C5  <0> d           0.002  -0.004   0.002  0.00  0.00     0.149 C 
ATOM      7  H1  <0> d          -0.527   1.880   0.908  0.00  0.00     0.041 H 
ATOM      8  H2  <0> d          -0.544   1.890  -0.873  0.00  0.00     0.041 H 
ATOM      9  H3  <0> d           1.916   1.731  -0.917  0.00  0.00     0.074 H 
ATOM     10  H4  <0> d           1.412   3.139   0.049  0.00  0.00     0.074 H 
ATOM     11  H5  <0> d           2.722  -0.243   0.247  0.00  0.00     0.074 H 
ATOM     12  H6  <0> d           2.782  -0.214   2.026  0.00  0.00     0.074 H 
ATOM     13  H7  <0> d           0.876  -1.587   1.177  0.00  0.00     0.041 H 
ATOM     14  H8  <0> d           0.318  -0.188   2.127  0.00  0.00     0.041 H 
ENDROOT
BRANCH   6  15
ATOM     15  C6  <0> d          -1.408  -0.528   0.091  0.00  0.00     0.209 C 
ATOM     16  O2  <0> d          -1.855  -1.230  -0.800  0.00  0.00    -0.646 OA
ATOM     17  O3  <0> d          -2.103  -0.249   1.053  0.00  0.00    -0.646 OA
ENDBRANCH   6  15
BRANCH   6  18
ATOM     18  O4  <0> d           0.611  -0.467  -1.205  0.00  0.00    -0.379 OA
ATOM     19  H9  <0> d           0.657  -1.430  -1.278  0.00  0.00     0.211 HD
ENDBRANCH   6  18
TORSDOF 2
