REMARK  9 active torsions:
REMARK  status: ('A' for Active; 'I' for Inactive)
REMARK    1  A    between atoms: C1_1  and  C2_2 
REMARK    2  A    between atoms: C2_2  and  C3_4 
REMARK    3  A    between atoms: C2_2  and  C9_10 
REMARK    4  A    between atoms: C3_4  and  C4_5 
REMARK    5  A    between atoms: C4_5  and  C5_6 
REMARK    6  A    between atoms: C6_7  and  C7_8 
REMARK    7  A    between atoms: C6_7  and  C8_9 
REMARK    8  A    between atoms: C9_10  and  C10_12 
REMARK    9  A    between atoms: C9_10  and  O1_13 
ROOT
ATOM      1  C3  <0> d          -0.066   1.733  -0.154  0.00  0.00    -0.057 C 
ATOM      2  H6  <0> d           0.051   0.670   0.059  0.00  0.00     0.034 H 
ATOM      3  H7  <0> d           0.916   2.195  -0.252  0.00  0.00     0.034 H 
ENDROOT
BRANCH   1   4
ATOM      4  C2  <0> d          -0.832   2.401   0.990  0.00  0.00    -0.033 C 
ATOM      5  H1  <0> d          -1.027   3.443   0.737  0.00  0.00     0.043 H 
BRANCH   4   6
ATOM      6  C1  <0> d          -2.159   1.672   1.210  0.00  0.00    -0.071 C 
ATOM      7  H3  <0> d          -2.754   1.719   0.298  0.00  0.00     0.028 H 
ATOM      8  H4  <0> d          -1.964   0.630   1.463  0.00  0.00     0.028 H 
ATOM      9  H5  <0> d          -2.704   2.148   2.025  0.00  0.00     0.028 H 
ENDBRANCH   4   6
BRANCH   4  10
ATOM     10  C9  <0> d           0.004   2.335   2.270  0.00  0.00     0.035 C 
ATOM     11  H2  <0> d           0.199   1.293   2.523  0.00  0.00     0.082 H 
BRANCH  10  12
ATOM     12  C10 <0> d          -0.761   3.003   3.414  0.00  0.00    -0.052 C 
ATOM     13  H17 <0> d          -1.707   2.484   3.570  0.00  0.00     0.030 H 
ATOM     14  H18 <0> d          -0.166   2.956   4.326  0.00  0.00     0.030 H 
ATOM     15  H19 <0> d          -0.956   4.045   3.161  0.00  0.00     0.030 H 
ENDBRANCH  10  12
BRANCH  10  16
ATOM     16  O1  <0> d           1.244   3.016   2.065  0.00  0.00    -0.396 OA
ATOM     17  H20 <0> d           1.146   3.950   1.835  0.00  0.00     0.210 HD
ENDBRANCH  10  16
ENDBRANCH   4  10
ENDBRANCH   1   4
BRANCH   1  18
ATOM     18  C4  <0> d          -0.845   1.908  -1.459  0.00  0.00    -0.049 C 
ATOM     19  H8  <0> d          -1.827   1.446  -1.361  0.00  0.00     0.038 H 
ATOM     20  H9  <0> d          -0.963   2.970  -1.673  0.00  0.00     0.038 H 
BRANCH  18  21
ATOM     21  C5  <0> d          -0.091   1.250  -2.586  0.00  0.00    -0.101 C 
ATOM     22  C6  <0> d          -0.682   0.350  -3.332  0.00  0.00    -0.091 C 
ATOM     23  H10 <0> d           0.937   1.521  -2.779  0.00  0.00     0.077 H 
BRANCH  22  24
ATOM     24  C7  <0> d          -2.148   0.057  -3.140  0.00  0.00    -0.055 C 
ATOM     25  H11 <0> d          -2.718   0.981  -3.237  0.00  0.00     0.033 H 
ATOM     26  H12 <0> d          -2.478  -0.654  -3.897  0.00  0.00     0.033 H 
ATOM     27  H13 <0> d          -2.307  -0.367  -2.149  0.00  0.00     0.033 H 
ENDBRANCH  22  24
BRANCH  22  28
ATOM     28  C8  <0> d           0.104  -0.394  -4.381  0.00  0.00    -0.055 C 
ATOM     29  H14 <0> d           0.528  -1.298  -3.944  0.00  0.00     0.033 H 
ATOM     30  H15 <0> d          -0.555  -0.664  -5.206  0.00  0.00     0.033 H 
ATOM     31  H16 <0> d           0.908   0.242  -4.751  0.00  0.00     0.033 H 
ENDBRANCH  22  28
ENDBRANCH  18  21
ENDBRANCH   1  18
TORSDOF 9
