REMARK  2 active torsions:
REMARK  status: ('A' for Active; 'I' for Inactive)
REMARK    1  A    between atoms: N2_6  and  C5_8 
REMARK    2  A    between atoms: C5_8  and  C6_9 
ROOT
ATOM      1  C1  <0> d          -1.127   3.014   0.731  0.00  0.00    -0.035 C 
ATOM      2  C2  <0> d          -1.297   1.665   0.017  0.00  0.00    -0.002 C 
ATOM      3  N1  <0> d          -0.011   0.966   0.007  0.00  0.00    -0.343 N 
ATOM      4  C3  <0> d           1.149   1.639  -0.000  0.00  0.00     0.318 C 
ATOM      5  O1  <0> d           2.189   1.009  -0.023  0.00  0.00    -0.247 OA
ATOM      6  N2  <0> d           1.208   2.979   0.017  0.00  0.00    -0.324 N 
ATOM      7  C4  <0> d          -0.008   3.794   0.034  0.00  0.00     0.001 C 
ATOM      8  H1  <0> d          -0.858   2.850   1.785  0.00  0.00     0.037 H 
ATOM      9  H2  <0> d          -2.063   3.588   0.677  0.00  0.00     0.037 H 
ATOM     10  H3  <0> d          -2.044   1.060   0.550  0.00  0.00     0.064 H 
ATOM     11  H4  <0> d          -1.633   1.837  -1.016  0.00  0.00     0.064 H 
ATOM     12  H5  <0> d           0.017  -0.134   0.006  0.00  0.00     0.164 HD
ATOM     13  H6  <0> d          -0.311   4.026  -0.998  0.00  0.00     0.064 H 
ATOM     14  H7  <0> d           0.182   4.730   0.579  0.00  0.00     0.064 H 
ENDROOT
BRANCH   6  15
ATOM     15  C5  <0> d           2.515   3.640   0.020  0.00  0.00     0.079 C 
ATOM     16  H8  <0> d           2.440   4.600   0.551  0.00  0.00     0.081 H 
ATOM     17  H9  <0> d           3.250   2.997   0.526  0.00  0.00     0.081 H 
BRANCH  15  18
ATOM     18  C6  <0> d           2.957   3.885  -1.400  0.00  0.00     0.191 C 
ATOM     19  O2  <0> d           2.252   3.543  -2.320  0.00  0.00    -0.647 OA
ATOM     20  O3  <0> d           4.133   4.484  -1.643  0.00  0.00    -0.647 OA
ENDBRANCH  15  18
ENDBRANCH   6  15
TORSDOF 2
