REMARK  4 active torsions:
REMARK  status: ('A' for Active; 'I' for Inactive)
REMARK    1  A    between atoms: C1_1  and  C2_2 
REMARK    2  A    between atoms: C2_2  and  C3_3 
REMARK    3  A    between atoms: C2_2  and  C4_4 
REMARK    4  A    between atoms: C4_4  and  C5_6 
ROOT
ATOM      1  C4  <0> d           0.731  -0.503   1.223  0.00  0.00     0.164 C 
ATOM      2  O1  <0> d           0.109  -0.806   2.219  0.00  0.00    -0.292 OA
ENDROOT
BRANCH   1   3
ATOM      3  C2  <0> d           0.002  -0.004   0.002  0.00  0.00     0.002 C 
ATOM      4  H4  <0> d           0.470  -0.327  -0.821  0.00  0.00     0.051 H 
BRANCH   3   5
ATOM      5  C1  <0> d          -0.019   1.526   0.010  0.00  0.00    -0.066 C 
ATOM      6  H1  <0> d           1.004   1.903   0.003  0.00  0.00     0.028 H 
ATOM      7  H2  <0> d          -0.546   1.887  -0.873  0.00  0.00     0.028 H 
ATOM      8  H3  <0> d          -0.529   1.877   0.907  0.00  0.00     0.028 H 
ENDBRANCH   3   5
BRANCH   3   9
ATOM      9  C3  <0> d          -1.433  -0.534   0.013  0.00  0.00    -0.066 C 
ATOM     10  H5  <0> d          -1.960  -0.173  -0.870  0.00  0.00     0.028 H 
ATOM     11  H6  <0> d          -1.419  -1.623   0.007  0.00  0.00     0.028 H 
ATOM     12  H7  <0> d          -1.944  -0.182   0.910  0.00  0.00     0.028 H 
ENDBRANCH   3   9
ENDBRANCH   1   3
BRANCH   1  13
ATOM     13  C5  <0> d           2.197  -0.624   1.206  0.00  0.00     0.028 A 
ATOM     14  C9  <0> d           2.927  -0.279   0.065  0.00  0.00     0.015 A 
ATOM     15  N1  <0> d           4.239  -0.387   0.051  0.00  0.00    -0.272 NA
ATOM     16  H11 <0> d           2.410   0.079  -0.813  0.00  0.00     0.116 H 
ATOM     17  C8  <0> d           4.914  -0.820   1.099  0.00  0.00     0.002 A 
ATOM     18  C7  <0> d           4.266  -1.182   2.268  0.00  0.00    -0.065 A 
ATOM     19  H10 <0> d           5.990  -0.893   1.044  0.00  0.00     0.114 H 
ATOM     20  C6  <0> d           2.889  -1.082   2.338  0.00  0.00    -0.067 A 
ATOM     21  H9  <0> d           4.832  -1.534   3.118  0.00  0.00     0.085 H 
ATOM     22  H8  <0> d           2.359  -1.353   3.239  0.00  0.00     0.085 H 
ENDBRANCH   1  13
TORSDOF 4
