REMARK  2 active torsions:
REMARK  status: ('A' for Active; 'I' for Inactive)
REMARK    1  A    between atoms: C1_1  and  C2_2 
REMARK    2  A    between atoms: C4_5  and  C7_11 
ROOT
ATOM      1  C2  <0> d          -0.729   1.579   1.267  0.00  0.00    -0.047 C 
ATOM      2  H1  <0> d          -1.752   1.203   1.276  0.00  0.00     0.040 H 
ATOM      3  C3  <0> d          -0.746   3.111   1.280  0.00  0.00    -0.037 C 
ATOM      4  C4  <0> d          -1.457   3.600   2.545  0.00  0.00     0.045 C 
ATOM      5  H2  <0> d          -2.491   3.255   2.537  0.00  0.00     0.083 H 
ATOM      6  O1  <0> d          -0.775   3.066   3.715  0.00  0.00    -0.316 OA
ATOM      7  C5  <0> d          -0.600   1.728   3.730  0.00  0.00     0.259 C 
ATOM      8  O2  <0> d          -0.926   1.069   4.689  0.00  0.00    -0.265 OA
ATOM      9  C6  <0> d           0.014   1.077   2.511  0.00  0.00     0.019 C 
ATOM     10  H6  <0> d           0.277   3.486   1.271  0.00  0.00     0.037 H 
ATOM     11  H7  <0> d          -1.275   3.476   0.400  0.00  0.00     0.037 H 
ATOM     12  H8  <0> d          -0.084  -0.006   2.584  0.00  0.00     0.048 H 
ATOM     13  H9  <0> d           1.068   1.345   2.442  0.00  0.00     0.048 H 
ENDROOT
BRANCH   1  14
ATOM     14  C1  <0> d          -0.013   1.086   0.008  0.00  0.00    -0.072 C 
ATOM     15  H3  <0> d           0.002  -0.004   0.002  0.00  0.00     0.028 H 
ATOM     16  H4  <0> d           1.010   1.463   0.000  0.00  0.00     0.028 H 
ATOM     17  H5  <0> d          -0.540   1.447  -0.875  0.00  0.00     0.028 H 
ENDBRANCH   1  14
BRANCH   4  18
ATOM     18  C7  <0> d          -1.427   5.129   2.590  0.00  0.00    -0.052 C 
ATOM     19  H10 <0> d          -0.393   5.472   2.595  0.00  0.00     0.030 H 
ATOM     20  H11 <0> d          -1.938   5.528   1.713  0.00  0.00     0.030 H 
ATOM     21  H12 <0> d          -1.930   5.476   3.492  0.00  0.00     0.030 H 
ENDBRANCH   4  18
TORSDOF 2
