REMARK  1 active torsions:
REMARK  status: ('A' for Active; 'I' for Inactive)
REMARK    1  A    between atoms: C1_1  and  C2_2 
ROOT
ATOM      1  C2  <0> d           0.645   3.125   0.012  0.00  0.00     0.077 A 
ATOM      2  C3  <0> d          -0.719   3.131   0.025  0.00  0.00     0.180 A 
ATOM      3  O1  <0> d          -1.113   1.836   0.017  0.00  0.00    -0.291 OA
ATOM      4  C4  <0> d          -0.013   1.076   0.008  0.00  0.00     0.104 A 
ATOM      5  N1  <0> d           1.041   1.847   0.002  0.00  0.00    -0.238 NA
ATOM      6  C5  <0> d          -1.568   4.283   0.039  0.00  0.00     0.127 C 
ATOM      7  N2  <0> d          -2.242   5.197   0.050  0.00  0.00    -0.189 NA
ATOM      8  H4  <0> d           0.002  -0.004   0.002  0.00  0.00     0.155 H 
ENDROOT
BRANCH   1   9
ATOM      9  C1  <0> d           1.542   4.336   0.011  0.00  0.00    -0.032 C 
ATOM     10  H1  <0> d           1.749   4.634  -1.017  0.00  0.00     0.035 H 
ATOM     11  H2  <0> d           1.047   5.155   0.534  0.00  0.00     0.035 H 
ATOM     12  H3  <0> d           2.478   4.096   0.515  0.00  0.00     0.035 H 
ENDBRANCH   1   9
TORSDOF 1
