REMARK  2 active torsions:
REMARK  status: ('A' for Active; 'I' for Inactive)
REMARK    1  A    between atoms: C1_1  and  C2_2 
REMARK    2  A    between atoms: C2_2  and  C3_3 
ROOT
ATOM      1  C3  <0> d           0.707  -0.490  -1.238  0.00  0.00     0.147 A 
ATOM      2  N1  <0> d           0.127  -0.744  -2.410  0.00  0.00    -0.226 NA
ATOM      3  C4  <0> d           1.024  -1.149  -3.271  0.00  0.00     0.082 A 
ATOM      4  N2  <0> d           2.219  -1.161  -2.655  0.00  0.00    -0.270 N 
ATOM      5  H1  <0> d           3.070  -1.417  -3.042  0.00  0.00     0.190 HD
ATOM      6  N3  <0> d           1.989  -0.725  -1.340  0.00  0.00    -0.158 NA
ATOM      7  H7  <0> d           0.838  -1.425  -4.299  0.00  0.00     0.145 H 
ENDROOT
BRANCH   1   8
ATOM      8  C2  <0> d           0.002  -0.004   0.002  0.00  0.00    -0.010 C 
ATOM      9  H5  <0> d           0.529  -0.365   0.885  0.00  0.00     0.044 H 
ATOM     10  H6  <0> d          -1.020  -0.381   0.010  0.00  0.00     0.044 H 
BRANCH   8  11
ATOM     11  C1  <0> d          -0.019   1.526   0.010  0.00  0.00    -0.070 C 
ATOM     12  H2  <0> d           1.004   1.903   0.003  0.00  0.00     0.028 H 
ATOM     13  H3  <0> d          -0.546   1.887  -0.873  0.00  0.00     0.028 H 
ATOM     14  H4  <0> d          -0.529   1.877   0.907  0.00  0.00     0.028 H 
ENDBRANCH   8  11
ENDBRANCH   1   8
TORSDOF 2
