REMARK  0 active torsions:
REMARK  status: ('A' for Active; 'I' for Inactive)
ROOT
ATOM      1  C1  <0> d          -0.017   1.377   0.010  0.00  0.00    -0.082 A 
ATOM      2  C2  <0> d           1.173   2.081   0.002  0.00  0.00    -0.080 A 
ATOM      3  C3  <0> d           2.374   1.404  -0.019  0.00  0.00    -0.050 A 
ATOM      4  C4  <0> d           2.399   0.010  -0.030  0.00  0.00     0.075 A 
ATOM      5  C5  <0> d           1.206  -0.689  -0.012  0.00  0.00    -0.018 A 
ATOM      6  C6  <0> d           0.002  -0.004   0.002  0.00  0.00    -0.074 A 
ATOM      7  C7  <0> d           1.172  -2.198   0.010  0.00  0.00     0.019 C 
ATOM      8  C8  <0> d           2.562  -2.715  -0.295  0.00  0.00     0.155 C 
ATOM      9  O1  <0> d           2.742  -3.676  -1.005  0.00  0.00    -0.295 OA
ATOM     10  C9  <0> d           3.717  -1.962   0.337  0.00  0.00     0.081 C 
ATOM     11  O2  <0> d           3.612  -0.597  -0.070  0.00  0.00    -0.343 OA
ATOM     12  H1  <0> d          -0.958   1.905   0.026  0.00  0.00     0.083 H 
ATOM     13  H2  <0> d           1.162   3.161   0.013  0.00  0.00     0.083 H 
ATOM     14  H3  <0> d           3.302   1.958  -0.028  0.00  0.00     0.087 H 
ATOM     15  H4  <0> d          -0.928  -0.553   0.007  0.00  0.00     0.084 H 
ATOM     16  H5  <0> d           0.862  -2.543   0.997  0.00  0.00     0.051 H 
ATOM     17  H6  <0> d           0.473  -2.560  -0.744  0.00  0.00     0.051 H 
ATOM     18  H7  <0> d           3.653  -2.030   1.423  0.00  0.00     0.086 H 
ATOM     19  H8  <0> d           4.663  -2.379  -0.006  0.00  0.00     0.086 H 
ENDROOT
TORSDOF 0
