REMARK  4 active torsions:
REMARK  status: ('A' for Active; 'I' for Inactive)
REMARK    1  A    between atoms: C1_1  and  C2_2 
REMARK    2  A    between atoms: C2_2  and  C3_3 
REMARK    3  A    between atoms: C3_3  and  N1_4 
REMARK    4  A    between atoms: C4_5  and  C8_11 
ROOT
ATOM      1  N1  <0> d          -0.017   1.395   0.010  0.00  0.00    -0.273 N 
ATOM      2  C4  <0> d           1.252   1.838  -0.000  0.00  0.00     0.049 A 
ATOM      3  C5  <0> d           2.076   0.731  -0.014  0.00  0.00     0.087 A 
ATOM      4  C6  <0> d           1.242  -0.410  -0.012  0.00  0.00     0.044 A 
ATOM      5  N2  <0> d           0.002  -0.004   0.002  0.00  0.00    -0.183 NA
ATOM      6  C7  <0> d           3.508   0.737  -0.028  0.00  0.00     0.103 C 
ATOM      7  N3  <0> d           4.644   0.742  -0.038  0.00  0.00    -0.191 NA
ATOM      8  H8  <0> d           1.573  -1.438  -0.020  0.00  0.00     0.119 H 
ENDROOT
BRANCH   2   9
ATOM      9  C8  <0> d           1.694   3.279   0.003  0.00  0.00    -0.034 C 
ATOM     10  H9  <0> d           1.811   3.621   1.031  0.00  0.00     0.035 H 
ATOM     11  H10 <0> d           2.647   3.368  -0.519  0.00  0.00     0.035 H 
ATOM     12  H11 <0> d           0.945   3.890  -0.501  0.00  0.00     0.035 H 
ENDBRANCH   2   9
BRANCH   1  13
ATOM     13  C3  <0> d          -1.217   2.235   0.020  0.00  0.00     0.017 C 
ATOM     14  H6  <0> d          -1.007   3.175  -0.490  0.00  0.00     0.067 H 
ATOM     15  H7  <0> d          -2.028   1.717  -0.492  0.00  0.00     0.067 H 
BRANCH  13  16
ATOM     16  C2  <0> d          -1.627   2.520   1.466  0.00  0.00    -0.052 C 
ATOM     17  H4  <0> d          -1.837   1.580   1.976  0.00  0.00     0.035 H 
ATOM     18  H5  <0> d          -0.817   3.038   1.979  0.00  0.00     0.035 H 
BRANCH  16  19
ATOM     19  C1  <0> d          -2.881   3.398   1.477  0.00  0.00    -0.075 C 
ATOM     20  H1  <0> d          -2.671   4.338   0.967  0.00  0.00     0.027 H 
ATOM     21  H2  <0> d          -3.692   2.880   0.965  0.00  0.00     0.027 H 
ATOM     22  H3  <0> d          -3.173   3.601   2.507  0.00  0.00     0.027 H 
ENDBRANCH  16  19
ENDBRANCH  13  16
ENDBRANCH   1  13
TORSDOF 4
