REMARK  4 active torsions:
REMARK  status: ('A' for Active; 'I' for Inactive)
REMARK    1  A    between atoms: C1_1  and  O1_2 
REMARK    2  A    between atoms: O1_2  and  C2_3 
REMARK    3  A    between atoms: C2_3  and  O2_4 
REMARK    4  A    between atoms: O2_4  and  C3_5 
ROOT
ATOM      1  C3  <0> d          -0.050   3.842   0.023  0.00  0.00     0.071 A 
ATOM      2  C4  <0> d           1.160   3.163   0.007  0.00  0.00    -0.051 A 
ATOM      3  C5  <0> d           1.176   1.782   0.000  0.00  0.00    -0.080 A 
ATOM      4  C6  <0> d          -0.013   1.076   0.008  0.00  0.00    -0.083 A 
ATOM      5  C7  <0> d          -1.220   1.750   0.017  0.00  0.00    -0.080 A 
ATOM      6  C8  <0> d          -1.241   3.131   0.031  0.00  0.00    -0.051 A 
ATOM      7  H6  <0> d           2.089   3.715   0.001  0.00  0.00     0.087 H 
ATOM      8  H7  <0> d           2.118   1.254  -0.011  0.00  0.00     0.083 H 
ATOM      9  H8  <0> d           0.002  -0.004   0.002  0.00  0.00     0.083 H 
ATOM     10  H9  <0> d          -2.147   1.196   0.018  0.00  0.00     0.083 H 
ATOM     11  H10 <0> d          -2.185   3.657   0.042  0.00  0.00     0.087 H 
ENDROOT
BRANCH   1  12
ATOM     12  O2  <0> d          -0.069   5.201   0.029  0.00  0.00    -0.326 OA
BRANCH  12  13
ATOM     13  C2  <0> d          -1.350   5.832   0.045  0.00  0.00     0.108 C 
ATOM     14  H4  <0> d          -1.240   6.884  -0.217  0.00  0.00     0.118 H 
ATOM     15  H5  <0> d          -2.005   5.344  -0.677  0.00  0.00     0.118 H 
BRANCH  13  16
ATOM     16  O1  <0> d          -1.919   5.724   1.351  0.00  0.00    -0.371 OA
BRANCH  16  17
ATOM     17  C1  <0> d          -1.335   6.603   2.314  0.00  0.00     0.006 C 
ATOM     18  H1  <0> d          -1.467   7.636   1.991  0.00  0.00     0.066 H 
ATOM     19  H2  <0> d          -1.821   6.460   3.280  0.00  0.00     0.066 H 
ATOM     20  H3  <0> d          -0.271   6.385   2.407  0.00  0.00     0.066 H 
ENDBRANCH  16  17
ENDBRANCH  13  16
ENDBRANCH  12  13
ENDBRANCH   1  12
TORSDOF 4
