REMARK  2 active torsions:
REMARK  status: ('A' for Active; 'I' for Inactive)
REMARK    1  A    between atoms: C4_4  and  C5_6 
REMARK    2  A    between atoms: C5_6  and  O1_12 
ROOT
ATOM      1  C5  <0> d          -2.186   0.896  -1.436  0.00  0.00     0.065 C 
ATOM      2  C6  <0> d          -1.489   0.028  -2.485  0.00  0.00    -0.036 C 
ATOM      3  C7  <0> d          -2.522  -0.857  -3.184  0.00  0.00    -0.062 C 
ATOM      4  C8  <0> d          -3.571   0.023  -3.866  0.00  0.00    -0.065 C 
ATOM      5  C9  <0> d          -4.269   0.892  -2.817  0.00  0.00    -0.062 C 
ATOM      6  C10 <0> d          -3.235   1.777  -2.119  0.00  0.00    -0.036 C 
ATOM      7  H6  <0> d          -1.002   0.668  -3.221  0.00  0.00     0.037 H 
ATOM      8  H7  <0> d          -0.742  -0.599  -1.999  0.00  0.00     0.037 H 
ATOM      9  H8  <0> d          -3.009  -1.497  -2.448  0.00  0.00     0.033 H 
ATOM     10  H9  <0> d          -2.025  -1.476  -3.931  0.00  0.00     0.033 H 
ATOM     11  H10 <0> d          -4.307  -0.608  -4.364  0.00  0.00     0.033 H 
ATOM     12  H11 <0> d          -3.084   0.663  -4.602  0.00  0.00     0.033 H 
ATOM     13  H12 <0> d          -4.755   0.252  -2.081  0.00  0.00     0.033 H 
ATOM     14  H13 <0> d          -5.016   1.519  -3.304  0.00  0.00     0.033 H 
ATOM     15  H14 <0> d          -3.732   2.396  -1.372  0.00  0.00     0.037 H 
ATOM     16  H15 <0> d          -2.748   2.417  -2.855  0.00  0.00     0.037 H 
ENDROOT
BRANCH   1  17
ATOM     17  C4  <0> d          -1.153   1.782  -0.738  0.00  0.00     0.000 A 
ATOM     18  C2  <0> d          -1.121   1.764   0.771  0.00  0.00    -0.081 A 
ATOM     19  C1  <0> d          -1.664   2.096   1.916  0.00  0.00    -0.119 C 
ATOM     20  C3  <0> d          -0.013   1.086   0.008  0.00  0.00    -0.035 A 
ATOM     21  H2  <0> d          -1.189   1.808   2.843  0.00  0.00     0.067 H 
ATOM     22  H3  <0> d          -2.586   2.659   1.934  0.00  0.00     0.067 H 
ATOM     23  H4  <0> d           0.002  -0.004   0.002  0.00  0.00     0.040 H 
ATOM     24  H5  <0> d           0.964   1.570   0.001  0.00  0.00     0.040 H 
ATOM     25  H1  <0> d          -0.927   2.725  -1.236  0.00  0.00     0.052 H 
ENDBRANCH   1  17
BRANCH   1  26
ATOM     26  O1  <0> d          -2.824   0.057  -0.471  0.00  0.00    -0.389 OA
ATOM     27  H16 <0> d          -3.494  -0.533  -0.845  0.00  0.00     0.210 HD
ENDBRANCH   1  26
TORSDOF 2
