REMARK  1 active torsions:
REMARK  status: ('A' for Active; 'I' for Inactive)
REMARK    1  A    between atoms: C4_6  and  C5_8 
ROOT
ATOM      1  C1  <0> d           1.435   2.765   1.316  0.00  0.00    -0.022 C 
ATOM      2  C2  <0> d           2.744   2.201   1.912  0.00  0.00     0.019 C 
ATOM      3  C3  <0> d           3.398   1.502   0.734  0.00  0.00     0.259 C 
ATOM      4  O1  <0> d           4.584   1.369   0.546  0.00  0.00    -0.265 OA
ATOM      5  O2  <0> d           2.409   1.057  -0.062  0.00  0.00    -0.305 OA
ATOM      6  C4  <0> d           1.280   1.975   0.000  0.00  0.00     0.132 C 
ATOM      7  H1  <0> d           1.304   2.657  -0.850  0.00  0.00     0.101 H 
ATOM      8  H2  <0> d           1.531   3.832   1.116  0.00  0.00     0.038 H 
ATOM      9  H3  <0> d           0.594   2.572   1.983  0.00  0.00     0.038 H 
ATOM     10  H4  <0> d           3.378   3.009   2.279  0.00  0.00     0.048 H 
ATOM     11  H5  <0> d           2.528   1.490   2.709  0.00  0.00     0.048 H 
ENDROOT
BRANCH   6  12
ATOM     12  C5  <0> d          -0.014   1.204   0.009  0.00  0.00     0.203 C 
ATOM     13  O3  <0> d           0.002  -0.004   0.002  0.00  0.00    -0.646 OA
ATOM     14  O4  <0> d          -1.186   1.859   0.018  0.00  0.00    -0.646 OA
ENDBRANCH   6  12
TORSDOF 1
