REMARK  3 active torsions:
REMARK  status: ('A' for Active; 'I' for Inactive)
REMARK    1  A    between atoms: C1_1  and  C2_2 
REMARK    2  A    between atoms: C2_2  and  C3_4 
REMARK    3  A    between atoms: C2_2  and  O1_12 
ROOT
ATOM      1  C3  <0> d          -1.238   3.136   0.031  0.00  0.00     0.009 A 
ATOM      2  C4  <0> d          -0.050   3.843   0.024  0.00  0.00    -0.069 A 
ATOM      3  C5  <0> d           1.156   3.169   0.008  0.00  0.00    -0.045 A 
ATOM      4  C6  <0> d           1.176   1.785   0.000  0.00  0.00     0.119 A 
ATOM      5  C7  <0> d          -0.013   1.076   0.008  0.00  0.00    -0.008 A 
ATOM      6  C8  <0> d          -1.220   1.752   0.017  0.00  0.00     0.128 A 
ATOM      7  F1  <0> d          -2.382   1.062   0.019  0.00  0.00    -0.205 F 
ATOM      8  F2  <0> d           2.356   1.126  -0.014  0.00  0.00    -0.206 F 
ATOM      9  H5  <0> d          -0.065   4.923   0.030  0.00  0.00     0.084 H 
ATOM     10  H6  <0> d           2.084   3.723   0.002  0.00  0.00     0.088 H 
ATOM     11  H7  <0> d           0.002  -0.004   0.002  0.00  0.00     0.093 H 
ENDROOT
BRANCH   1  12
ATOM     12  C2  <0> d          -2.553   3.873   0.048  0.00  0.00     0.060 C 
ATOM     13  H1  <0> d          -3.275   3.313   0.642  0.00  0.00     0.090 H 
BRANCH  12  14
ATOM     14  C1  <0> d          -3.073   4.021  -1.383  0.00  0.00    -0.049 C 
ATOM     15  H2  <0> d          -3.216   3.033  -1.821  0.00  0.00     0.031 H 
ATOM     16  H3  <0> d          -4.024   4.554  -1.371  0.00  0.00     0.031 H 
ATOM     17  H4  <0> d          -2.350   4.581  -1.976  0.00  0.00     0.031 H 
ENDBRANCH  12  14
BRANCH  12  18
ATOM     18  O1  <0> d          -2.366   5.168   0.623  0.00  0.00    -0.391 OA
ATOM     19  H8  <0> d          -1.734   5.723   0.146  0.00  0.00     0.210 HD
ENDBRANCH  12  18
ENDBRANCH   1  12
TORSDOF 3
