REMARK  5 active torsions:
REMARK  status: ('A' for Active; 'I' for Inactive)
REMARK    1  A    between atoms: C4_4  and  C9_10 
REMARK    2  A    between atoms: C5_5  and  C7_7 
REMARK    3  A    between atoms: C7_7  and  C8_8 
REMARK    4  A    between atoms: C8_8  and  O1_9 
REMARK    5  A    between atoms: C9_10  and  O2_11 
ROOT
ATOM      1  C1  <0> d           0.257  -0.542   4.230  0.00  0.00    -0.082 A 
ATOM      2  C2  <0> d           1.337   0.165   4.728  0.00  0.00    -0.082 A 
ATOM      3  C3  <0> d           1.748   1.328   4.106  0.00  0.00    -0.074 A 
ATOM      4  C4  <0> d           1.079   1.786   2.985  0.00  0.00    -0.029 A 
ATOM      5  C5  <0> d           0.000   1.080   2.488  0.00  0.00    -0.048 A 
ATOM      6  C6  <0> d          -0.414  -0.081   3.113  0.00  0.00    -0.076 A 
ATOM      7  H1  <0> d          -0.064  -1.451   4.717  0.00  0.00     0.083 H 
ATOM      8  H2  <0> d           1.859  -0.193   5.603  0.00  0.00     0.083 H 
ATOM      9  H3  <0> d           2.590   1.880   4.495  0.00  0.00     0.084 H 
ATOM     10  H4  <0> d          -1.260  -0.630   2.727  0.00  0.00     0.084 H 
ENDROOT
BRANCH   5  11
ATOM     11  C7  <0> d          -0.729   1.579   1.267  0.00  0.00    -0.021 C 
ATOM     12  H5  <0> d          -0.744   2.669   1.273  0.00  0.00     0.043 H 
ATOM     13  H6  <0> d          -1.751   1.202   1.275  0.00  0.00     0.043 H 
BRANCH  11  14
ATOM     14  C8  <0> d          -0.013   1.086   0.008  0.00  0.00     0.020 C 
ATOM     15  H7  <0> d           0.002  -0.004   0.002  0.00  0.00     0.074 H 
ATOM     16  H8  <0> d           1.010   1.463   0.000  0.00  0.00     0.074 H 
BRANCH  14  17
ATOM     17  O1  <0> d          -0.704   1.559  -1.150  0.00  0.00    -0.401 OA
ATOM     18  H9  <0> d          -0.304   1.284  -1.986  0.00  0.00     0.209 HD
ENDBRANCH  14  17
ENDBRANCH  11  14
ENDBRANCH   5  11
BRANCH   4  19
ATOM     19  C9  <0> d           1.527   3.055   2.307  0.00  0.00     0.041 C 
ATOM     20  H10 <0> d           1.807   2.837   1.276  0.00  0.00     0.081 H 
ATOM     21  H11 <0> d           0.712   3.779   2.316  0.00  0.00     0.081 H 
BRANCH  19  22
ATOM     22  O2  <0> d           2.652   3.596   3.003  0.00  0.00    -0.396 OA
ATOM     23  H12 <0> d           2.994   4.416   2.620  0.00  0.00     0.209 HD
ENDBRANCH  19  22
ENDBRANCH   4  19
TORSDOF 5
