REMARK  3 active torsions:
REMARK  status: ('A' for Active; 'I' for Inactive)
REMARK    1  A    between atoms: C2_2  and  C3_3 
REMARK    2  A    between atoms: C3_3  and  N1_4 
REMARK       I    between atoms: N1_4  and  C4_5 
REMARK    3  A    between atoms: C4_5  and  C5_7 
ROOT
ATOM      1  N1  <0> d           1.143   1.903   0.001  0.00  0.00    -0.352 N 
ATOM      2  C4  <0> d          -0.014   1.213   0.009  0.00  0.00     0.275 C 
ATOM      3  O1  <0> d           0.002  -0.004   0.002  0.00  0.00    -0.265 OA
ATOM      4  H6  <0> d           1.130   2.872   0.007  0.00  0.00     0.163 HD
ENDROOT
BRANCH   1   5
ATOM      5  C3  <0> d           2.422   1.187  -0.015  0.00  0.00     0.010 C 
ATOM      6  H4  <0> d           2.497   0.557   0.871  0.00  0.00     0.070 H 
ATOM      7  H5  <0> d           2.480   0.566  -0.909  0.00  0.00     0.070 H 
BRANCH   5   8
ATOM      8  C2  <0> d           3.554   2.182  -0.020  0.00  0.00    -0.095 C 
ATOM      9  C1  <0> d           4.484   2.121   0.900  0.00  0.00    -0.123 C 
ATOM     10  H1  <0> d           4.440   1.357   1.663  0.00  0.00     0.066 H 
ATOM     11  H2  <0> d           5.296   2.834   0.896  0.00  0.00     0.066 H 
ATOM     12  H3  <0> d           3.598   2.946  -0.783  0.00  0.00     0.078 H 
ENDBRANCH   5   8
ENDBRANCH   1   5
BRANCH   2  13
ATOM     13  C5  <0> d          -1.294   1.929   0.019  0.00  0.00     0.142 A 
ATOM     14  O2  <0> d          -1.453   3.268   0.033  0.00  0.00    -0.317 OA
ATOM     15  C8  <0> d          -2.760   3.561   0.036  0.00  0.00     0.020 A 
ATOM     16  C7  <0> d          -3.464   2.407   0.032  0.00  0.00    -0.059 A 
ATOM     17  H9  <0> d          -3.182   4.555   0.044  0.00  0.00     0.123 H 
ATOM     18  C6  <0> d          -2.534   1.356   0.021  0.00  0.00    -0.043 A 
ATOM     19  H8  <0> d          -4.540   2.312   0.037  0.00  0.00     0.086 H 
ATOM     20  H7  <0> d          -2.756   0.299   0.016  0.00  0.00     0.088 H 
ENDBRANCH   2  13
TORSDOF 3
