REMARK  2 active torsions:
REMARK  status: ('A' for Active; 'I' for Inactive)
REMARK    1  A    between atoms: C1_1  and  N1_2 
REMARK    2  A    between atoms: C2_3  and  N4_8 
ROOT
ATOM      1  N1  <0> d           0.002  -0.004   0.002  0.00  0.00    -0.101 N 
ATOM      2  C2  <0> d           0.008  -0.807  -1.083  0.00  0.00     0.719 A 
ATOM      3  N2  <0> d           0.027  -2.054  -0.663  0.00  0.00    -0.030 NA
ATOM      4  C3  <0> d           0.033  -2.078   0.671  0.00  0.00     0.259 A 
ATOM      5  N3  <0> d           0.025  -0.852   1.121  0.00  0.00    -0.124 NA
ATOM      6 Cl1  <0> d           0.056  -3.511   1.652  0.00  0.00    -0.039 Cl
ENDROOT
BRANCH   1   7
ATOM      7  C1  <0> d          -0.018   1.461   0.010  0.00  0.00     0.020 C 
ATOM      8  H1  <0> d           1.005   1.838   0.002  0.00  0.00     0.060 H 
ATOM      9  H2  <0> d          -0.545   1.822  -0.873  0.00  0.00     0.060 H 
ATOM     10  H3  <0> d          -0.528   1.812   0.907  0.00  0.00     0.060 H 
ENDBRANCH   1   7
BRANCH   2  11
ATOM     11  N4  <0> d          -0.004  -0.393  -2.403  0.00  0.00    -0.231 N 
ATOM     12  H4  <0> d          -0.018   0.554  -2.614  0.00  0.00     0.174 HD
ATOM     13  H5  <0> d           0.002  -1.049  -3.117  0.00  0.00     0.174 HD
ENDBRANCH   2  11
TORSDOF 2
