REMARK  5 active torsions:
REMARK  status: ('A' for Active; 'I' for Inactive)
REMARK    1  A    between atoms: C1_1  and  C2_2 
REMARK    2  A    between atoms: C2_2  and  C3_3 
REMARK    3  A    between atoms: C2_2  and  C4_4 
REMARK    4  A    between atoms: C4_4  and  C5_5 
REMARK    5  A    between atoms: C9_9  and  N1_11 
ROOT
ATOM      1  C5  <0> d          -0.049   3.845   0.021  0.00  0.00    -0.056 A 
ATOM      2  C6  <0> d           1.156   3.166   0.007  0.00  0.00    -0.077 A 
ATOM      3  C7  <0> d           1.174   1.783   0.000  0.00  0.00    -0.080 A 
ATOM      4  C8  <0> d          -0.013   1.076   0.008  0.00  0.00    -0.058 A 
ATOM      5  C9  <0> d          -1.224   1.755   0.017  0.00  0.00     0.026 A 
ATOM      6  C10 <0> d          -1.238   3.144   0.029  0.00  0.00    -0.052 A 
ATOM      7  H10 <0> d           2.085   3.717   0.001  0.00  0.00     0.084 H 
ATOM      8  H11 <0> d           2.116   1.256  -0.011  0.00  0.00     0.083 H 
ATOM      9  H12 <0> d           0.002  -0.004   0.002  0.00  0.00     0.086 H 
ATOM     10  H13 <0> d          -2.179   3.675   0.040  0.00  0.00     0.087 H 
ENDROOT
BRANCH   1  11
ATOM     11  C4  <0> d          -0.064   5.352   0.029  0.00  0.00    -0.038 C 
ATOM     12  H8  <0> d           0.836   5.725   0.541  0.00  0.00     0.040 H 
ATOM     13  H9  <0> d          -0.961   5.707   0.557  0.00  0.00     0.040 H 
BRANCH  11  14
ATOM     14  C2  <0> d          -0.082   5.869  -1.411  0.00  0.00    -0.057 C 
ATOM     15  H4  <0> d           0.767   5.441  -1.965  0.00  0.00     0.039 H 
BRANCH  14  16
ATOM     16  C1  <0> d          -1.391   5.455  -2.086  0.00  0.00    -0.073 C 
ATOM     17  H1  <0> d          -1.471   4.357  -2.089  0.00  0.00     0.028 H 
ATOM     18  H2  <0> d          -1.404   5.826  -3.121  0.00  0.00     0.028 H 
ATOM     19  H3  <0> d          -2.240   5.882  -1.532  0.00  0.00     0.028 H 
ENDBRANCH  14  16
BRANCH  14  20
ATOM     20  C3  <0> d           0.029   7.395  -1.407  0.00  0.00    -0.073 C 
ATOM     21  H5  <0> d           0.971   7.692  -0.923  0.00  0.00     0.028 H 
ATOM     22  H6  <0> d          -0.819   7.822  -0.853  0.00  0.00     0.028 H 
ATOM     23  H7  <0> d           0.016   7.766  -2.442  0.00  0.00     0.028 H 
ENDBRANCH  14  20
ENDBRANCH  11  14
ENDBRANCH   1  11
BRANCH   5  24
ATOM     24  N1  <0> d          -2.426   1.042   0.020  0.00  0.00    -0.399 N 
ATOM     25  H14 <0> d          -3.385   1.581   0.027  0.00  0.00     0.156 HD
ATOM     26  H15 <0> d          -2.413  -0.058   0.014  0.00  0.00     0.156 HD
ENDBRANCH   5  24
TORSDOF 5
