REMARK  3 active torsions:
REMARK  status: ('A' for Active; 'I' for Inactive)
REMARK    1  A    between atoms: C2_2  and  C3_3 
REMARK    2  A    between atoms: C3_3  and  O1_4 
REMARK    3  A    between atoms: O1_4  and  C4_5 
ROOT
ATOM      1  C4  <0> d           0.033   3.797   0.022  0.00  0.00     0.164 A 
ATOM      2  C5  <0> d          -1.194   3.144   0.030  0.00  0.00    -0.032 A 
ATOM      3  C6  <0> d          -1.220   1.761   0.017  0.00  0.00    -0.077 A 
ATOM      4  C7  <0> d          -0.013   1.076   0.008  0.00  0.00    -0.066 A 
ATOM      5  C8  <0> d           1.169   1.790   0.001  0.00  0.00     0.005 A 
ATOM      6  N1  <0> d           1.162   3.109   0.008  0.00  0.00    -0.237 NA
ATOM      7  H6  <0> d          -2.114   3.709   0.042  0.00  0.00     0.090 H 
ATOM      8  H7  <0> d          -2.158   1.226   0.018  0.00  0.00     0.083 H 
ATOM      9  H8  <0> d           0.002  -0.004   0.002  0.00  0.00     0.085 H 
ATOM     10  H9  <0> d           2.111   1.261  -0.012  0.00  0.00     0.114 H 
ENDROOT
BRANCH   1  11
ATOM     11  O1  <0> d           0.072   5.153   0.030  0.00  0.00    -0.331 OA
BRANCH  11  12
ATOM     12  C3  <0> d           1.364   5.765   0.021  0.00  0.00     0.042 C 
ATOM     13  H4  <0> d           1.920   5.451   0.904  0.00  0.00     0.081 H 
ATOM     14  H5  <0> d           1.904   5.461  -0.876  0.00  0.00     0.081 H 
BRANCH  12  15
ATOM     15  C2  <0> d           1.210   7.264   0.031  0.00  0.00    -0.089 C 
ATOM     16  C1  <0> d           1.948   7.993   0.831  0.00  0.00    -0.123 C 
ATOM     17  H1  <0> d           2.668   7.519   1.482  0.00  0.00     0.066 H 
ATOM     18  H2  <0> d           1.838   9.067   0.838  0.00  0.00     0.066 H 
ATOM     19  H3  <0> d           0.491   7.737  -0.621  0.00  0.00     0.078 H 
ENDBRANCH  12  15
ENDBRANCH  11  12
ENDBRANCH   1  11
TORSDOF 3
