REMARK  0 active torsions:
REMARK  status: ('A' for Active; 'I' for Inactive)
ROOT
ATOM      1  C1  <0> d          -3.934   3.737   0.696  0.00  0.00    -0.062 A 
ATOM      2  C2  <0> d          -2.945   3.069   1.389  0.00  0.00    -0.074 A 
ATOM      3  C3  <0> d          -1.946   2.393   0.712  0.00  0.00    -0.044 A 
ATOM      4  C4  <0> d          -1.929   2.381  -0.684  0.00  0.00     0.017 A 
ATOM      5  C5  <0> d          -2.930   3.059  -1.392  0.00  0.00    -0.049 A 
ATOM      6  C6  <0> d          -3.932   3.735  -0.702  0.00  0.00     0.045 A 
ATOM      7  C7  <0> d          -4.957   4.429  -1.422  0.00  0.00     0.099 C 
ATOM      8  N1  <0> d          -5.770   4.979  -1.993  0.00  0.00    -0.191 NA
ATOM      9  C8  <0> d          -0.781   1.605  -1.183  0.00  0.00     0.160 A 
ATOM     10  O1  <0> d          -0.502   1.415  -2.348  0.00  0.00    -0.292 OA
ATOM     11  C9  <0> d          -0.013   1.086   0.008  0.00  0.00    -0.001 A 
ATOM     12  C10 <0> d          -0.771   1.600   1.239  0.00  0.00    -0.034 A 
ATOM     13  H1  <0> d          -4.710   4.262   1.234  0.00  0.00     0.085 H 
ATOM     14  H2  <0> d          -2.951   3.074   2.469  0.00  0.00     0.084 H 
ATOM     15  H3  <0> d          -2.926   3.055  -2.472  0.00  0.00     0.087 H 
ATOM     16  H4  <0> d           0.009  -0.014  -0.020  0.00  0.00     0.045 H 
ATOM     17  H5  <0> d           1.016   1.474  -0.022  0.00  0.00     0.045 H 
ATOM     18  H6  <0> d          -0.132   2.254   1.852  0.00  0.00     0.040 H 
ATOM     19  H7  <0> d          -1.138   0.766   1.855  0.00  0.00     0.040 H 
ENDROOT
TORSDOF 0
