REMARK  0 active torsions:
REMARK  status: ('A' for Active; 'I' for Inactive)
ROOT
ATOM      1  C1  <0> d          -0.017   1.378   0.010  0.00  0.00    -0.082 A 
ATOM      2  C2  <0> d           1.173   2.082   0.002  0.00  0.00    -0.081 A 
ATOM      3  C3  <0> d           2.377   1.411  -0.013  0.00  0.00    -0.057 A 
ATOM      4  C4  <0> d           2.405   0.015  -0.021  0.00  0.00     0.035 A 
ATOM      5  C5  <0> d           1.205  -0.683  -0.013  0.00  0.00    -0.021 A 
ATOM      6  C6  <0> d           0.002  -0.004   0.002  0.00  0.00    -0.074 A 
ATOM      7  C7  <0> d           1.518  -2.157  -0.024  0.00  0.00     0.005 A 
ATOM      8  C8  <0> d           0.669  -3.163   0.744  0.00  0.00    -0.051 A 
ATOM      9  C9  <0> d           0.655  -3.154  -0.788  0.00  0.00    -0.051 A 
ATOM     10  C10 <0> d           3.047  -2.243  -0.039  0.00  0.00     0.004 A 
ATOM     11  N1  <0> d           3.503  -0.848  -0.036  0.00  0.00    -0.388 N 
ATOM     12  H1  <0> d          -0.958   1.906   0.026  0.00  0.00     0.083 H 
ATOM     13  H2  <0> d           1.160   3.162   0.008  0.00  0.00     0.083 H 
ATOM     14  H3  <0> d           3.303   1.967  -0.019  0.00  0.00     0.086 H 
ATOM     15  H4  <0> d          -0.927  -0.555   0.008  0.00  0.00     0.084 H 
ATOM     16  H5  <0> d           1.187  -3.985   1.238  0.00  0.00     0.034 H 
ATOM     17  H6  <0> d          -0.216  -2.787   1.258  0.00  0.00     0.034 H 
ATOM     18  H7  <0> d          -0.239  -2.773  -1.281  0.00  0.00     0.034 H 
ATOM     19  H8  <0> d           1.163  -3.971  -1.301  0.00  0.00     0.034 H 
ATOM     20  H9  <0> d           3.406  -2.761   0.850  0.00  0.00     0.065 H 
ATOM     21  H10 <0> d           3.390  -2.752  -0.940  0.00  0.00     0.065 H 
ATOM     22  H11 <0> d           4.431  -0.567  -0.043  0.00  0.00     0.159 HD
ENDROOT
TORSDOF 0
