REMARK  2 active torsions:
REMARK  status: ('A' for Active; 'I' for Inactive)
REMARK    1  A    between atoms: C3_3  and  C7_10 
REMARK    2  A    between atoms: C4_5  and  C6_8 
ROOT
ATOM      1  C1  <0> d          -0.417  -1.916  -1.644  0.00  0.00    -0.063 C 
ATOM      2  C2  <0> d           0.433  -0.628  -1.514  0.00  0.00    -0.052 C 
ATOM      3  C3  <0> d          -0.019  -0.010  -0.175  0.00  0.00     0.043 C 
ATOM      4  H1  <0> d           0.660  -0.310   0.623  0.00  0.00     0.058 H 
ATOM      5  C4  <0> d          -1.433  -0.551   0.104  0.00  0.00     0.043 C 
ATOM      6  H2  <0> d          -1.439  -1.114   1.037  0.00  0.00     0.058 H 
ATOM      7  C5  <0> d          -1.790  -1.479  -1.076  0.00  0.00    -0.052 C 
ATOM      8  H3  <0> d          -0.509  -2.215  -2.689  0.00  0.00     0.033 H 
ATOM      9  H4  <0> d           0.009  -2.723  -1.047  0.00  0.00     0.033 H 
ATOM     10  H5  <0> d           0.223   0.053  -2.339  0.00  0.00     0.034 H 
ATOM     11  H6  <0> d           1.494  -0.874  -1.482  0.00  0.00     0.034 H 
ATOM     12  H7  <0> d          -2.359  -0.935  -1.829  0.00  0.00     0.034 H 
ATOM     13  H8  <0> d          -2.352  -2.345  -0.726  0.00  0.00     0.034 H 
ENDROOT
BRANCH   3  14
ATOM     14  C7  <0> d          -0.054   1.492  -0.285  0.00  0.00     0.177 C 
ATOM     15  O2  <0> d          -0.306   2.014  -1.345  0.00  0.00    -0.648 OA
ATOM     16  O4  <0> d           0.202   2.250   0.793  0.00  0.00    -0.648 OA
ENDBRANCH   3  14
BRANCH   5  17
ATOM     17  C6  <0> d          -2.415   0.589   0.181  0.00  0.00     0.177 C 
ATOM     18  O1  <0> d          -2.954   0.990  -0.823  0.00  0.00    -0.648 OA
ATOM     19  O3  <0> d          -2.693   1.157   1.365  0.00  0.00    -0.648 OA
ENDBRANCH   5  17
TORSDOF 2
