REMARK  1 active torsions:
REMARK  status: ('A' for Active; 'I' for Inactive)
REMARK    1  A    between atoms: C1_1  and  C2_2 
ROOT
ATOM      1  C2  <0> d          -0.018   1.503   0.021  0.00  0.00     0.104 A 
ATOM      2  N1  <0> d          -1.201   2.144   0.025  0.00  0.00    -0.224 NA
ATOM      3  H1  <0> d           2.065   1.607   0.016  0.00  0.00     0.170 HD
ATOM      4  C3  <0> d          -1.252   3.506   0.033  0.00  0.00     0.133 A 
ATOM      5  C4  <0> d          -0.094   4.211   0.037  0.00  0.00     0.022 A 
ATOM      6  C5  <0> d           1.130   3.501   0.021  0.00  0.00     0.249 A 
ATOM      7  O1  <0> d           2.192   4.104   0.019  0.00  0.00    -0.268 OA
ATOM      8  N2  <0> d           1.112   2.156   0.019  0.00  0.00    -0.312 N 
ATOM      9 Cl1  <0> d          -2.781   4.329   0.052  0.00  0.00    -0.062 Cl
ATOM     10  H5  <0> d          -0.116   5.210   0.047  0.00  0.00     0.097 H 
ENDROOT
BRANCH   1  11
ATOM     11  C1  <0> d           0.002  -0.004   0.019  0.00  0.00    -0.021 C 
ATOM     12  H2  <0> d           1.044  -0.357   0.016  0.00  0.00     0.037 H 
ATOM     13  H3  <0> d          -0.513  -0.377  -0.879  0.00  0.00     0.037 H 
ATOM     14  H4  <0> d          -0.509  -0.379   0.917  0.00  0.00     0.037 H 
ENDBRANCH   1  11
TORSDOF 1
