REMARK  0 active torsions:
REMARK  status: ('A' for Active; 'I' for Inactive)
ROOT
ATOM      1  C1  <0> d           1.165   1.802   0.001  0.00  0.00    -0.064 A 
ATOM      2  C2  <0> d          -0.013   1.076   0.008  0.00  0.00    -0.050 A 
ATOM      3  C3  <0> d          -1.217   1.774   0.017  0.00  0.00     0.111 A 
ATOM      4  C4  <0> d          -1.191   3.176   0.029  0.00  0.00     0.156 A 
ATOM      5  C5  <0> d          -2.602   3.618   0.045  0.00  0.00     0.292 A 
ATOM      6  O1  <0> d          -2.998   4.768   0.054  0.00  0.00    -0.264 OA
ATOM      7  N1  <0> d          -3.367   2.508   0.047  0.00  0.00    -0.241 N 
ATOM      8  H1  <0> d          -4.464   2.596   0.058  0.00  0.00     0.192 HD
ATOM      9  N2  <0> d          -2.544   1.378   0.034  0.00  0.00    -0.170 NA
ATOM     10  N3  <0> d          -0.036   3.827   0.022  0.00  0.00    -0.253 NA
ATOM     11  C6  <0> d           1.113   3.189   0.008  0.00  0.00     0.003 A 
ATOM     12  H2  <0> d           2.118   1.293  -0.011  0.00  0.00     0.085 H 
ATOM     13  H3  <0> d           0.002  -0.004   0.002  0.00  0.00     0.087 H 
ATOM     14  H4  <0> d           2.034   3.754   0.002  0.00  0.00     0.114 H 
ENDROOT
TORSDOF 0
