REMARK  3 active torsions:
REMARK  status: ('A' for Active; 'I' for Inactive)
REMARK    1  A    between atoms: C1_1  and  C2_2 
REMARK    2  A    between atoms: C5_5  and  N2_9 
REMARK    3  A    between atoms: C7_7  and  N1_8 
ROOT
ATOM      1  C2  <0> d           0.002  -0.004   0.002  0.00  0.00    -0.036 A 
ATOM      2  C3  <0> d           0.006  -0.688  -1.199  0.00  0.00    -0.073 A 
ATOM      3  C4  <0> d           0.024  -2.069  -1.211  0.00  0.00    -0.057 A 
ATOM      4  C5  <0> d           0.040  -2.776  -0.014  0.00  0.00     0.027 A 
ATOM      5  C6  <0> d           0.036  -2.092   1.193  0.00  0.00    -0.032 A 
ATOM      6  C7  <0> d           0.023  -0.704   1.202  0.00  0.00     0.033 A 
ATOM      7  H4  <0> d          -0.006  -0.141  -2.130  0.00  0.00     0.084 H 
ATOM      8  H5  <0> d           0.027  -2.600  -2.151  0.00  0.00     0.086 H 
ATOM      9  H6  <0> d           0.048  -2.639   2.125  0.00  0.00     0.090 H 
ENDROOT
BRANCH   1  10
ATOM     10  C1  <0> d          -0.018   1.503   0.010  0.00  0.00    -0.049 C 
ATOM     11  H1  <0> d           1.004   1.880   0.003  0.00  0.00     0.033 H 
ATOM     12  H2  <0> d          -0.545   1.864  -0.873  0.00  0.00     0.033 H 
ATOM     13  H3  <0> d          -0.529   1.854   0.907  0.00  0.00     0.033 H 
ENDBRANCH   1  10
BRANCH   6  14
ATOM     14  N1  <0> d           0.025  -0.013   2.415  0.00  0.00    -0.399 N 
ATOM     15  H7  <0> d           0.013   0.957   2.421  0.00  0.00     0.156 HD
ATOM     16  H8  <0> d           0.040  -0.502   3.253  0.00  0.00     0.156 HD
ENDBRANCH   6  14
BRANCH   4  17
ATOM     17  N2  <0> d           0.058  -4.172  -0.027  0.00  0.00    -0.399 N 
ATOM     18  H9  <0> d           0.060  -4.649  -0.872  0.00  0.00     0.156 HD
ATOM     19  H10 <0> d           0.069  -4.665   0.808  0.00  0.00     0.156 HD
ENDBRANCH   4  17
TORSDOF 3
