REMARK  3 active torsions:
REMARK  status: ('A' for Active; 'I' for Inactive)
REMARK    1  A    between atoms: C1_1  and  C2_2 
REMARK    2  A    between atoms: C4_5  and  C6_10 
REMARK    3  A    between atoms: C6_10  and  C7_12 
ROOT
ATOM      1  C2  <0> d          -0.013   1.086   0.008  0.00  0.00     0.045 C 
ATOM      2  H1  <0> d           0.002  -0.004   0.002  0.00  0.00     0.083 H 
ATOM      3  C3  <0> d           1.427   1.642  -0.003  0.00  0.00    -0.022 C 
ATOM      4  C4  <0> d           1.635   2.045  -1.479  0.00  0.00     0.090 C 
ATOM      5  H2  <0> d           2.412   1.542  -1.856  0.00  0.00     0.067 H 
ATOM      6  C5  <0> d           0.331   1.683  -2.161  0.00  0.00     0.270 C 
ATOM      7  O1  <0> d           0.175   1.507  -3.347  0.00  0.00    -0.264 OA
ATOM      8  O2  <0> d          -0.624   1.591  -1.217  0.00  0.00    -0.316 OA
ATOM      9  H6  <0> d           1.510   2.511   0.649  0.00  0.00     0.038 H 
ATOM     10  H7  <0> d           2.140   0.871   0.290  0.00  0.00     0.038 H 
ENDROOT
BRANCH   4  11
ATOM     11  C6  <0> d           1.894   3.525  -1.588  0.00  0.00     0.136 C 
ATOM     12  O3  <0> d           1.489   4.274  -0.732  0.00  0.00    -0.297 OA
BRANCH  11  13
ATOM     13  C7  <0> d           2.659   4.072  -2.767  0.00  0.00    -0.020 C 
ATOM     14  H8  <0> d           2.020   4.299  -3.502  0.00  0.00     0.037 H 
ATOM     15  H9  <0> d           3.199   4.968  -2.464  0.00  0.00     0.037 H 
ATOM     16  H10 <0> d           3.367   3.322  -3.119  0.00  0.00     0.037 H 
ENDBRANCH  11  13
ENDBRANCH   4  11
BRANCH   1  17
ATOM     17  C1  <0> d          -0.771   1.599   1.234  0.00  0.00    -0.052 C 
ATOM     18  H3  <0> d          -0.789   2.689   1.220  0.00  0.00     0.030 H 
ATOM     19  H4  <0> d          -1.793   1.219   1.214  0.00  0.00     0.030 H 
ATOM     20  H5  <0> d          -0.273   1.255   2.140  0.00  0.00     0.030 H 
ENDBRANCH   1  17
TORSDOF 3
