REMARK  4 active torsions:
REMARK  status: ('A' for Active; 'I' for Inactive)
REMARK    1  A    between atoms: C1_1  and  O1_2 
REMARK    2  A    between atoms: O1_2  and  C2_3 
REMARK    3  A    between atoms: C2_3  and  C3_5 
REMARK    4  A    between atoms: C5_9  and  N2_10 
ROOT
ATOM      1  C3  <0> d          -2.490   1.075   0.020  0.00  0.00     0.111 A 
ATOM      2  C4  <0> d          -3.343   2.217   0.030  0.00  0.00     0.049 A 
ATOM      3  N1  <0> d          -2.564   3.256   0.033  0.00  0.00    -0.138 NA
ATOM      4  O3  <0> d          -1.393   2.962   0.031  0.00  0.00    -0.195 OA
ATOM      5  C5  <0> d          -1.207   1.635   0.017  0.00  0.00     0.184 A 
ATOM      6  H4  <0> d          -4.423   2.218   0.036  0.00  0.00     0.120 H 
ENDROOT
BRANCH   1   7
ATOM      7  C2  <0> d          -2.865  -0.342   0.013  0.00  0.00     0.298 C 
ATOM      8  O2  <0> d          -2.002  -1.199   0.003  0.00  0.00    -0.259 OA
BRANCH   7   9
ATOM      9  O1  <0> d          -4.166  -0.695   0.017  0.00  0.00    -0.322 OA
BRANCH   9  10
ATOM     10  C1  <0> d          -4.464  -2.116   0.010  0.00  0.00     0.013 C 
ATOM     11  H1  <0> d          -4.040  -2.571  -0.885  0.00  0.00     0.067 H 
ATOM     12  H2  <0> d          -4.031  -2.582   0.895  0.00  0.00     0.067 H 
ATOM     13  H3  <0> d          -5.544  -2.261   0.015  0.00  0.00     0.067 H 
ENDBRANCH   9  10
ENDBRANCH   7   9
ENDBRANCH   1   7
BRANCH   5  14
ATOM     14  N2  <0> d          -0.011   0.966   0.007  0.00  0.00    -0.377 N 
ATOM     15  H5  <0> d           0.002  -0.004   0.002  0.00  0.00     0.158 HD
ATOM     16  H6  <0> d           0.822   1.462   0.002  0.00  0.00     0.158 HD
ENDBRANCH   5  14
TORSDOF 4
