REMARK  4 active torsions:
REMARK  status: ('A' for Active; 'I' for Inactive)
REMARK    1  A    between atoms: C1_1  and  C2_2 
REMARK    2  A    between atoms: C2_2  and  C3_4 
REMARK    3  A    between atoms: C2_2  and  C6_10 
REMARK    4  A    between atoms: C3_4  and  N1_5 
ROOT
ATOM      1  C3  <0> d          -2.164   1.050   1.278  0.00  0.00     0.030 C 
ATOM      2  H5  <0> d          -2.701   1.472   2.127  0.00  0.00     0.068 H 
ATOM      3  H6  <0> d          -2.664   1.336   0.353  0.00  0.00     0.068 H 
ENDROOT
BRANCH   1   4
ATOM      4  C2  <0> d          -0.729   1.579   1.267  0.00  0.00     0.044 C 
ATOM      5  H1  <0> d          -0.202   1.218   2.150  0.00  0.00     0.058 H 
BRANCH   4   6
ATOM      6  C1  <0> d          -0.013   1.086   0.008  0.00  0.00    -0.062 C 
ATOM      7  H2  <0> d           0.002  -0.004   0.002  0.00  0.00     0.028 H 
ATOM      8  H3  <0> d           1.010   1.463   0.000  0.00  0.00     0.028 H 
ATOM      9  H4  <0> d          -0.540   1.447  -0.875  0.00  0.00     0.028 H 
ENDBRANCH   4   6
BRANCH   4  10
ATOM     10  C6  <0> d          -0.749   3.086   1.275  0.00  0.00     0.178 C 
ATOM     11  O1  <0> d          -1.804   3.676   1.288  0.00  0.00    -0.648 OA
ATOM     12  O2  <0> d           0.404   3.773   1.268  0.00  0.00    -0.648 OA
ENDBRANCH   4  10
ENDBRANCH   1   4
BRANCH   1  13
ATOM     13  N1  <0> d          -2.145  -0.411   1.390  0.00  0.00    -0.261 N 
ATOM     14  N3  <0> d          -1.475  -1.311   0.546  0.00  0.00    -0.165 NA
ATOM     15  C5  <0> d          -1.720  -2.511   1.003  0.00  0.00     0.107 A 
ATOM     16  N2  <0> d          -2.506  -2.414   2.074  0.00  0.00    -0.234 NA
ATOM     17  H8  <0> d          -1.348  -3.432   0.579  0.00  0.00     0.149 H 
ATOM     18  C4  <0> d          -2.770  -1.156   2.318  0.00  0.00     0.084 A 
ATOM     19  H7  <0> d          -3.382  -0.781   3.125  0.00  0.00     0.146 H 
ENDBRANCH   1  13
TORSDOF 4
