REMARK  0 active torsions:
REMARK  status: ('A' for Active; 'I' for Inactive)
ROOT
ATOM      1  C1  <0> d           0.002  -0.004   0.002  0.00  0.00     0.068 C 
ATOM      2  C2  <0> d          -0.018   1.497   0.010  0.00  0.00     0.241 C 
ATOM      3  O1  <0> d          -1.093   2.058   0.018  0.00  0.00    -0.271 OA
ATOM      4  N1  <0> d           1.100   2.253   0.004  0.00  0.00    -0.305 N 
ATOM      5  C3  <0> d           2.325   1.605  -0.179  0.00  0.00     0.208 A 
ATOM      6  C4  <0> d           2.361   0.177  -0.573  0.00  0.00     0.202 A 
ATOM      7  N2  <0> d           3.591  -0.182  -0.697  0.00  0.00    -0.083 NA
ATOM      8  O2  <0> d           4.402   0.944  -0.391  0.00  0.00    -0.103 OA
ATOM      9  N3  <0> d           3.538   2.026  -0.075  0.00  0.00    -0.083 NA
ATOM     10  N4  <0> d           1.164  -0.523  -0.740  0.00  0.00    -0.361 N 
ATOM     11  H1  <0> d           0.045  -0.365   1.030  0.00  0.00     0.078 H 
ATOM     12  H2  <0> d          -0.911  -0.370  -0.467  0.00  0.00     0.078 H 
ATOM     13  H3  <0> d           1.055   3.215   0.121  0.00  0.00     0.170 HD
ATOM     14  H4  <0> d           1.101  -1.305  -1.311  0.00  0.00     0.161 HD
ENDROOT
TORSDOF 0
