REMARK  4 active torsions:
REMARK  status: ('A' for Active; 'I' for Inactive)
REMARK    1  A    between atoms: C1_1  and  C2_2 
REMARK    2  A    between atoms: C2_2  and  O1_3 
REMARK    3  A    between atoms: O1_3  and  C3_4 
REMARK    4  A    between atoms: C5_7  and  C6_9 
ROOT
ATOM      1  C3  <0> d           1.065   1.888   0.002  0.00  0.00     0.204 A 
ATOM      2  C4  <0> d          -0.013   1.076   0.008  0.00  0.00     0.061 A 
ATOM      3  N1  <0> d          -1.109   1.856   0.017  0.00  0.00    -0.236 NA
ATOM      4  C5  <0> d          -0.736   3.103   0.025  0.00  0.00     0.144 A 
ATOM      5  O2  <0> d           0.606   3.154   0.013  0.00  0.00    -0.272 OA
ATOM      6  H6  <0> d           0.002  -0.004   0.002  0.00  0.00     0.122 H 
ENDROOT
BRANCH   1   7
ATOM      7  O1  <0> d           2.367   1.501  -0.012  0.00  0.00    -0.330 OA
BRANCH   7   8
ATOM      8  C2  <0> d           3.352   2.537  -0.016  0.00  0.00     0.025 C 
ATOM      9  H4  <0> d           3.221   3.159  -0.902  0.00  0.00     0.074 H 
ATOM     10  H5  <0> d           3.237   3.150   0.878  0.00  0.00     0.074 H 
BRANCH   8  11
ATOM     11  C1  <0> d           4.749   1.914  -0.032  0.00  0.00    -0.056 C 
ATOM     12  H1  <0> d           4.879   1.292   0.854  0.00  0.00     0.030 H 
ATOM     13  H2  <0> d           4.862   1.301  -0.926  0.00  0.00     0.030 H 
ATOM     14  H3  <0> d           5.499   2.704  -0.035  0.00  0.00     0.030 H 
ENDBRANCH   8  11
ENDBRANCH   7   8
ENDBRANCH   1   7
BRANCH   4  15
ATOM     15  C6  <0> d          -1.659   4.294   0.040  0.00  0.00    -0.015 C 
ATOM     16  H7  <0> d          -1.891   4.586  -0.985  0.00  0.00     0.038 H 
ATOM     17  H8  <0> d          -2.580   4.034   0.561  0.00  0.00     0.038 H 
ATOM     18  H9  <0> d          -1.173   5.124   0.553  0.00  0.00     0.038 H 
ENDBRANCH   4  15
TORSDOF 4
