REMARK  7 active torsions:
REMARK  status: ('A' for Active; 'I' for Inactive)
REMARK    1  A    between atoms: C1_1  and  C2_2 
REMARK    2  A    between atoms: C2_2  and  C3_3 
REMARK    3  A    between atoms: C3_3  and  C4_4 
REMARK    4  A    between atoms: C4_4  and  C5_5 
REMARK    5  A    between atoms: C6_6  and  C7_7 
REMARK    6  A    between atoms: C8_8  and  C9_9 
REMARK    7  A    between atoms: C9_9  and  O1_10 
ROOT
ATOM      1  C4  <0> d           0.739  -2.027  -1.265  0.00  0.00    -0.008 C 
ATOM      2  H8  <0> d           1.266  -2.388  -0.382  0.00  0.00     0.051 H 
ATOM      3  H9  <0> d          -0.284  -2.405  -1.258  0.00  0.00     0.051 H 
ENDROOT
BRANCH   1   4
ATOM      4  C3  <0> d           0.718  -0.497  -1.257  0.00  0.00    -0.056 C 
ATOM      5  H6  <0> d           0.191  -0.136  -2.140  0.00  0.00     0.034 H 
ATOM      6  H7  <0> d           1.741  -0.120  -1.264  0.00  0.00     0.034 H 
BRANCH   4   7
ATOM      7  C2  <0> d           0.002  -0.004   0.002  0.00  0.00    -0.068 C 
ATOM      8  H4  <0> d           0.529  -0.365   0.885  0.00  0.00     0.032 H 
ATOM      9  H5  <0> d          -1.020  -0.381   0.010  0.00  0.00     0.032 H 
BRANCH   7  10
ATOM     10  C1  <0> d          -0.019   1.526   0.010  0.00  0.00    -0.076 C 
ATOM     11  H1  <0> d           1.004   1.903   0.003  0.00  0.00     0.027 H 
ATOM     12  H2  <0> d          -0.546   1.887  -0.873  0.00  0.00     0.027 H 
ATOM     13  H3  <0> d          -0.529   1.877   0.907  0.00  0.00     0.027 H 
ENDBRANCH   7  10
ENDBRANCH   4   7
ENDBRANCH   1   4
BRANCH   1  14
ATOM     14  C5  <0> d           1.428  -2.502  -2.476  0.00  0.00    -0.092 C 
ATOM     15  C6  <0> d           1.978  -2.881  -3.442  0.00  0.00    -0.015 C 
BRANCH  15  16
ATOM     16  C7  <0> d           2.622  -3.325  -4.575  0.00  0.00    -0.013 C 
ATOM     17  C8  <0> d           3.171  -3.703  -5.541  0.00  0.00    -0.067 C 
BRANCH  17  18
ATOM     18  C9  <0> d           3.861  -4.178  -6.752  0.00  0.00     0.072 C 
ATOM     19  H10 <0> d           3.333  -3.817  -7.635  0.00  0.00     0.093 H 
ATOM     20  H11 <0> d           4.883  -3.801  -6.760  0.00  0.00     0.093 H 
BRANCH  18  21
ATOM     21  O1  <0> d           3.880  -5.607  -6.760  0.00  0.00    -0.389 OA
ATOM     22  H12 <0> d           4.319  -5.990  -7.531  0.00  0.00     0.210 HD
ENDBRANCH  18  21
ENDBRANCH  17  18
ENDBRANCH  15  16
ENDBRANCH   1  14
TORSDOF 7
