REMARK  3 active torsions:
REMARK  status: ('A' for Active; 'I' for Inactive)
REMARK    1  A    between atoms: C2_2  and  N5_9 
REMARK    2  A    between atoms: C3_4  and  N4_8 
REMARK    3  A    between atoms: C4_6  and  N3_7 
ROOT
ATOM      1  C1  <0> d           1.227  -0.665  -0.013  0.00  0.00     0.006 A 
ATOM      2  C2  <0> d           0.002  -0.004   0.002  0.00  0.00     0.144 A 
ATOM      3  N1  <0> d          -0.016   1.327   0.009  0.00  0.00    -0.046 NA
ATOM      4  C3  <0> d           1.112   2.021   0.002  0.00  0.00     0.724 A 
ATOM      5  N2  <0> d           2.296   1.426  -0.012  0.00  0.00    -0.046 NA
ATOM      6  C4  <0> d           2.391   0.098  -0.020  0.00  0.00     0.144 A 
ATOM      7  H1  <0> d           1.273  -1.744  -0.020  0.00  0.00     0.095 H 
ENDROOT
BRANCH   2   8
ATOM      8  N5  <0> d          -1.183  -0.723   0.010  0.00  0.00    -0.383 N 
ATOM      9  H6  <0> d          -2.034  -0.256   0.021  0.00  0.00     0.157 HD
ATOM     10  H7  <0> d          -1.163  -1.692   0.004  0.00  0.00     0.157 HD
ENDBRANCH   2   8
BRANCH   6  11
ATOM     11  N3  <0> d           3.633  -0.517  -0.035  0.00  0.00    -0.383 N 
ATOM     12  H2  <0> d           3.695  -1.485  -0.040  0.00  0.00     0.157 HD
ATOM     13  H3  <0> d           4.441   0.021  -0.040  0.00  0.00     0.157 HD
ENDBRANCH   6  11
BRANCH   4  14
ATOM     14  N4  <0> d           1.053   3.403   0.010  0.00  0.00    -0.231 N 
ATOM     15  H4  <0> d           0.193   3.852   0.021  0.00  0.00     0.174 HD
ATOM     16  H5  <0> d           1.872   3.924   0.005  0.00  0.00     0.174 HD
ENDBRANCH   4  14
TORSDOF 3
