REMARK  1 active torsions:
REMARK  status: ('A' for Active; 'I' for Inactive)
REMARK    1  A    between atoms: C5_6  and  N2_9 
ROOT
ATOM      1  C1  <0> d          -0.019   1.528   0.010  0.00  0.00     0.001 C 
ATOM      2  C2  <0> d           1.420   2.050  -0.001  0.00  0.00     0.023 C 
ATOM      3  O1  <0> d           2.102   1.539  -1.148  0.00  0.00    -0.391 OA
ATOM      4  C3  <0> d           2.194   0.114  -1.186  0.00  0.00     0.023 C 
ATOM      5  C4  <0> d           0.786  -0.486  -1.222  0.00  0.00     0.001 C 
ATOM      6  C5  <0> d           0.002  -0.004   0.002  0.00  0.00     0.245 C 
ATOM      7  C6  <0> d           0.653  -0.494   1.228  0.00  0.00     0.101 C 
ATOM      8  N1  <0> d           1.155  -0.873   2.174  0.00  0.00    -0.195 NA
ATOM      9  H1  <0> d          -0.527   1.880   0.908  0.00  0.00     0.041 H 
ATOM     10  H2  <0> d          -0.544   1.890  -0.873  0.00  0.00     0.041 H 
ATOM     11  H3  <0> d           1.411   3.139  -0.038  0.00  0.00     0.074 H 
ATOM     12  H4  <0> d           1.933   1.721   0.903  0.00  0.00     0.074 H 
ATOM     13  H5  <0> d           2.743  -0.192  -2.077  0.00  0.00     0.074 H 
ATOM     14  H6  <0> d           2.717  -0.241  -0.297  0.00  0.00     0.074 H 
ATOM     15  H7  <0> d           0.277  -0.165  -2.131  0.00  0.00     0.041 H 
ATOM     16  H8  <0> d           0.853  -1.574  -1.206  0.00  0.00     0.041 H 
ENDROOT
BRANCH   6  17
ATOM     17  N2  <0> d          -1.374  -0.514  -0.064  0.00  0.00     0.102 N 
ATOM     18  H9  <0> d          -1.386  -1.523  -0.070  0.00  0.00     0.315 HD
ATOM     19  H10 <0> d          -1.931  -0.151   0.695  0.00  0.00     0.315 HD
ENDBRANCH   6  17
TORSDOF 1
