REMARK  1 active torsions:
REMARK  status: ('A' for Active; 'I' for Inactive)
REMARK    1  A    between atoms: C4_4  and  C7_7 
ROOT
ATOM      1  C1  <0> d           6.108   3.367  -0.041  0.00  0.00    -0.083 A 
ATOM      2  C2  <0> d           6.078   1.984  -0.047  0.00  0.00    -0.082 A 
ATOM      3  C3  <0> d           4.870   1.318  -0.038  0.00  0.00    -0.071 A 
ATOM      4  C4  <0> d           3.679   2.041  -0.023  0.00  0.00    -0.007 A 
ATOM      5  C5  <0> d           3.715   3.434  -0.021  0.00  0.00    -0.071 A 
ATOM      6  C6  <0> d           4.929   4.090  -0.025  0.00  0.00    -0.082 A 
ATOM      7  H1  <0> d           7.056   3.885  -0.048  0.00  0.00     0.083 H 
ATOM      8  H2  <0> d           7.002   1.425  -0.059  0.00  0.00     0.083 H 
ATOM      9  H3  <0> d           4.848   0.238  -0.043  0.00  0.00     0.084 H 
ATOM     10  H4  <0> d           2.794   3.999  -0.013  0.00  0.00     0.084 H 
ATOM     11  H5  <0> d           4.958   5.169  -0.021  0.00  0.00     0.083 H 
ENDROOT
BRANCH   4  12
ATOM     12  C7  <0> d           2.376   1.330  -0.013  0.00  0.00     0.066 A 
ATOM     13  N1  <0> d           2.351   0.004  -0.020  0.00  0.00    -0.260 NA
ATOM     14  C11 <0> d           1.216  -0.666  -0.013  0.00  0.00     0.003 A 
ATOM     15  C10 <0> d           0.002  -0.004   0.002  0.00  0.00    -0.066 A 
ATOM     16  H9  <0> d           1.234  -1.745  -0.019  0.00  0.00     0.114 H 
ATOM     17  C9  <0> d          -0.017   1.384   0.010  0.00  0.00    -0.079 A 
ATOM     18  H8  <0> d          -0.923  -0.562   0.008  0.00  0.00     0.085 H 
ATOM     19  C8  <0> d           1.190   2.061   0.002  0.00  0.00    -0.054 A 
ATOM     20  H7  <0> d          -0.952   1.923   0.017  0.00  0.00     0.083 H 
ATOM     21  H6  <0> d           1.212   3.140   0.008  0.00  0.00     0.087 H 
ENDBRANCH   4  12
TORSDOF 1
