REMARK  3 active torsions:
REMARK  status: ('A' for Active; 'I' for Inactive)
REMARK    1  A    between atoms: C1_1  and  C2_2 
REMARK    2  A    between atoms: C7_9  and  C9_11 
REMARK    3  A    between atoms: C7_9  and  C10_12 
ROOT
ATOM      1  C2  <0> d          -0.147   0.232   0.328  0.00  0.00    -0.057 C 
ATOM      2  H1  <0> d          -1.152  -0.188   0.288  0.00  0.00     0.039 H 
ATOM      3  C3  <0> d           0.491   0.036  -0.984  0.00  0.00    -0.056 C 
ATOM      4  C4  <0> d           0.518  -1.473  -1.339  0.00  0.00    -0.009 C 
ATOM      5  C5  <0> d           1.476  -2.181  -0.445  0.00  0.00     0.127 C 
ATOM      6  O1  <0> d           2.626  -2.288  -0.797  0.00  0.00    -0.298 OA
ATOM      7  C6  <0> d           1.066  -2.772   0.892  0.00  0.00    -0.003 C 
ATOM      8  C7  <0> d           0.122  -1.830   1.663  0.00  0.00    -0.041 C 
ATOM      9  C8  <0> d           0.593  -0.403   1.496  0.00  0.00    -0.055 C 
ATOM     10  H5  <0> d          -0.072   0.576  -1.745  0.00  0.00     0.034 H 
ATOM     11  H6  <0> d           1.511   0.418  -0.952  0.00  0.00     0.034 H 
ATOM     12  H7  <0> d          -0.479  -1.894  -1.209  0.00  0.00     0.044 H 
ATOM     13  H8  <0> d           0.830  -1.596  -2.376  0.00  0.00     0.044 H 
ATOM     14  H9  <0> d           0.559  -3.722   0.721  0.00  0.00     0.045 H 
ATOM     15  H10 <0> d           1.959  -2.950   1.491  0.00  0.00     0.045 H 
ATOM     16  H11 <0> d           1.665  -0.391   1.299  0.00  0.00     0.034 H 
ATOM     17  H12 <0> d           0.383   0.157   2.408  0.00  0.00     0.034 H 
ENDROOT
BRANCH   8  18
ATOM     18  C9  <0> d           0.133  -2.201   3.148  0.00  0.00    -0.069 C 
ATOM     19  H13 <0> d           1.145  -2.103   3.540  0.00  0.00     0.028 H 
ATOM     20  H14 <0> d          -0.535  -1.535   3.694  0.00  0.00     0.028 H 
ATOM     21  H15 <0> d          -0.204  -3.231   3.267  0.00  0.00     0.028 H 
ENDBRANCH   8  18
BRANCH   8  22
ATOM     22  C10 <0> d          -1.298  -1.969   1.113  0.00  0.00    -0.069 C 
ATOM     23  H16 <0> d          -1.670  -2.974   1.316  0.00  0.00     0.028 H 
ATOM     24  H17 <0> d          -1.947  -1.238   1.595  0.00  0.00     0.028 H 
ATOM     25  H18 <0> d          -1.290  -1.795   0.037  0.00  0.00     0.028 H 
ENDBRANCH   8  22
BRANCH   1  26
ATOM     26  C1  <0> d          -0.263   1.735   0.589  0.00  0.00    -0.073 C 
ATOM     27  H2  <0> d           0.734   2.174   0.632  0.00  0.00     0.028 H 
ATOM     28  H3  <0> d          -0.830   2.201  -0.217  0.00  0.00     0.028 H 
ATOM     29  H4  <0> d          -0.775   1.901   1.536  0.00  0.00     0.028 H 
ENDBRANCH   1  26
TORSDOF 3
