REMARK  4 active torsions:
REMARK  status: ('A' for Active; 'I' for Inactive)
REMARK    1  A    between atoms: C1_1  and  C2_2 
REMARK    2  A    between atoms: C2_2  and  O1_3 
REMARK    3  A    between atoms: O1_3  and  C3_4 
REMARK    4  A    between atoms: C3_4  and  C4_5 
REMARK       I    between atoms: C4_5  and  N1_7 
ROOT
ATOM      1  O1  <0> d          -2.561   3.589   0.034  0.00  0.00    -0.382 OA
ENDROOT
BRANCH   1   2
ATOM      2  C2  <0> d          -2.693   5.011   0.042  0.00  0.00     0.017 C 
ATOM      3  H4  <0> d          -2.211   5.416   0.932  0.00  0.00     0.073 H 
ATOM      4  H5  <0> d          -2.220   5.426  -0.848  0.00  0.00     0.073 H 
BRANCH   2   5
ATOM      5  C1  <0> d          -4.177   5.386   0.051  0.00  0.00    -0.056 C 
ATOM      6  H1  <0> d          -4.278   6.471   0.058  0.00  0.00     0.030 H 
ATOM      7  H2  <0> d          -4.659   4.981  -0.839  0.00  0.00     0.030 H 
ATOM      8  H3  <0> d          -4.651   4.972   0.941  0.00  0.00     0.030 H 
ENDBRANCH   2   5
ENDBRANCH   1   2
BRANCH   1   9
ATOM      9  C3  <0> d          -1.208   3.131   0.025  0.00  0.00     0.092 C 
ATOM     10  H6  <0> d          -0.695   3.496   0.914  0.00  0.00     0.089 H 
ATOM     11  H7  <0> d          -0.703   3.506  -0.866  0.00  0.00     0.089 H 
BRANCH   9  12
ATOM     12  C4  <0> d          -1.187   1.624   0.017  0.00  0.00     0.239 C 
ATOM     13  O2  <0> d          -2.229   1.003   0.018  0.00  0.00    -0.271 OA
ATOM     14  N1  <0> d          -0.011   0.966   0.007  0.00  0.00    -0.368 N 
ATOM     15  H8  <0> d           0.002  -0.004   0.002  0.00  0.00     0.159 HD
ATOM     16  H9  <0> d           0.822   1.462   0.002  0.00  0.00     0.159 HD
ENDBRANCH   9  12
ENDBRANCH   1   9
TORSDOF 4
