REMARK  4 active torsions:
REMARK  status: ('A' for Active; 'I' for Inactive)
REMARK    1  A    between atoms: C1_1  and  C2_2 
REMARK    2  A    between atoms: C2_2  and  C3_3 
REMARK    3  A    between atoms: C3_3  and  C4_4 
REMARK    4  A    between atoms: C6_6  and  C7_9 
ROOT
ATOM      1  C3  <0> d          -0.729   1.579   1.267  0.00  0.00    -0.018 C 
ATOM      2  H6  <0> d          -0.744   2.669   1.273  0.00  0.00     0.043 H 
ATOM      3  H7  <0> d          -1.751   1.202   1.275  0.00  0.00     0.043 H 
ENDROOT
BRANCH   1   4
ATOM      4  C2  <0> d          -0.013   1.086   0.008  0.00  0.00    -0.063 C 
ATOM      5  H4  <0> d           0.002  -0.004   0.002  0.00  0.00     0.033 H 
ATOM      6  H5  <0> d           1.010   1.463   0.000  0.00  0.00     0.033 H 
BRANCH   4   7
ATOM      7  C1  <0> d          -0.753   1.593  -1.232  0.00  0.00    -0.076 C 
ATOM      8  H1  <0> d          -0.242   1.241  -2.128  0.00  0.00     0.027 H 
ATOM      9  H2  <0> d          -1.775   1.215  -1.224  0.00  0.00     0.027 H 
ATOM     10  H3  <0> d          -0.767   2.683  -1.226  0.00  0.00     0.027 H 
ENDBRANCH   4   7
ENDBRANCH   1   4
BRANCH   1  11
ATOM     11  C4  <0> d           0.000   1.080   2.488  0.00  0.00     0.081 A 
ATOM     12  O1  <0> d          -0.226  -0.069   3.140  0.00  0.00    -0.217 OA
ATOM     13  N1  <0> d           0.519  -0.204   4.084  0.00  0.00    -0.121 NA
ATOM     14  C6  <0> d           1.329   0.819   4.205  0.00  0.00     0.163 A 
ATOM     15  C5  <0> d           1.005   1.707   3.141  0.00  0.00    -0.015 A 
ATOM     16  H8  <0> d           1.457   2.660   2.909  0.00  0.00     0.091 H 
BRANCH  14  17
ATOM     17  C7  <0> d           2.371   1.012   5.241  0.00  0.00     0.231 C 
ATOM     18  O2  <0> d           3.055   2.015   5.234  0.00  0.00    -0.643 OA
ATOM     19  O3  <0> d           2.559   0.075   6.189  0.00  0.00    -0.643 OA
ENDBRANCH  14  17
ENDBRANCH   1  11
TORSDOF 4
