REMARK  3 active torsions:
REMARK  status: ('A' for Active; 'I' for Inactive)
REMARK    1  A    between atoms: C1_1  and  C2_2 
REMARK    2  A    between atoms: C5_5  and  C6_6 
REMARK    3  A    between atoms: C5_5  and  C7_7 
ROOT
ATOM      1  C2  <0> d           0.002  -0.004   0.002  0.00  0.00    -0.061 A 
ATOM      2  C3  <0> d          -1.095  -0.789   0.003  0.00  0.00    -0.067 A 
ATOM      3  C4  <0> d          -0.624  -2.188  -0.007  0.00  0.00    -0.034 A 
ATOM      4  C5  <0> d          -1.382  -3.310  -0.011  0.00  0.00    -0.077 C 
ATOM      5  C8  <0> d           0.850  -2.104  -0.014  0.00  0.00    -0.072 A 
ATOM      6  C9  <0> d           1.169  -0.793  -0.014  0.00  0.00    -0.076 A 
ATOM      7  H4  <0> d          -2.123  -0.458   0.010  0.00  0.00     0.085 H 
ATOM      8  H11 <0> d           1.541  -2.933  -0.022  0.00  0.00     0.084 H 
ATOM      9  H12 <0> d           2.177  -0.404  -0.021  0.00  0.00     0.084 H 
ENDROOT
BRANCH   4  10
ATOM     10  C6  <0> d          -2.885  -3.203  -0.003  0.00  0.00    -0.054 C 
ATOM     11  H5  <0> d          -3.252  -3.172  -1.029  0.00  0.00     0.033 H 
ATOM     12  H6  <0> d          -3.308  -4.068   0.508  0.00  0.00     0.033 H 
ATOM     13  H7  <0> d          -3.182  -2.293   0.517  0.00  0.00     0.033 H 
ENDBRANCH   4  10
BRANCH   4  14
ATOM     14  C7  <0> d          -0.722  -4.665  -0.021  0.00  0.00    -0.054 C 
ATOM     15  H8  <0> d          -0.097  -4.772   0.865  0.00  0.00     0.033 H 
ATOM     16  H9  <0> d          -1.487  -5.441  -0.023  0.00  0.00     0.033 H 
ATOM     17  H10 <0> d          -0.105  -4.761  -0.915  0.00  0.00     0.033 H 
ENDBRANCH   4  14
BRANCH   1  18
ATOM     18  C1  <0> d          -0.018   1.503   0.010  0.00  0.00    -0.051 C 
ATOM     19  H1  <0> d           1.004   1.880   0.003  0.00  0.00     0.033 H 
ATOM     20  H2  <0> d          -0.545   1.864  -0.873  0.00  0.00     0.033 H 
ATOM     21  H3  <0> d          -0.529   1.854   0.907  0.00  0.00     0.033 H 
ENDBRANCH   1  18
TORSDOF 3
