REMARK  0 active torsions:
REMARK  status: ('A' for Active; 'I' for Inactive)
ROOT
ATOM      1  C1  <0> d          -0.017   1.376   0.010  0.00  0.00    -0.079 A 
ATOM      2  C2  <0> d           1.182   2.077   0.002  0.00  0.00    -0.045 A 
ATOM      3  C3  <0> d           2.389   1.426  -0.013  0.00  0.00     0.128 A 
ATOM      4  C4  <0> d           2.445   0.010  -0.021  0.00  0.00     0.020 A 
ATOM      5  C5  <0> d           3.615  -0.855  -0.036  0.00  0.00    -0.062 A 
ATOM      6  C6  <0> d           3.448  -2.185  -0.042  0.00  0.00    -0.043 A 
ATOM      7  S1  <0> d           1.677  -2.383  -0.026  0.00  0.00    -0.101 SA
ATOM      8  C7  <0> d           1.209  -0.671  -0.013  0.00  0.00     0.018 A 
ATOM      9  C8  <0> d           0.002  -0.004   0.002  0.00  0.00    -0.065 A 
ATOM     10  F1  <0> d           3.535   2.141  -0.021  0.00  0.00    -0.205 F 
ATOM     11  H1  <0> d          -0.957   1.907   0.026  0.00  0.00     0.083 H 
ATOM     12  H2  <0> d           1.163   3.157   0.007  0.00  0.00     0.088 H 
ATOM     13  H3  <0> d           4.608  -0.430  -0.044  0.00  0.00     0.085 H 
ATOM     14  H4  <0> d           4.206  -2.954  -0.053  0.00  0.00     0.095 H 
ATOM     15  H5  <0> d          -0.924  -0.559   0.008  0.00  0.00     0.085 H 
ENDROOT
TORSDOF 0
