REMARK  3 active torsions:
REMARK  status: ('A' for Active; 'I' for Inactive)
REMARK    1  A    between atoms: C1_1  and  C2_2 
REMARK    2  A    between atoms: C2_2  and  C3_3 
REMARK    3  A    between atoms: C3_3  and  C4_4 
ROOT
ATOM      1  C4  <0> d           0.763  -2.041   1.233  0.00  0.00    -0.037 C 
ATOM      2  H1  <0> d          -0.250  -2.433   1.139  0.00  0.00     0.045 H 
ATOM      3  C5  <0> d           1.431  -2.578   2.520  0.00  0.00    -0.056 C 
ATOM      4  C6  <0> d           2.189  -3.812   1.979  0.00  0.00    -0.049 C 
ATOM      5  C7  <0> d           2.411  -3.515   0.514  0.00  0.00    -0.106 C 
ATOM      6  C8  <0> d           1.631  -2.549   0.106  0.00  0.00    -0.102 C 
ATOM      7  H9  <0> d           2.123  -1.845   2.936  0.00  0.00     0.034 H 
ATOM      8  H10 <0> d           0.683  -2.869   3.257  0.00  0.00     0.034 H 
ATOM      9  H11 <0> d           3.143  -3.927   2.493  0.00  0.00     0.038 H 
ATOM     10  H12 <0> d           1.583  -4.711   2.097  0.00  0.00     0.038 H 
ATOM     11  H13 <0> d           3.120  -4.034  -0.113  0.00  0.00     0.076 H 
ATOM     12  H14 <0> d           1.610  -2.164  -0.903  0.00  0.00     0.076 H 
ENDROOT
BRANCH   1  13
ATOM     13  C3  <0> d           0.742  -0.511   1.242  0.00  0.00    -0.059 C 
ATOM     14  H7  <0> d           1.765  -0.134   1.234  0.00  0.00     0.033 H 
ATOM     15  H8  <0> d           0.232  -0.159   2.138  0.00  0.00     0.033 H 
BRANCH  13  16
ATOM     16  C2  <0> d           0.002  -0.004   0.002  0.00  0.00    -0.068 C 
ATOM     17  H5  <0> d          -1.020  -0.381   0.010  0.00  0.00     0.032 H 
ATOM     18  H6  <0> d           0.512  -0.356  -0.895  0.00  0.00     0.032 H 
BRANCH  16  19
ATOM     19  C1  <0> d          -0.019   1.526   0.010  0.00  0.00    -0.077 C 
ATOM     20  H2  <0> d           1.004   1.903   0.003  0.00  0.00     0.027 H 
ATOM     21  H3  <0> d          -0.546   1.887  -0.873  0.00  0.00     0.027 H 
ATOM     22  H4  <0> d          -0.529   1.877   0.907  0.00  0.00     0.027 H 
ENDBRANCH  16  19
ENDBRANCH  13  16
ENDBRANCH   1  13
TORSDOF 3
