REMARK  0 active torsions:
REMARK  status: ('A' for Active; 'I' for Inactive)
ROOT
ATOM      1  C1  <0> d          -0.019   1.530   0.011  0.00  0.00    -0.016 C 
ATOM      2  C2  <0> d           1.429   2.037  -0.001  0.00  0.00     0.048 C 
ATOM      3  C3  <0> d           2.131   1.551   1.274  0.00  0.00    -0.016 C 
ATOM      4  C4  <0> d           2.148   0.017   1.267  0.00  0.00     0.048 C 
ATOM      5  C5  <0> d           0.700  -0.491   1.279  0.00  0.00    -0.016 C 
ATOM      6  C6  <0> d           0.002  -0.004   0.002  0.00  0.00     0.048 C 
ATOM      7  O1  <0> d           0.765  -0.443  -1.129  0.00  0.00    -0.333 OA
ATOM      8  C7  <0> d           2.112   0.038  -1.127  0.00  0.00     0.235 C 
ATOM      9  O2  <0> d           2.101   1.469  -1.132  0.00  0.00    -0.333 OA
ATOM     10  O3  <0> d           2.774  -0.423   0.055  0.00  0.00    -0.333 OA
ATOM     11  H1  <0> d          -0.541   1.894  -0.874  0.00  0.00     0.040 H 
ATOM     12  H2  <0> d          -0.524   1.885   0.909  0.00  0.00     0.040 H 
ATOM     13  H3  <0> d           1.445   3.126  -0.046  0.00  0.00     0.083 H 
ATOM     14  H4  <0> d           1.588   1.907   2.149  0.00  0.00     0.040 H 
ATOM     15  H5  <0> d           3.153   1.928   1.295  0.00  0.00     0.040 H 
ATOM     16  H6  <0> d           2.684  -0.356   2.139  0.00  0.00     0.083 H 
ATOM     17  H7  <0> d           0.181  -0.098   2.153  0.00  0.00     0.040 H 
ATOM     18  H8  <0> d           0.695  -1.581   1.306  0.00  0.00     0.040 H 
ATOM     19  H9  <0> d          -1.015  -0.393  -0.042  0.00  0.00     0.083 H 
ATOM     20  H10 <0> d           2.633  -0.327  -2.013  0.00  0.00     0.179 H 
ENDROOT
TORSDOF 0
