REMARK  1 active torsions:
REMARK  status: ('A' for Active; 'I' for Inactive)
REMARK    1  A    between atoms: C3_3  and  N2_7 
ROOT
ATOM      1  C1  <0> d          -0.013   1.076   0.008  0.00  0.00    -0.064 A 
ATOM      2  C2  <0> d          -1.217   1.760   0.017  0.00  0.00    -0.055 A 
ATOM      3  C3  <0> d          -1.187   3.152   0.030  0.00  0.00     0.043 A 
ATOM      4  C4  <0> d           0.042   3.800   0.022  0.00  0.00     0.027 A 
ATOM      5  N1  <0> d           1.165   3.110   0.008  0.00  0.00    -0.271 NA
ATOM      6  C5  <0> d           1.170   1.791   0.001  0.00  0.00     0.002 A 
ATOM      7  H1  <0> d           0.002  -0.004   0.002  0.00  0.00     0.085 H 
ATOM      8  H2  <0> d          -2.156   1.227   0.019  0.00  0.00     0.087 H 
ATOM      9  H3  <0> d           0.078   4.879   0.027  0.00  0.00     0.118 H 
ATOM     10  H4  <0> d           2.112   1.262  -0.011  0.00  0.00     0.114 H 
ENDROOT
BRANCH   3  11
ATOM     11  N2  <0> d          -2.375   3.887   0.045  0.00  0.00    -0.398 N 
ATOM     12  H5  <0> d          -2.346   4.857   0.049  0.00  0.00     0.156 HD
ATOM     13  H6  <0> d          -3.229   3.428   0.050  0.00  0.00     0.156 HD
ENDBRANCH   3  11
TORSDOF 1
