REMARK  0 active torsions:
REMARK  status: ('A' for Active; 'I' for Inactive)
ROOT
ATOM      1  C1  <0> d          -0.016   1.303   0.009  0.00  0.00     0.111 A 
ATOM      2  N1  <0> d           1.239   1.753  -0.000  0.00  0.00    -0.208 NA
ATOM      3  C2  <0> d           2.073   0.743  -0.014  0.00  0.00     0.244 A 
ATOM      4  N2  <0> d           1.352  -0.392  -0.013  0.00  0.00    -0.116 NA
ATOM      5  N3  <0> d           0.002  -0.004   0.002  0.00  0.00    -0.140 NA
ATOM      6 Cl1  <0> d           3.805   0.852  -0.031  0.00  0.00    -0.040 Cl
ATOM      7  H1  <0> d          -0.903   1.918   0.025  0.00  0.00     0.149 H 
ENDROOT
TORSDOF 0
