REMARK  2 active torsions:
REMARK  status: ('A' for Active; 'I' for Inactive)
REMARK    1  A    between atoms: C2_2  and  C3_3 
REMARK    2  A    between atoms: C3_3  and  N1_4 
ROOT
ATOM      1  N1  <0> d          -1.318  -1.700  -1.126  0.00  0.00    -0.377 N 
ATOM      2  C4  <0> d          -1.837  -1.379  -2.458  0.00  0.00    -0.001 A 
ATOM      3  C5  <0> d          -1.643  -2.660  -3.286  0.00  0.00    -0.024 A 
ATOM      4  C6  <0> d          -1.008  -3.640  -2.325  0.00  0.00    -0.030 A 
ATOM      5  C7  <0> d          -0.845  -3.013  -1.099  0.00  0.00     0.036 A 
ATOM      6  C8  <0> d          -0.268  -3.724  -0.045  0.00  0.00    -0.057 A 
ATOM      7  C9  <0> d           0.138  -5.029  -0.227  0.00  0.00    -0.081 A 
ATOM      8  C10 <0> d          -0.025  -5.644  -1.455  0.00  0.00    -0.082 A 
ATOM      9  C11 <0> d          -0.605  -4.949  -2.501  0.00  0.00    -0.075 A 
ATOM     10  H6  <0> d          -2.894  -1.122  -2.400  0.00  0.00     0.064 H 
ATOM     11  H7  <0> d          -1.271  -0.556  -2.896  0.00  0.00     0.064 H 
ATOM     12  H8  <0> d          -2.604  -3.037  -3.633  0.00  0.00     0.042 H 
ATOM     13  H9  <0> d          -0.980  -2.471  -4.130  0.00  0.00     0.042 H 
ATOM     14  H10 <0> d          -0.138  -3.250   0.916  0.00  0.00     0.086 H 
ATOM     15  H11 <0> d           0.584  -5.573   0.592  0.00  0.00     0.083 H 
ATOM     16  H12 <0> d           0.293  -6.667  -1.595  0.00  0.00     0.083 H 
ATOM     17  H13 <0> d          -0.731  -5.428  -3.461  0.00  0.00     0.084 H 
ENDROOT
BRANCH   1  18
ATOM     18  C3  <0> d          -1.293  -0.775   0.010  0.00  0.00     0.009 C 
ATOM     19  H4  <0> d          -1.374  -1.339   0.939  0.00  0.00     0.070 H 
ATOM     20  H5  <0> d          -2.130  -0.081  -0.068  0.00  0.00     0.070 H 
BRANCH  18  21
ATOM     21  C2  <0> d           0.002  -0.004   0.002  0.00  0.00    -0.095 C 
ATOM     22  C1  <0> d          -0.016   1.306   0.009  0.00  0.00    -0.123 C 
ATOM     23  H1  <0> d           0.912   1.859   0.003  0.00  0.00     0.066 H 
ATOM     24  H2  <0> d          -0.958   1.833   0.017  0.00  0.00     0.066 H 
ATOM     25  H3  <0> d           0.945  -0.531  -0.010  0.00  0.00     0.078 H 
ENDBRANCH  18  21
ENDBRANCH   1  18
TORSDOF 2
