REMARK  1 active torsions:
REMARK  status: ('A' for Active; 'I' for Inactive)
REMARK    1  A    between atoms: C1_1  and  C2_2 
ROOT
ATOM      1  C2  <0> d          -1.220   1.750   0.017  0.00  0.00    -0.059 A 
ATOM      2  C3  <0> d          -0.013   1.076   0.008  0.00  0.00    -0.077 A 
ATOM      3  C4  <0> d           1.175   1.783   0.000  0.00  0.00    -0.080 A 
ATOM      4  C5  <0> d           1.158   3.165   0.007  0.00  0.00    -0.046 A 
ATOM      5  C6  <0> d          -0.050   3.841   0.022  0.00  0.00     0.116 A 
ATOM      6  C7  <0> d          -1.240   3.132   0.030  0.00  0.00    -0.040 A 
ATOM      7  F1  <0> d          -0.068   5.192   0.030  0.00  0.00    -0.206 F 
ATOM      8  H4  <0> d           0.002  -0.004   0.002  0.00  0.00     0.084 H 
ATOM      9  H5  <0> d           2.117   1.255  -0.011  0.00  0.00     0.083 H 
ATOM     10  H6  <0> d           2.086   3.717   0.001  0.00  0.00     0.088 H 
ATOM     11  H7  <0> d          -2.182   3.658   0.042  0.00  0.00     0.089 H 
ENDROOT
BRANCH   1  12
ATOM     12  C1  <0> d          -2.514   0.978   0.020  0.00  0.00    -0.051 C 
ATOM     13  H1  <0> d          -2.821   0.787   1.048  0.00  0.00     0.033 H 
ATOM     14  H2  <0> d          -3.284   1.559  -0.487  0.00  0.00     0.033 H 
ATOM     15  H3  <0> d          -2.372   0.030  -0.500  0.00  0.00     0.033 H 
ENDBRANCH   1  12
TORSDOF 1
