REMARK  6 active torsions:
REMARK  status: ('A' for Active; 'I' for Inactive)
REMARK    1  A    between atoms: C1_1  and  C2_2 
REMARK    2  A    between atoms: C2_2  and  C4_4 
REMARK    3  A    between atoms: C4_4  and  C5_5 
REMARK    4  A    between atoms: C4_4  and  C6_6 
REMARK    5  A    between atoms: C4_4  and  C7_7 
REMARK    6  A    between atoms: C7_7  and  O1_8 
ROOT
ATOM      1  C4  <0> d          -2.451   0.944   0.019  0.00  0.00    -0.004 C 
ENDROOT
BRANCH   1   2
ATOM      2  C2  <0> d          -1.156   1.715   0.017  0.00  0.00    -0.083 C 
ATOM      3  C3  <0> d          -0.013   1.076   0.008  0.00  0.00    -0.119 C 
ATOM      4  H4  <0> d           0.002  -0.004   0.002  0.00  0.00     0.067 H 
ATOM      5  H5  <0> d           0.915   1.629   0.002  0.00  0.00     0.067 H 
BRANCH   2   6
ATOM      6  C1  <0> d          -1.176   3.222   0.025  0.00  0.00    -0.054 C 
ATOM      7  H1  <0> d          -1.186   3.591  -1.000  0.00  0.00     0.033 H 
ATOM      8  H2  <0> d          -2.069   3.571   0.545  0.00  0.00     0.033 H 
ATOM      9  H3  <0> d          -0.289   3.595   0.537  0.00  0.00     0.033 H 
ENDBRANCH   2   6
ENDBRANCH   1   2
BRANCH   1  10
ATOM     10  C5  <0> d          -3.264   1.310  -1.225  0.00  0.00    -0.064 C 
ATOM     11  H6  <0> d          -2.693   1.059  -2.119  0.00  0.00     0.028 H 
ATOM     12  H7  <0> d          -4.200   0.752  -1.223  0.00  0.00     0.028 H 
ATOM     13  H8  <0> d          -3.477   2.378  -1.218  0.00  0.00     0.028 H 
ENDBRANCH   1  10
BRANCH   1  14
ATOM     14  C6  <0> d          -2.151  -0.556   0.009  0.00  0.00    -0.064 C 
ATOM     15  H9  <0> d          -1.571  -0.817   0.895  0.00  0.00     0.028 H 
ATOM     16  H10 <0> d          -3.087  -1.114   0.011  0.00  0.00     0.028 H 
ATOM     17  H11 <0> d          -1.580  -0.807  -0.885  0.00  0.00     0.028 H 
ENDBRANCH   1  14
BRANCH   1  18
ATOM     18  C7  <0> d          -3.252   1.296   1.274  0.00  0.00     0.027 C 
ATOM     19  H12 <0> d          -2.673   1.036   2.160  0.00  0.00     0.075 H 
ATOM     20  H13 <0> d          -3.466   2.365   1.281  0.00  0.00     0.075 H 
BRANCH  18  21
ATOM     21  O1  <0> d          -4.480   0.565   1.276  0.00  0.00    -0.400 OA
ATOM     22  H14 <0> d          -5.040   0.739   2.044  0.00  0.00     0.209 HD
ENDBRANCH  18  21
ENDBRANCH   1  18
TORSDOF 6
