REMARK  2 active torsions:
REMARK  status: ('A' for Active; 'I' for Inactive)
REMARK    1  A    between atoms: C2_2  and  C7_9 
REMARK    2  A    between atoms: C6_6  and  N1_7 
REMARK       I    between atoms: C7_9  and  N2_11 
ROOT
ATOM      1  C1  <0> d          -0.017   1.382   0.010  0.00  0.00    -0.042 A 
ATOM      2  C2  <0> d           1.184   2.092   0.002  0.00  0.00     0.036 A 
ATOM      3  C3  <0> d           2.397   1.403  -0.013  0.00  0.00    -0.030 A 
ATOM      4  C4  <0> d           2.406   0.021  -0.021  0.00  0.00     0.119 A 
ATOM      5  C5  <0> d           1.215  -0.683  -0.014  0.00  0.00    -0.021 A 
ATOM      6  C6  <0> d           0.002  -0.004   0.002  0.00  0.00     0.029 A 
ATOM      7  F1  <0> d           3.582  -0.645  -0.036  0.00  0.00    -0.206 F 
ATOM      8  H1  <0> d          -0.958   1.911   0.026  0.00  0.00     0.088 H 
ATOM      9  H2  <0> d           3.329   1.950  -0.020  0.00  0.00     0.089 H 
ATOM     10  H3  <0> d           1.227  -1.763  -0.020  0.00  0.00     0.091 H 
ENDROOT
BRANCH   2  11
ATOM     11  C7  <0> d           1.171   3.571   0.010  0.00  0.00     0.249 C 
ATOM     12  O1  <0> d           0.113   4.170   0.022  0.00  0.00    -0.268 OA
ATOM     13  N2  <0> d           2.332   4.255   0.002  0.00  0.00    -0.366 N 
ATOM     14  H6  <0> d           3.176   3.778  -0.008  0.00  0.00     0.159 HD
ATOM     15  H7  <0> d           2.324   5.225   0.007  0.00  0.00     0.159 HD
ENDBRANCH   2  11
BRANCH   6  16
ATOM     16  N1  <0> d          -1.198  -0.719   0.010  0.00  0.00    -0.399 N 
ATOM     17  H4  <0> d          -2.045  -0.245   0.021  0.00  0.00     0.156 HD
ATOM     18  H5  <0> d          -1.185  -1.689   0.005  0.00  0.00     0.156 HD
ENDBRANCH   6  16
TORSDOF 2
