REMARK  7 active torsions:
REMARK  status: ('A' for Active; 'I' for Inactive)
REMARK    1  A    between atoms: C1_1  and  C2_2 
REMARK    2  A    between atoms: C2_2  and  C3_3 
REMARK    3  A    between atoms: C3_3  and  C4_4 
REMARK    4  A    between atoms: C4_4  and  C5_5 
REMARK    5  A    between atoms: C6_6  and  C7_7 
REMARK    6  A    between atoms: C7_7  and  C8_9 
REMARK    7  A    between atoms: C7_7  and  O1_10 
ROOT
ATOM      1  C4  <0> d          -0.013   1.086   0.008  0.00  0.00    -0.050 C 
ATOM      2  H9  <0> d           0.002  -0.004   0.002  0.00  0.00     0.038 H 
ATOM      3  H10 <0> d           1.010   1.463   0.000  0.00  0.00     0.038 H 
ENDROOT
BRANCH   1   4
ATOM      4  C3  <0> d          -0.753   1.593  -1.232  0.00  0.00    -0.062 C 
ATOM      5  H7  <0> d          -1.775   1.215  -1.224  0.00  0.00     0.033 H 
ATOM      6  H8  <0> d          -0.767   2.683  -1.226  0.00  0.00     0.033 H 
BRANCH   4   7
ATOM      7  C2  <0> d          -0.037   1.099  -2.490  0.00  0.00    -0.068 C 
ATOM      8  H5  <0> d           0.986   1.476  -2.498  0.00  0.00     0.032 H 
ATOM      9  H6  <0> d          -0.022   0.009  -2.496  0.00  0.00     0.032 H 
BRANCH   7  10
ATOM     10  C1  <0> d          -0.777   1.606  -3.730  0.00  0.00    -0.077 C 
ATOM     11  H2  <0> d          -0.266   1.254  -4.627  0.00  0.00     0.027 H 
ATOM     12  H3  <0> d          -1.799   1.229  -3.722  0.00  0.00     0.027 H 
ATOM     13  H4  <0> d          -0.791   2.696  -3.724  0.00  0.00     0.027 H 
ENDBRANCH   7  10
ENDBRANCH   4   7
ENDBRANCH   1   4
BRANCH   1  14
ATOM     14  C5  <0> d          -0.718   1.572   1.248  0.00  0.00    -0.104 C 
ATOM     15  C6  <0> d          -1.109   0.714   2.158  0.00  0.00    -0.080 C 
ATOM     16  H12 <0> d          -0.926  -0.341   2.019  0.00  0.00     0.080 H 
ATOM     17  H11 <0> d          -0.901   2.627   1.387  0.00  0.00     0.076 H 
BRANCH  15  18
ATOM     18  C7  <0> d          -1.815   1.200   3.397  0.00  0.00     0.048 C 
ATOM     19  H1  <0> d          -1.197   0.994   4.271  0.00  0.00     0.088 H 
BRANCH  18  20
ATOM     20  C8  <0> d          -3.156   0.477   3.538  0.00  0.00    -0.049 C 
ATOM     21  H13 <0> d          -2.983  -0.597   3.615  0.00  0.00     0.031 H 
ATOM     22  H14 <0> d          -3.666   0.829   4.435  0.00  0.00     0.031 H 
ATOM     23  H15 <0> d          -3.773   0.684   2.664  0.00  0.00     0.031 H 
ENDBRANCH  18  20
BRANCH  18  24
ATOM     24  O1  <0> d          -2.041   2.608   3.296  0.00  0.00    -0.392 OA
ATOM     25  H16 <0> d          -2.585   2.865   2.539  0.00  0.00     0.210 HD
ENDBRANCH  18  24
ENDBRANCH  15  18
ENDBRANCH   1  14
TORSDOF 7
