REMARK  5 active torsions:
REMARK  status: ('A' for Active; 'I' for Inactive)
REMARK    1  A    between atoms: C1_1  and  C2_2 
REMARK    2  A    between atoms: C4_4  and  C7_9 
REMARK    3  A    between atoms: C5_5  and  C6_8 
REMARK    4  A    between atoms: C7_9  and  O2_11 
REMARK    5  A    between atoms: O2_11  and  C8_12 
ROOT
ATOM      1  C2  <0> d          -2.213   2.605   5.098  0.00  0.00     0.006 A 
ATOM      2  C3  <0> d          -2.000   2.463   3.779  0.00  0.00    -0.044 A 
ATOM      3  C4  <0> d          -0.799   1.631   3.641  0.00  0.00     0.063 A 
ATOM      4  C5  <0> d          -0.385   1.347   4.925  0.00  0.00     0.021 A 
ATOM      5  N1  <0> d          -1.240   1.937   5.782  0.00  0.00    -0.363 N 
ATOM      6  H1  <0> d          -1.173   1.892   6.749  0.00  0.00     0.165 HD
ATOM      7  H5  <0> d          -2.595   2.877   2.979  0.00  0.00     0.088 H 
ENDROOT
BRANCH   3   8
ATOM      8  C7  <0> d          -0.164   1.192   2.389  0.00  0.00     0.294 C 
ATOM      9  O1  <0> d           0.838   0.505   2.424  0.00  0.00    -0.259 OA
BRANCH   8  10
ATOM     10  O2  <0> d          -0.692   1.554   1.203  0.00  0.00    -0.322 OA
BRANCH  10  11
ATOM     11  C8  <0> d          -0.013   1.086   0.008  0.00  0.00     0.013 C 
ATOM     12  H9  <0> d           0.002  -0.004   0.002  0.00  0.00     0.067 H 
ATOM     13  H10 <0> d           1.010   1.463   0.000  0.00  0.00     0.067 H 
ATOM     14  H11 <0> d          -0.540   1.447  -0.875  0.00  0.00     0.067 H 
ENDBRANCH  10  11
ENDBRANCH   8  10
ENDBRANCH   3   8
BRANCH   4  15
ATOM     15  C6  <0> d           0.817   0.521   5.304  0.00  0.00    -0.036 C 
ATOM     16  H6  <0> d           1.689   1.169   5.394  0.00  0.00     0.035 H 
ATOM     17  H7  <0> d           0.632   0.026   6.257  0.00  0.00     0.035 H 
ATOM     18  H8  <0> d           0.999  -0.229   4.535  0.00  0.00     0.035 H 
ENDBRANCH   4  15
BRANCH   1  19
ATOM     19  C1  <0> d          -3.343   3.383   5.723  0.00  0.00    -0.037 C 
ATOM     20  H2  <0> d          -3.033   4.417   5.872  0.00  0.00     0.035 H 
ATOM     21  H3  <0> d          -4.211   3.355   5.064  0.00  0.00     0.035 H 
ATOM     22  H4  <0> d          -3.603   2.938   6.684  0.00  0.00     0.035 H 
ENDBRANCH   1  19
TORSDOF 5
