REMARK  6 active torsions:
REMARK  status: ('A' for Active; 'I' for Inactive)
REMARK    1  A    between atoms: C1_1  and  C2_2 
REMARK    2  A    between atoms: C2_2  and  C3_3 
REMARK    3  A    between atoms: C4_4  and  C5_5 
REMARK    4  A    between atoms: C5_5  and  C6_6 
REMARK    5  A    between atoms: C6_6  and  C7_8 
REMARK    6  A    between atoms: C6_6  and  O1_9 
ROOT
ATOM      1  C3  <0> d          -0.098   2.269  -2.126  0.00  0.00    -0.107 C 
ATOM      2  C4  <0> d          -0.742   1.585  -1.213  0.00  0.00    -0.104 C 
ATOM      3  H7  <0> d           0.955   2.475  -2.004  0.00  0.00     0.076 H 
ATOM      4  H8  <0> d          -1.795   1.379  -1.335  0.00  0.00     0.076 H 
ENDROOT
BRANCH   2   5
ATOM      5  C5  <0> d          -0.013   1.086   0.008  0.00  0.00    -0.026 C 
ATOM      6  H9  <0> d           0.002  -0.004   0.002  0.00  0.00     0.042 H 
ATOM      7  H10 <0> d           1.010   1.463   0.000  0.00  0.00     0.042 H 
BRANCH   5   8
ATOM      8  C6  <0> d          -0.729   1.579   1.267  0.00  0.00     0.035 C 
ATOM      9  H1  <0> d          -0.822   2.665   1.230  0.00  0.00     0.082 H 
BRANCH   8  10
ATOM     10  C7  <0> d           0.079   1.179   2.503  0.00  0.00    -0.052 C 
ATOM     11  H11 <0> d           1.071   1.627   2.450  0.00  0.00     0.030 H 
ATOM     12  H12 <0> d          -0.432   1.530   3.400  0.00  0.00     0.030 H 
ATOM     13  H13 <0> d           0.172   0.093   2.540  0.00  0.00     0.030 H 
ENDBRANCH   8  10
BRANCH   8  14
ATOM     14  O1  <0> d          -2.030   0.991   1.336  0.00  0.00    -0.396 OA
ATOM     15  H14 <0> d          -2.023   0.025   1.372  0.00  0.00     0.210 HD
ENDBRANCH   8  14
ENDBRANCH   5   8
ENDBRANCH   2   5
BRANCH   1  16
ATOM     16  C2  <0> d          -0.827   2.768  -3.347  0.00  0.00    -0.053 C 
ATOM     17  H5  <0> d          -0.428   2.277  -4.234  0.00  0.00     0.038 H 
ATOM     18  H6  <0> d          -1.889   2.543  -3.253  0.00  0.00     0.038 H 
BRANCH  16  19
ATOM     19  C1  <0> d          -0.635   4.281  -3.472  0.00  0.00    -0.073 C 
ATOM     20  H2  <0> d          -1.162   4.642  -4.355  0.00  0.00     0.027 H 
ATOM     21  H3  <0> d          -1.034   4.773  -2.585  0.00  0.00     0.027 H 
ATOM     22  H4  <0> d           0.427   4.506  -3.566  0.00  0.00     0.027 H 
ENDBRANCH  16  19
ENDBRANCH   1  16
TORSDOF 6
