REMARK  3 active torsions:
REMARK  status: ('A' for Active; 'I' for Inactive)
REMARK    1  A    between atoms: C1_1  and  C2_2 
REMARK    2  A    between atoms: C4_4  and  N3_9 
REMARK    3  A    between atoms: C5_6  and  C6_8 
ROOT
ATOM      1  C2  <0> d           2.390   1.269  -0.014  0.00  0.00     0.057 A 
ATOM      2  C3  <0> d           1.212   2.020   0.001  0.00  0.00     0.114 A 
ATOM      3  C4  <0> d          -0.016   1.325   0.009  0.00  0.00     0.146 A 
ATOM      4  N1  <0> d           0.002  -0.004   0.002  0.00  0.00    -0.215 NA
ATOM      5  C5  <0> d           1.142  -0.664  -0.012  0.00  0.00     0.124 A 
ATOM      6  N2  <0> d           2.310  -0.051  -0.020  0.00  0.00    -0.237 NA
ATOM      7  C7  <0> d           1.249   3.451   0.008  0.00  0.00     0.105 C 
ATOM      8  N4  <0> d           1.279   4.587   0.014  0.00  0.00    -0.191 NA
ENDROOT
BRANCH   1   9
ATOM      9  C1  <0> d           3.733   1.954  -0.024  0.00  0.00    -0.034 C 
ATOM     10  H1  <0> d           4.046   2.124  -1.054  0.00  0.00     0.035 H 
ATOM     11  H2  <0> d           3.658   2.909   0.496  0.00  0.00     0.035 H 
ATOM     12  H3  <0> d           4.466   1.323   0.480  0.00  0.00     0.035 H 
ENDBRANCH   1   9
BRANCH   3  13
ATOM     13  N3  <0> d          -1.213   2.012   0.019  0.00  0.00    -0.383 N 
ATOM     14  H7  <0> d          -2.052   1.525   0.020  0.00  0.00     0.157 HD
ATOM     15  H8  <0> d          -1.215   2.982   0.024  0.00  0.00     0.157 HD
ENDBRANCH   3  13
BRANCH   5  16
ATOM     16  C6  <0> d           1.111  -2.171  -0.020  0.00  0.00    -0.019 C 
ATOM     17  H4  <0> d           1.093  -2.529  -1.049  0.00  0.00     0.037 H 
ATOM     18  H5  <0> d           1.998  -2.555   0.484  0.00  0.00     0.037 H 
ATOM     19  H6  <0> d           0.218  -2.518   0.501  0.00  0.00     0.037 H 
ENDBRANCH   5  16
TORSDOF 3
