REMARK  1 active torsions:
REMARK  status: ('A' for Active; 'I' for Inactive)
REMARK    1  A    between atoms: C1_1  and  C2_2 
ROOT
ATOM      1  C2  <0> d           0.002  -0.004   0.002  0.00  0.00    -0.037 A 
ATOM      2  C3  <0> d           0.006  -0.689  -1.199  0.00  0.00    -0.075 A 
ATOM      3  C4  <0> d           0.025  -2.071  -1.208  0.00  0.00    -0.080 A 
ATOM      4  C5  <0> d           0.039  -2.771  -0.017  0.00  0.00    -0.044 A 
ATOM      5  C6  <0> d           0.035  -2.087   1.187  0.00  0.00     0.138 A 
ATOM      6  C7  <0> d           0.023  -0.702   1.196  0.00  0.00     0.078 A 
ATOM      7 Cl1  <0> d           0.026   0.158   2.704  0.00  0.00    -0.081 Cl
ATOM      8  F1  <0> d           0.050  -2.771   2.353  0.00  0.00    -0.204 F 
ATOM      9  H4  <0> d          -0.006  -0.143  -2.131  0.00  0.00     0.084 H 
ATOM     10  H5  <0> d           0.027  -2.604  -2.147  0.00  0.00     0.083 H 
ATOM     11  H6  <0> d           0.053  -3.851  -0.025  0.00  0.00     0.088 H 
ENDROOT
BRANCH   1  12
ATOM     12  C1  <0> d          -0.018   1.503   0.010  0.00  0.00    -0.050 C 
ATOM     13  H1  <0> d           1.004   1.880   0.003  0.00  0.00     0.033 H 
ATOM     14  H2  <0> d          -0.545   1.864  -0.873  0.00  0.00     0.033 H 
ATOM     15  H3  <0> d          -0.529   1.854   0.907  0.00  0.00     0.033 H 
ENDBRANCH   1  12
TORSDOF 1
