REMARK  4 active torsions:
REMARK  status: ('A' for Active; 'I' for Inactive)
REMARK    1  A    between atoms: C1_1  and  C2_2 
REMARK    2  A    between atoms: C2_2  and  N1_3 
REMARK    3  A    between atoms: N1_3  and  C3_4 
REMARK    4  A    between atoms: C8_9  and  N2_10 
ROOT
ATOM      1  C3  <0> d           0.832  -1.850  -1.434  0.00  0.00     0.057 A 
ATOM      2  C4  <0> d           0.322  -2.765  -0.524  0.00  0.00    -0.055 A 
ATOM      3  C5  <0> d           0.465  -4.121  -0.753  0.00  0.00    -0.078 A 
ATOM      4  C6  <0> d           1.117  -4.570  -1.886  0.00  0.00    -0.043 A 
ATOM      5  C7  <0> d           1.630  -3.665  -2.799  0.00  0.00     0.144 A 
ATOM      6  C8  <0> d           1.484  -2.301  -2.580  0.00  0.00     0.091 A 
ATOM      7  F1  <0> d           2.266  -4.107  -3.906  0.00  0.00    -0.204 F 
ATOM      8  H7  <0> d          -0.188  -2.418   0.362  0.00  0.00     0.087 H 
ATOM      9  H8  <0> d           0.067  -4.831  -0.043  0.00  0.00     0.083 H 
ATOM     10  H9  <0> d           1.228  -5.631  -2.059  0.00  0.00     0.088 H 
ENDROOT
BRANCH   1  11
ATOM     11  N1  <0> d           0.688  -0.476  -1.203  0.00  0.00    -0.388 N 
ATOM     12  H6  <0> d           1.042   0.162  -1.842  0.00  0.00     0.159 HD
BRANCH  11  13
ATOM     13  C2  <0> d           0.002  -0.004   0.002  0.00  0.00    -0.011 C 
ATOM     14  H4  <0> d           0.529  -0.365   0.885  0.00  0.00     0.063 H 
ATOM     15  H5  <0> d          -1.020  -0.381   0.010  0.00  0.00     0.063 H 
BRANCH  13  16
ATOM     16  C1  <0> d          -0.019   1.526   0.010  0.00  0.00    -0.061 C 
ATOM     17  H1  <0> d           1.004   1.903   0.003  0.00  0.00     0.029 H 
ATOM     18  H2  <0> d          -0.546   1.887  -0.873  0.00  0.00     0.029 H 
ATOM     19  H3  <0> d          -0.529   1.877   0.907  0.00  0.00     0.029 H 
ENDBRANCH  13  16
ENDBRANCH  11  13
ENDBRANCH   1  11
BRANCH   6  20
ATOM     20  N2  <0> d           1.997  -1.382  -3.505  0.00  0.00    -0.395 N 
ATOM     21  H10 <0> d           1.898  -0.429  -3.349  0.00  0.00     0.156 HD
ATOM     22  H11 <0> d           2.450  -1.697  -4.303  0.00  0.00     0.156 HD
ENDBRANCH   6  20
TORSDOF 4
