REMARK  1 active torsions:
REMARK  status: ('A' for Active; 'I' for Inactive)
REMARK    1  A    between atoms: C4_5  and  C6_8 
ROOT
ATOM      1  C1  <0> d           1.390   3.563   0.069  0.00  0.00    -0.060 C 
ATOM      2  C2  <0> d           0.621   3.992   1.322  0.00  0.00    -0.045 C 
ATOM      3  C3  <0> d          -0.784   3.386   1.282  0.00  0.00     0.021 C 
ATOM      4  O1  <0> d          -0.686   1.964   1.187  0.00  0.00    -0.375 OA
ATOM      5  C4  <0> d          -0.018   1.503   0.010  0.00  0.00     0.122 C 
ATOM      6  H1  <0> d          -0.546   1.864  -0.873  0.00  0.00     0.100 H 
ATOM      7  C5  <0> d           1.418   2.033  -0.001  0.00  0.00    -0.031 C 
ATOM      8  H2  <0> d           2.409   3.945   0.118  0.00  0.00     0.033 H 
ATOM      9  H3  <0> d           0.894   3.959  -0.818  0.00  0.00     0.033 H 
ATOM     10  H4  <0> d           1.145   3.638   2.210  0.00  0.00     0.036 H 
ATOM     11  H5  <0> d           0.549   5.079   1.351  0.00  0.00     0.036 H 
ATOM     12  H6  <0> d          -1.322   3.653   2.192  0.00  0.00     0.074 H 
ATOM     13  H7  <0> d          -1.322   3.772   0.416  0.00  0.00     0.074 H 
ATOM     14  H8  <0> d           1.958   1.639   0.861  0.00  0.00     0.037 H 
ATOM     15  H9  <0> d           1.915   1.718  -0.918  0.00  0.00     0.037 H 
ENDROOT
BRANCH   5  16
ATOM     16  C6  <0> d           0.002  -0.004   0.002  0.00  0.00     0.203 C 
ATOM     17  O2  <0> d          -0.423  -0.619   0.951  0.00  0.00    -0.646 OA
ATOM     18  O3  <0> d           0.492  -0.663  -1.060  0.00  0.00    -0.646 OA
ENDBRANCH   5  16
TORSDOF 1
