REMARK  1 active torsions:
REMARK  status: ('A' for Active; 'I' for Inactive)
REMARK    1  A    between atoms: C2_2  and  C4_6 
REMARK       I    between atoms: C4_6  and  N2_8 
ROOT
ATOM      1  C1  <0> d          -3.746   1.332   0.027  0.00  0.00     0.024 A 
ATOM      2  C2  <0> d          -2.447   0.873   0.018  0.00  0.00     0.091 A 
ATOM      3  S1  <0> d          -2.726  -0.892   0.002  0.00  0.00    -0.076 SA
ATOM      4  C3  <0> d          -4.462  -0.846   0.019  0.00  0.00     0.040 A 
ATOM      5  N1  <0> d          -4.710   0.448   0.027  0.00  0.00    -0.265 NA
ATOM      6  H1  <0> d          -3.962   2.390   0.034  0.00  0.00     0.117 H 
ATOM      7  H2  <0> d          -5.161  -1.669   0.017  0.00  0.00     0.126 H 
ENDROOT
BRANCH   2   8
ATOM      8  C4  <0> d          -1.187   1.624   0.017  0.00  0.00     0.257 C 
ATOM      9  O1  <0> d          -1.204   2.841   0.023  0.00  0.00    -0.267 OA
ATOM     10  N2  <0> d          -0.011   0.966   0.007  0.00  0.00    -0.365 N 
ATOM     11  H3  <0> d           0.934   1.529   0.006  0.00  0.00     0.159 HD
ATOM     12  H4  <0> d           0.004  -0.134   0.001  0.00  0.00     0.159 HD
ENDBRANCH   2   8
TORSDOF 1
