REMARK  1 active torsions:
REMARK  status: ('A' for Active; 'I' for Inactive)
REMARK    1  A    between atoms: C3_3  and  C5_7 
REMARK       I    between atoms: C5_7  and  N1_9 
ROOT
ATOM      1  C1  <0> d          -0.788   1.610   1.241  0.00  0.00    -0.042 C 
ATOM      2  C2  <0> d          -0.013   1.086   0.008  0.00  0.00    -0.031 C 
ATOM      3  C3  <0> d          -0.808   1.621  -1.198  0.00  0.00     0.115 C 
ATOM      4  H1  <0> d          -0.231   2.322  -1.819  0.00  0.00     0.098 H 
ATOM      5  O1  <0> d          -1.946   2.329  -0.680  0.00  0.00    -0.376 OA
ATOM      6  C4  <0> d          -1.587   2.797   0.638  0.00  0.00     0.021 C 
ATOM      7  H2  <0> d          -0.129   1.980   2.040  0.00  0.00     0.036 H 
ATOM      8  H3  <0> d          -1.488   0.871   1.657  0.00  0.00     0.036 H 
ATOM      9  H4  <0> d           1.016   1.475   0.029  0.00  0.00     0.037 H 
ATOM     10  H5  <0> d           0.011  -0.014   0.030  0.00  0.00     0.037 H 
ATOM     11  H6  <0> d          -2.468   3.002   1.264  0.00  0.00     0.074 H 
ATOM     12  H7  <0> d          -0.946   3.691   0.604  0.00  0.00     0.074 H 
ENDROOT
BRANCH   3  13
ATOM     13  C5  <0> d          -1.268   0.473  -2.059  0.00  0.00     0.244 C 
ATOM     14  O2  <0> d          -2.452   0.240  -2.179  0.00  0.00    -0.271 OA
ATOM     15  N1  <0> d          -0.362  -0.295  -2.697  0.00  0.00    -0.368 N 
ATOM     16  H8  <0> d          -0.698  -1.134  -3.326  0.00  0.00     0.159 HD
ATOM     17  H9  <0> d           0.712  -0.084  -2.589  0.00  0.00     0.159 HD
ENDBRANCH   3  13
TORSDOF 1
