REMARK  2 active torsions:
REMARK  status: ('A' for Active; 'I' for Inactive)
REMARK    1  A    between atoms: C1_1  and  C2_2 
REMARK    2  A    between atoms: C2_2  and  C5_9 
ROOT
ATOM      1  C2  <0> d           0.002  -0.004   0.002  0.00  0.00     0.146 A 
ATOM      2  C3  <0> d          -1.405  -0.555   0.109  0.00  0.00     0.260 A 
ATOM      3  O1  <0> d          -2.320  -0.387  -0.669  0.00  0.00    -0.270 OA
ATOM      4  N1  <0> d          -1.427  -1.271   1.251  0.00  0.00    -0.270 N 
ATOM      5  C4  <0> d          -0.233  -1.236   1.856  0.00  0.00     0.368 A 
ATOM      6  O2  <0> d           0.663  -0.505   1.174  0.00  0.00    -0.283 OA
ATOM      7  O3  <0> d           0.013  -1.802   2.903  0.00  0.00    -0.238 OA
ATOM      8  H7  <0> d          -2.202  -1.747   1.589  0.00  0.00     0.174 HD
ENDROOT
BRANCH   1   9
ATOM      9  C1  <0> d          -0.019   1.526   0.010  0.00  0.00    -0.039 C 
ATOM     10  H1  <0> d           1.004   1.903   0.003  0.00  0.00     0.032 H 
ATOM     11  H2  <0> d          -0.546   1.887  -0.873  0.00  0.00     0.032 H 
ATOM     12  H3  <0> d          -0.529   1.877   0.907  0.00  0.00     0.032 H 
ENDBRANCH   1   9
BRANCH   1  13
ATOM     13  C5  <0> d           0.689  -0.523  -1.263  0.00  0.00    -0.039 C 
ATOM     14  H4  <0> d           1.710  -0.144  -1.303  0.00  0.00     0.032 H 
ATOM     15  H5  <0> d           0.706  -1.612  -1.246  0.00  0.00     0.032 H 
ATOM     16  H6  <0> d           0.140  -0.181  -2.140  0.00  0.00     0.032 H 
ENDBRANCH   1  13
TORSDOF 2
