REMARK  3 active torsions:
REMARK  status: ('A' for Active; 'I' for Inactive)
REMARK    1  A    between atoms: C1_1  and  C2_2 
REMARK    2  A    between atoms: C2_2  and  C3_3 
REMARK       I    between atoms: C3_3  and  N1_5 
REMARK    3  A    between atoms: N1_5  and  C4_6 
ROOT
ATOM      1  C4  <0> d           1.587  -2.209  -2.579  0.00  0.00     0.034 A 
ATOM      2  C5  <0> d           2.161  -1.255  -3.408  0.00  0.00    -0.057 A 
ATOM      3  C6  <0> d           2.891  -1.650  -4.511  0.00  0.00    -0.081 A 
ATOM      4  C7  <0> d           3.050  -2.995  -4.792  0.00  0.00    -0.083 A 
ATOM      5  C8  <0> d           2.478  -3.948  -3.969  0.00  0.00    -0.081 A 
ATOM      6  C9  <0> d           1.753  -3.559  -2.860  0.00  0.00    -0.057 A 
ATOM      7  H7  <0> d           2.037  -0.204  -3.189  0.00  0.00     0.086 H 
ATOM      8  H8  <0> d           3.338  -0.908  -5.157  0.00  0.00     0.083 H 
ATOM      9  H9  <0> d           3.621  -3.302  -5.656  0.00  0.00     0.083 H 
ATOM     10  H10 <0> d           2.604  -4.997  -4.191  0.00  0.00     0.083 H 
ATOM     11  H11 <0> d           1.311  -4.304  -2.214  0.00  0.00     0.086 H 
ENDROOT
BRANCH   1  12
ATOM     12  N1  <0> d           0.847  -1.812  -1.460  0.00  0.00    -0.327 N 
ATOM     13  C3  <0> d           0.888  -2.545  -0.330  0.00  0.00     0.221 C 
ATOM     14  O1  <0> d           1.498  -3.593  -0.308  0.00  0.00    -0.273 OA
ATOM     15  H6  <0> d           0.304  -1.009  -1.497  0.00  0.00     0.169 HD
BRANCH  13  16
ATOM     16  C2  <0> d           0.175  -2.063   0.908  0.00  0.00     0.006 C 
ATOM     17  H4  <0> d          -0.890  -1.963   0.698  0.00  0.00     0.046 H 
ATOM     18  H5  <0> d           0.580  -1.096   1.206  0.00  0.00     0.046 H 
BRANCH  16  19
ATOM     19  C1  <0> d           0.379  -3.073   2.039  0.00  0.00    -0.068 C 
ATOM     20  H1  <0> d          -0.025  -4.040   1.741  0.00  0.00     0.028 H 
ATOM     21  H2  <0> d           1.444  -3.173   2.249  0.00  0.00     0.028 H 
ATOM     22  H3  <0> d          -0.136  -2.724   2.934  0.00  0.00     0.028 H 
ENDBRANCH  16  19
ENDBRANCH  13  16
ENDBRANCH   1  12
TORSDOF 3
