REMARK  3 active torsions:
REMARK  status: ('A' for Active; 'I' for Inactive)
REMARK    1  A    between atoms: C1_1  and  C2_2 
REMARK    2  A    between atoms: C2_2  and  C3_4 
REMARK    3  A    between atoms: C2_2  and  O1_10 
ROOT
ATOM      1  C3  <0> d          -1.192   3.151   0.029  0.00  0.00     0.062 A 
ATOM      2  C4  <0> d          -1.213   1.769   0.017  0.00  0.00    -0.057 A 
ATOM      3  C5  <0> d          -0.013   1.076   0.008  0.00  0.00    -0.080 A 
ATOM      4  C6  <0> d           1.169   1.802   0.001  0.00  0.00    -0.066 A 
ATOM      5  C7  <0> d           1.111   3.182   0.008  0.00  0.00     0.003 A 
ATOM      6  N1  <0> d          -0.050   3.809   0.022  0.00  0.00    -0.263 NA
ATOM      7  H5  <0> d          -2.152   1.236   0.019  0.00  0.00     0.086 H 
ATOM      8  H6  <0> d           0.002  -0.004   0.002  0.00  0.00     0.083 H 
ATOM      9  H7  <0> d           2.122   1.295  -0.011  0.00  0.00     0.085 H 
ATOM     10  H8  <0> d           2.027   3.755   0.002  0.00  0.00     0.114 H 
ENDROOT
BRANCH   1  11
ATOM     11  C2  <0> d          -2.491   3.915   0.044  0.00  0.00     0.074 C 
ATOM     12  H1  <0> d          -3.323   3.217   0.138  0.00  0.00     0.092 H 
BRANCH  11  13
ATOM     13  C1  <0> d          -2.501   4.881   1.231  0.00  0.00    -0.047 C 
ATOM     14  H2  <0> d          -1.669   5.580   1.137  0.00  0.00     0.031 H 
ATOM     15  H3  <0> d          -3.440   5.434   1.242  0.00  0.00     0.031 H 
ATOM     16  H4  <0> d          -2.399   4.319   2.159  0.00  0.00     0.031 H 
ENDBRANCH  11  13
BRANCH  11  17
ATOM     17  O1  <0> d          -2.624   4.653  -1.172  0.00  0.00    -0.390 OA
ATOM     18  H9  <0> d          -1.917   5.296  -1.322  0.00  0.00     0.210 HD
ENDBRANCH  11  17
ENDBRANCH   1  11
TORSDOF 3
