REMARK  0 active torsions:
REMARK  status: ('A' for Active; 'I' for Inactive)
ROOT
ATOM      1  C1  <0> d          -0.017   1.379   0.010  0.00  0.00    -0.050 A 
ATOM      2  C2  <0> d           0.002  -0.004   0.002  0.00  0.00    -0.042 A 
ATOM      3  C3  <0> d          -1.197  -0.703   0.010  0.00  0.00     0.128 A 
ATOM      4  N1  <0> d          -2.355  -0.077   0.025  0.00  0.00    -0.215 NA
ATOM      5  C4  <0> d          -2.427   1.252   0.033  0.00  0.00     0.178 A 
ATOM      6  C5  <0> d          -1.250   2.020   0.031  0.00  0.00     0.081 A 
ATOM      7  N2  <0> d          -1.651   3.340   0.044  0.00  0.00    -0.348 N 
ATOM      8  C6  <0> d          -3.009   3.348   0.064  0.00  0.00     0.067 A 
ATOM      9  N3  <0> d          -3.464   2.127   0.048  0.00  0.00    -0.222 NA
ATOM     10  H1  <0> d          -1.071   4.118   0.040  0.00  0.00     0.167 HD
ATOM     11 Cl1  <0> d          -1.169  -2.439   0.001  0.00  0.00    -0.062 Cl
ATOM     12  H2  <0> d           0.902   1.946   0.004  0.00  0.00     0.087 H 
ATOM     13  H3  <0> d           0.942  -0.536  -0.011  0.00  0.00     0.088 H 
ATOM     14  H4  <0> d          -3.623   4.236   0.079  0.00  0.00     0.143 H 
ENDROOT
TORSDOF 0
