REMARK  5 active torsions:
REMARK  status: ('A' for Active; 'I' for Inactive)
REMARK    1  A    between atoms: C1_1  and  C2_2 
REMARK    2  A    between atoms: C2_2  and  C3_3 
REMARK    3  A    between atoms: C2_2  and  C4_4 
REMARK    4  A    between atoms: C2_2  and  N1_6 
REMARK    5  A    between atoms: N1_6  and  C6_7 
ROOT
ATOM      1  C4  <0> d          -2.091  -0.507  -1.062  0.00  0.00    -0.086 C 
ATOM      2  C5  <0> d          -2.762  -0.309  -2.005  0.00  0.00    -0.151 C 
ATOM      3  H7  <0> d          -3.362  -0.133  -2.849  0.00  0.00     0.166 H 
ENDROOT
BRANCH   1   4
ATOM      4  C2  <0> d          -1.251  -0.754   0.120  0.00  0.00     0.086 C 
BRANCH   4   5
ATOM      5  C1  <0> d          -0.933  -2.248   0.217  0.00  0.00    -0.043 C 
ATOM      6  H1  <0> d          -0.384  -2.444   1.138  0.00  0.00     0.032 H 
ATOM      7  H2  <0> d          -1.863  -2.817   0.221  0.00  0.00     0.032 H 
ATOM      8  H3  <0> d          -0.328  -2.547  -0.638  0.00  0.00     0.032 H 
ENDBRANCH   4   5
BRANCH   4   9
ATOM      9  C3  <0> d          -1.997  -0.309   1.379  0.00  0.00    -0.043 C 
ATOM     10  H4  <0> d          -2.138   0.772   1.355  0.00  0.00     0.032 H 
ATOM     11  H5  <0> d          -2.969  -0.801   1.419  0.00  0.00     0.032 H 
ATOM     12  H6  <0> d          -1.417  -0.580   2.261  0.00  0.00     0.032 H 
ENDBRANCH   4   9
BRANCH   4  13
ATOM     13  N1  <0> d          -0.003   0.003  -0.001  0.00  0.00    -0.371 N 
ATOM     14  H8  <0> d           0.849  -0.462  -0.004  0.00  0.00     0.161 HD
BRANCH  13  15
ATOM     15  C6  <0> d          -0.038   1.395  -0.111  0.00  0.00     0.029 A 
ATOM     16  C11 <0> d           1.143   2.125  -0.090  0.00  0.00    -0.058 A 
ATOM     17  C10 <0> d           1.105   3.502  -0.200  0.00  0.00    -0.081 A 
ATOM     18  H13 <0> d           2.091   1.618   0.011  0.00  0.00     0.086 H 
ATOM     19  C9  <0> d          -0.109   4.152  -0.331  0.00  0.00    -0.083 A 
ATOM     20  H12 <0> d           2.023   4.070  -0.183  0.00  0.00     0.083 H 
ATOM     21  C8  <0> d          -1.286   3.428  -0.352  0.00  0.00    -0.081 A 
ATOM     22  H11 <0> d          -0.136   5.229  -0.416  0.00  0.00     0.083 H 
ATOM     23  C7  <0> d          -1.255   2.052  -0.248  0.00  0.00    -0.058 A 
ATOM     24  H10 <0> d          -2.232   3.940  -0.455  0.00  0.00     0.083 H 
ATOM     25  H9  <0> d          -2.175   1.486  -0.268  0.00  0.00     0.086 H 
ENDBRANCH  13  15
ENDBRANCH   4  13
ENDBRANCH   1   4
TORSDOF 5
