REMARK  5 active torsions:
REMARK  status: ('A' for Active; 'I' for Inactive)
REMARK    1  A    between atoms: C1_1  and  C2_2 
REMARK    2  A    between atoms: C3_5  and  S1_7 
REMARK    3  A    between atoms: S1_7  and  C4_8 
REMARK    4  A    between atoms: C4_8  and  C5_9 
REMARK    5  A    between atoms: C4_8  and  C6_10 
ROOT
ATOM      1  S1  <0> d           0.057  -3.540   1.590  0.00  0.00    -0.079 SA
ENDROOT
BRANCH   1   2
ATOM      2  C3  <0> d           0.033  -2.069   0.620  0.00  0.00     0.231 A 
ATOM      3  N2  <0> d           0.026  -2.001  -0.690  0.00  0.00    -0.115 NA
ATOM      4  N1  <0> d           0.008  -0.767  -1.052  0.00  0.00    -0.126 NA
ATOM      5  C2  <0> d           0.002  -0.004   0.002  0.00  0.00     0.166 A 
ATOM      6  O1  <0> d           0.023  -0.806   1.085  0.00  0.00    -0.269 OA
BRANCH   5   7
ATOM      7  C1  <0> d          -0.018   1.503   0.010  0.00  0.00    -0.013 C 
ATOM      8  H1  <0> d           1.004   1.880   0.003  0.00  0.00     0.038 H 
ATOM      9  H2  <0> d          -0.545   1.864  -0.873  0.00  0.00     0.038 H 
ATOM     10  H3  <0> d          -0.529   1.854   0.907  0.00  0.00     0.038 H 
ENDBRANCH   5   7
ENDBRANCH   1   2
BRANCH   1  11
ATOM     11  C4  <0> d           0.070  -4.875   0.362  0.00  0.00    -0.008 C 
ATOM     12  H4  <0> d           0.908  -4.732  -0.321  0.00  0.00     0.056 H 
BRANCH  11  13
ATOM     13  C5  <0> d           0.217  -6.221   1.074  0.00  0.00    -0.064 C 
ATOM     14  H5  <0> d          -0.620  -6.365   1.757  0.00  0.00     0.028 H 
ATOM     15  H6  <0> d           0.226  -7.024   0.336  0.00  0.00     0.028 H 
ATOM     16  H7  <0> d           1.151  -6.235   1.636  0.00  0.00     0.028 H 
ENDBRANCH  11  13
BRANCH  11  17
ATOM     17  C6  <0> d          -1.240  -4.856  -0.427  0.00  0.00    -0.064 C 
ATOM     18  H8  <0> d          -2.078  -4.999   0.256  0.00  0.00     0.028 H 
ATOM     19  H9  <0> d          -1.345  -3.897  -0.935  0.00  0.00     0.028 H 
ATOM     20  H10 <0> d          -1.232  -5.659  -1.165  0.00  0.00     0.028 H 
ENDBRANCH  11  17
ENDBRANCH   1  11
TORSDOF 5
