REMARK  2 active torsions:
REMARK  status: ('A' for Active; 'I' for Inactive)
REMARK    1  A    between atoms: C2_2  and  C4_7 
REMARK    2  A    between atoms: C3_5  and  N2_6 
ROOT
ATOM      1  C1  <0> d           0.002  -0.004   0.002  0.00  0.00     0.003 A 
ATOM      2  C2  <0> d          -0.017   1.404   0.010  0.00  0.00     0.172 A 
ATOM      3  N1  <0> d           1.228   1.793  -0.000  0.00  0.00    -0.122 NA
ATOM      4  O1  <0> d           1.991   0.856  -0.012  0.00  0.00    -0.195 OA
ATOM      5  C3  <0> d           1.333  -0.315  -0.012  0.00  0.00     0.168 A 
ATOM      6  H1  <0> d          -0.839  -0.681   0.006  0.00  0.00     0.093 H 
ENDROOT
BRANCH   2   7
ATOM      7  C4  <0> d          -1.237   2.289   0.021  0.00  0.00     0.436 C 
ATOM      8  F1  <0> d          -1.608   2.555   1.343  0.00  0.00    -0.164 F 
ATOM      9  F2  <0> d          -0.947   3.491  -0.634  0.00  0.00    -0.164 F 
ATOM     10  F3  <0> d          -2.288   1.641  -0.637  0.00  0.00    -0.164 F 
ENDBRANCH   2   7
BRANCH   5  11
ATOM     11  N2  <0> d           1.890  -1.580  -0.025  0.00  0.00    -0.378 N 
ATOM     12  H2  <0> d           2.983  -1.700  -0.036  0.00  0.00     0.158 HD
ATOM     13  H3  <0> d           1.240  -2.467  -0.024  0.00  0.00     0.158 HD
ENDBRANCH   5  11
TORSDOF 2
