REMARK  2 active torsions:
REMARK  status: ('A' for Active; 'I' for Inactive)
REMARK    1  A    between atoms: C3_3  and  C7_9 
REMARK    2  A    between atoms: C4_4  and  O1_8 
ROOT
ATOM      1  C1  <0> d          -1.214   1.749   0.017  0.00  0.00    -0.044 A 
ATOM      2  C2  <0> d          -0.013   1.076   0.008  0.00  0.00    -0.061 A 
ATOM      3  C3  <0> d           1.188   1.792   0.000  0.00  0.00     0.074 A 
ATOM      4  C4  <0> d           1.160   3.195   0.008  0.00  0.00     0.085 A 
ATOM      5  C5  <0> d          -0.057   3.857   0.022  0.00  0.00    -0.013 A 
ATOM      6  C6  <0> d          -1.238   3.137   0.030  0.00  0.00     0.119 A 
ATOM      7  F1  <0> d          -2.422   3.788   0.044  0.00  0.00    -0.206 F 
ATOM      8  H1  <0> d          -2.141   1.194   0.019  0.00  0.00     0.088 H 
ATOM      9  H2  <0> d           0.002  -0.004   0.002  0.00  0.00     0.085 H 
ATOM     10  H3  <0> d          -0.083   4.937   0.028  0.00  0.00     0.092 H 
ENDROOT
BRANCH   3  11
ATOM     11  C7  <0> d           2.476   1.078  -0.016  0.00  0.00     0.212 C 
ATOM     12  O2  <0> d           3.518   1.703  -0.022  0.00  0.00    -0.644 OA
ATOM     13  O3  <0> d           2.499  -0.270  -0.023  0.00  0.00    -0.644 OA
ENDBRANCH   3  11
BRANCH   4  14
ATOM     14  O1  <0> d           2.319   3.899   0.001  0.00  0.00    -0.360 OA
ATOM     15  H4  <0> d           2.647   4.108  -0.884  0.00  0.00     0.217 HD
ENDBRANCH   4  14
TORSDOF 2
