REMARK  2 active torsions:
REMARK  status: ('A' for Active; 'I' for Inactive)
REMARK    1  A    between atoms: C1_1  and  C2_2 
REMARK    2  A    between atoms: C4_7  and  C6_12 
ROOT
ATOM      1  C2  <0> d           0.002  -0.004   0.002  0.00  0.00     0.086 C 
ATOM      2  H1  <0> d           0.513  -0.349  -0.897  0.00  0.00     0.086 H 
ATOM      3  C3  <0> d          -1.407  -0.514  -0.009  0.00  0.00     0.240 C 
ATOM      4  O1  <0> d          -2.228   0.060  -0.692  0.00  0.00    -0.271 OA
ATOM      5  N1  <0> d          -1.797  -1.576   0.703  0.00  0.00    -0.346 N 
ATOM      6  C4  <0> d          -0.888  -2.334   1.552  0.00  0.00     0.086 C 
ATOM      7  H2  <0> d          -1.403  -2.604   2.474  0.00  0.00     0.086 H 
ATOM      8  C5  <0> d           0.336  -1.536   1.889  0.00  0.00     0.240 C 
ATOM      9  O2  <0> d           0.998  -1.866   2.850  0.00  0.00    -0.271 OA
ATOM     10  N2  <0> d           0.726  -0.478   1.174  0.00  0.00    -0.346 N 
ATOM     11  H6  <0> d          -2.725  -1.854   0.653  0.00  0.00     0.163 HD
ATOM     12  H7  <0> d           1.527  -0.004   1.447  0.00  0.00     0.163 HD
ENDROOT
BRANCH   1  13
ATOM     13  C1  <0> d          -0.019   1.526   0.010  0.00  0.00    -0.049 C 
ATOM     14  H3  <0> d           1.004   1.903   0.003  0.00  0.00     0.030 H 
ATOM     15  H4  <0> d          -0.546   1.887  -0.873  0.00  0.00     0.030 H 
ATOM     16  H5  <0> d          -0.529   1.877   0.907  0.00  0.00     0.030 H 
ENDBRANCH   1  13
BRANCH   6  17
ATOM     17  C6  <0> d          -0.467  -3.611   0.822  0.00  0.00    -0.049 C 
ATOM     18  H8  <0> d           0.035  -3.348  -0.110  0.00  0.00     0.030 H 
ATOM     19  H9  <0> d           0.213  -4.183   1.452  0.00  0.00     0.030 H 
ATOM     20  H10 <0> d          -1.350  -4.211   0.601  0.00  0.00     0.030 H 
ENDBRANCH   6  17
TORSDOF 2
