REMARK  2 active torsions:
REMARK  status: ('A' for Active; 'I' for Inactive)
REMARK    1  A    between atoms: N1_4  and  C5_6 
REMARK    2  A    between atoms: C5_6  and  C6_7 
ROOT
ATOM      1  C6  <0> d          -0.013   1.086   0.008  0.00  0.00     0.030 C 
ATOM      2  C7  <0> d          -0.725   1.573  -1.185  0.00  0.00     0.060 C 
ATOM      3  N2  <0> d          -1.274   1.950  -2.105  0.00  0.00    -0.197 NA
ATOM      4  H7  <0> d           0.002  -0.004   0.002  0.00  0.00     0.057 H 
ATOM      5  H8  <0> d           1.010   1.463   0.000  0.00  0.00     0.057 H 
ENDROOT
BRANCH   1   6
ATOM      6  C5  <0> d          -0.729   1.579   1.267  0.00  0.00     0.010 C 
ATOM      7  H5  <0> d          -0.744   2.669   1.273  0.00  0.00     0.066 H 
ATOM      8  H6  <0> d          -1.751   1.202   1.275  0.00  0.00     0.066 H 
BRANCH   6   9
ATOM      9  N1  <0> d          -0.020   1.094   2.454  0.00  0.00    -0.366 N 
ATOM     10  C3  <0> d           0.991   1.744   3.096  0.00  0.00    -0.021 A 
ATOM     11  C2  <0> d           1.385   0.985   4.139  0.00  0.00    -0.067 A 
ATOM     12  H3  <0> d           1.406   2.702   2.818  0.00  0.00     0.111 H 
ATOM     13  C1  <0> d           0.587  -0.176   4.140  0.00  0.00    -0.067 A 
ATOM     14  H2  <0> d           2.168   1.224   4.843  0.00  0.00     0.085 H 
ATOM     15  C4  <0> d          -0.267  -0.080   3.102  0.00  0.00    -0.021 A 
ATOM     16  H1  <0> d           0.646  -0.991   4.846  0.00  0.00     0.085 H 
ATOM     17  H4  <0> d          -1.017  -0.808   2.829  0.00  0.00     0.111 H 
ENDBRANCH   6   9
ENDBRANCH   1   6
TORSDOF 2
