REMARK  0 active torsions:
REMARK  status: ('A' for Active; 'I' for Inactive)
ROOT
ATOM      1  C1  <0> d          -0.018   1.506   0.010  0.00  0.00    -0.063 C 
ATOM      2  C2  <0> d           1.340   2.166   0.001  0.00  0.00    -0.059 C 
ATOM      3  C3  <0> d           2.068   1.975   1.336  0.00  0.00    -0.008 C 
ATOM      4  C4  <0> d           2.706   0.601   1.320  0.00  0.00     0.130 A 
ATOM      5  N1  <0> d           3.954   0.297   1.305  0.00  0.00    -0.157 NA
ATOM      6  N2  <0> d           4.061  -1.103   1.294  0.00  0.00    -0.227 N 
ATOM      7  C5  <0> d           2.805  -1.605   1.302  0.00  0.00     0.344 A 
ATOM      8  N3  <0> d           1.962  -0.566   1.319  0.00  0.00    -0.285 N 
ATOM      9  C6  <0> d           0.490  -0.573   1.337  0.00  0.00     0.006 C 
ATOM     10  C7  <0> d           0.002  -0.004   0.002  0.00  0.00    -0.050 C 
ATOM     11  O1  <0> d           2.499  -2.784   1.294  0.00  0.00    -0.245 OA
ATOM     12  H1  <0> d          -0.555   1.837   0.900  0.00  0.00     0.033 H 
ATOM     13  H2  <0> d          -0.572   1.846  -0.865  0.00  0.00     0.033 H 
ATOM     14  H3  <0> d           1.942   1.732  -0.798  0.00  0.00     0.033 H 
ATOM     15  H4  <0> d           1.216   3.233  -0.188  0.00  0.00     0.033 H 
ATOM     16  H5  <0> d           2.838   2.739   1.449  0.00  0.00     0.044 H 
ATOM     17  H6  <0> d           1.356   2.043   2.158  0.00  0.00     0.044 H 
ATOM     18  H7  <0> d           0.127  -1.593   1.459  0.00  0.00     0.065 H 
ATOM     19  H8  <0> d           0.129   0.048   2.157  0.00  0.00     0.065 H 
ATOM     20  H9  <0> d          -1.005  -0.372  -0.194  0.00  0.00     0.035 H 
ATOM     21  H10 <0> d           0.664  -0.346  -0.793  0.00  0.00     0.035 H 
ATOM     22  H11 <0> d           4.885  -1.616   1.282  0.00  0.00     0.194 HD
ENDROOT
TORSDOF 0
