REMARK  2 active torsions:
REMARK  status: ('A' for Active; 'I' for Inactive)
REMARK    1  A    between atoms: C2_2  and  C3_3 
REMARK    2  A    between atoms: C4_4  and  N3_12 
ROOT
ATOM      1  C3  <0> d           1.291  -0.725  -0.014  0.00  0.00     0.105 A 
ATOM      2  C4  <0> d           1.449  -2.117  -0.029  0.00  0.00     0.085 A 
ATOM      3  C5  <0> d           2.814  -2.382  -0.042  0.00  0.00     0.086 A 
ATOM      4  C6  <0> d           3.557  -3.578  -0.060  0.00  0.00    -0.053 A 
ATOM      5  C7  <0> d           4.916  -3.517  -0.070  0.00  0.00    -0.079 A 
ATOM      6  C8  <0> d           5.556  -2.265  -0.063  0.00  0.00    -0.066 A 
ATOM      7  C9  <0> d           4.832  -1.127  -0.046  0.00  0.00     0.004 A 
ATOM      8  N1  <0> d           3.465  -1.169  -0.035  0.00  0.00    -0.242 N 
ATOM      9  N2  <0> d           2.492  -0.163  -0.023  0.00  0.00    -0.166 NA
ATOM     10  H4  <0> d           3.053  -4.533  -0.065  0.00  0.00     0.087 H 
ATOM     11  H5  <0> d           5.500  -4.425  -0.083  0.00  0.00     0.083 H 
ATOM     12  H6  <0> d           6.635  -2.214  -0.071  0.00  0.00     0.085 H 
ATOM     13  H7  <0> d           5.338  -0.172  -0.040  0.00  0.00     0.114 H 
ENDROOT
BRANCH   1  14
ATOM     14  C2  <0> d           0.002  -0.004   0.002  0.00  0.00    -0.060 C 
ATOM     15  C1  <0> d          -0.016   1.322   0.009  0.00  0.00    -0.119 C 
ATOM     16  H1  <0> d           0.912   1.875   0.003  0.00  0.00     0.066 H 
ATOM     17  H2  <0> d          -0.958   1.849   0.017  0.00  0.00     0.066 H 
ATOM     18  H3  <0> d          -0.926  -0.557   0.008  0.00  0.00     0.086 H 
ENDBRANCH   1  14
BRANCH   2  19
ATOM     19  N3  <0> d           0.416  -3.071  -0.029  0.00  0.00    -0.395 N 
ATOM     20  H8  <0> d          -0.510  -2.783  -0.020  0.00  0.00     0.156 HD
ATOM     21  H9  <0> d           0.630  -4.017  -0.040  0.00  0.00     0.156 HD
ENDBRANCH   2  19
TORSDOF 2
