REMARK  6 active torsions:
REMARK  status: ('A' for Active; 'I' for Inactive)
REMARK    1  A    between atoms: C1_1  and  C2_2 
REMARK    2  A    between atoms: C2_2  and  C3_3 
REMARK    3  A    between atoms: C2_2  and  C4_4 
REMARK       I    between atoms: C4_4  and  N1_6 
REMARK    4  A    between atoms: N1_6  and  C5_7 
REMARK    5  A    between atoms: C5_7  and  C6_9 
REMARK    6  A    between atoms: C5_7  and  C7_10 
ROOT
ATOM      1  C4  <0> d           2.969   4.736   0.492  0.00  0.00     0.221 C 
ATOM      2  O1  <0> d           2.111   5.463   0.949  0.00  0.00    -0.273 OA
ATOM      3  N1  <0> d           2.634   3.529  -0.004  0.00  0.00    -0.347 N 
ATOM      4  H9  <0> d           3.320   2.947  -0.369  0.00  0.00     0.163 HD
ENDROOT
BRANCH   1   5
ATOM      5  C2  <0> d           4.408   5.183   0.481  0.00  0.00     0.017 C 
ATOM      6  H5  <0> d           4.772   5.211  -0.546  0.00  0.00     0.053 H 
BRANCH   5   7
ATOM      7  C1  <0> d           4.513   6.580   1.097  0.00  0.00    -0.065 C 
ATOM      8  H2  <0> d           4.149   6.552   2.124  0.00  0.00     0.028 H 
ATOM      9  H3  <0> d           5.554   6.903   1.089  0.00  0.00     0.028 H 
ATOM     10  H4  <0> d           3.911   7.279   0.517  0.00  0.00     0.028 H 
ENDBRANCH   5   7
BRANCH   5  11
ATOM     11  C3  <0> d           5.253   4.201   1.295  0.00  0.00    -0.065 C 
ATOM     12  H6  <0> d           4.889   4.174   2.322  0.00  0.00     0.028 H 
ATOM     13  H7  <0> d           5.178   3.207   0.856  0.00  0.00     0.028 H 
ATOM     14  H8  <0> d           6.294   4.525   1.287  0.00  0.00     0.028 H 
ENDBRANCH   5  11
ENDBRANCH   1   5
BRANCH   3  15
ATOM     15  C5  <0> d           1.235   3.094   0.007  0.00  0.00     0.092 C 
ATOM     16  H1  <0> d           0.744   3.473   0.904  0.00  0.00     0.089 H 
BRANCH  15  17
ATOM     17  C6  <0> d           0.522   3.639  -1.233  0.00  0.00    -0.048 C 
ATOM     18  H10 <0> d          -0.519   3.315  -1.224  0.00  0.00     0.030 H 
ATOM     19  H11 <0> d           0.564   4.728  -1.227  0.00  0.00     0.030 H 
ATOM     20  H12 <0> d           1.013   3.260  -2.130  0.00  0.00     0.030 H 
ENDBRANCH  15  17
BRANCH  15  21
ATOM     21  C7  <0> d           1.177   1.588  -0.001  0.00  0.00     0.196 C 
ATOM     22  O2  <0> d           2.199   0.944  -0.014  0.00  0.00    -0.646 OA
ATOM     23  O3  <0> d          -0.011   0.963   0.007  0.00  0.00    -0.646 OA
ENDBRANCH  15  21
ENDBRANCH   3  15
TORSDOF 6
