REMARK  5 active torsions:
REMARK  status: ('A' for Active; 'I' for Inactive)
REMARK    1  A    between atoms: C1_1  and  C2_2 
REMARK    2  A    between atoms: C5_5  and  C8_8 
REMARK    3  A    between atoms: C5_5  and  O1_11 
REMARK    4  A    between atoms: C8_8  and  C9_9 
REMARK    5  A    between atoms: C8_8  and  C10_10 
ROOT
ATOM      1  C2  <0> d          -1.587   2.553  -1.206  0.00  0.00    -0.087 C 
ATOM      2  C3  <0> d          -0.733   1.580  -1.212  0.00  0.00    -0.098 C 
ATOM      3  C4  <0> d          -0.013   1.086   0.008  0.00  0.00    -0.021 C 
ATOM      4  C5  <0> d          -0.723   1.577   1.271  0.00  0.00     0.064 C 
ATOM      5  C6  <0> d          -0.961   3.085   1.140  0.00  0.00    -0.032 C 
ATOM      6  C7  <0> d          -1.983   3.316   0.024  0.00  0.00    -0.042 C 
ATOM      7  H4  <0> d          -0.526   1.094  -2.154  0.00  0.00     0.077 H 
ATOM      8  H5  <0> d           0.002  -0.004   0.002  0.00  0.00     0.043 H 
ATOM      9  H6  <0> d           1.011   1.461   0.000  0.00  0.00     0.043 H 
ATOM     10  H7  <0> d          -0.026   3.585   0.888  0.00  0.00     0.037 H 
ATOM     11  H8  <0> d          -1.349   3.479   2.079  0.00  0.00     0.037 H 
ATOM     12  H9  <0> d          -2.029   4.380  -0.209  0.00  0.00     0.039 H 
ATOM     13  H10 <0> d          -2.965   2.979   0.358  0.00  0.00     0.039 H 
ENDROOT
BRANCH   4  14
ATOM     14  C8  <0> d           0.154   1.302   2.494  0.00  0.00    -0.031 C 
ATOM     15  H11 <0> d          -0.390   1.571   3.400  0.00  0.00     0.043 H 
BRANCH  14  16
ATOM     16  C9  <0> d           0.516  -0.184   2.539  0.00  0.00    -0.070 C 
ATOM     17  H12 <0> d           1.061  -0.452   1.634  0.00  0.00     0.028 H 
ATOM     18  H13 <0> d           1.141  -0.379   3.410  0.00  0.00     0.028 H 
ATOM     19  H14 <0> d          -0.395  -0.778   2.605  0.00  0.00     0.028 H 
ENDBRANCH  14  16
BRANCH  14  20
ATOM     20  C10 <0> d           1.433   2.137   2.402  0.00  0.00    -0.070 C 
ATOM     21  H15 <0> d           1.175   3.195   2.370  0.00  0.00     0.028 H 
ATOM     22  H16 <0> d           2.058   1.941   3.273  0.00  0.00     0.028 H 
ATOM     23  H17 <0> d           1.978   1.868   1.497  0.00  0.00     0.028 H 
ENDBRANCH  14  20
ENDBRANCH   4  14
BRANCH   4  24
ATOM     24  O1  <0> d          -1.975   0.901   1.412  0.00  0.00    -0.389 OA
ATOM     25  H18 <0> d          -2.582   1.040   0.672  0.00  0.00     0.210 HD
ENDBRANCH   4  24
BRANCH   1  26
ATOM     26  C1  <0> d          -2.221   2.945  -2.515  0.00  0.00    -0.055 C 
ATOM     27  H1  <0> d          -1.837   2.306  -3.311  0.00  0.00     0.033 H 
ATOM     28  H2  <0> d          -3.303   2.826  -2.445  0.00  0.00     0.033 H 
ATOM     29  H3  <0> d          -1.984   3.985  -2.737  0.00  0.00     0.033 H 
ENDBRANCH   1  26
TORSDOF 5
