REMARK  5 active torsions:
REMARK  status: ('A' for Active; 'I' for Inactive)
REMARK    1  A    between atoms: C1_1  and  O1_2 
REMARK    2  A    between atoms: O1_2  and  C2_3 
REMARK       I    between atoms: C2_3  and  N1_5 
REMARK    3  A    between atoms: N1_5  and  C3_6 
REMARK    4  A    between atoms: C3_6  and  C4_7 
REMARK    5  A    between atoms: C4_7  and  C5_8 
ROOT
ATOM      1  C2  <0> d          -4.915   0.955   0.031  0.00  0.00     0.360 C 
ATOM      2  O2  <0> d          -4.899  -0.260   0.024  0.00  0.00    -0.239 OA
ATOM      3  N1  <0> d          -3.757   1.645   0.029  0.00  0.00    -0.336 N 
ATOM      4  H4  <0> d          -3.771   2.615   0.034  0.00  0.00     0.164 HD
ENDROOT
BRANCH   3   5
ATOM      5  C3  <0> d          -2.479   0.930   0.019  0.00  0.00     0.006 C 
ATOM      6  H5  <0> d          -2.417   0.309  -0.875  0.00  0.00     0.065 H 
ATOM      7  H6  <0> d          -2.408   0.299   0.905  0.00  0.00     0.065 H 
BRANCH   5   8
ATOM      8  C4  <0> d          -1.329   1.940   0.019  0.00  0.00     0.030 C 
ATOM      9  H7  <0> d          -1.391   2.561   0.913  0.00  0.00     0.051 H 
ATOM     10  H8  <0> d          -1.400   2.570  -0.867  0.00  0.00     0.051 H 
BRANCH   8  11
ATOM     11  C5  <0> d          -0.014   1.204   0.009  0.00  0.00     0.174 C 
ATOM     12  O3  <0> d           0.002  -0.004   0.002  0.00  0.00    -0.648 OA
ATOM     13  O4  <0> d           1.139   1.891   0.001  0.00  0.00    -0.648 OA
ENDBRANCH   8  11
ENDBRANCH   5   8
ENDBRANCH   3   5
BRANCH   1  14
ATOM     14  O1  <0> d          -6.090   1.613   0.040  0.00  0.00    -0.309 OA
BRANCH  14  15
ATOM     15  C1  <0> d          -7.297   0.805   0.041  0.00  0.00     0.015 C 
ATOM     16  H1  <0> d          -8.171   1.457   0.049  0.00  0.00     0.067 H 
ATOM     17  H2  <0> d          -7.318   0.181  -0.852  0.00  0.00     0.067 H 
ATOM     18  H3  <0> d          -7.309   0.171   0.928  0.00  0.00     0.067 H 
ENDBRANCH  14  15
ENDBRANCH   1  14
TORSDOF 5
