REMARK  2 active torsions:
REMARK  status: ('A' for Active; 'I' for Inactive)
REMARK    1  A    between atoms: C5_5  and  C7_7 
REMARK    2  A    between atoms: C7_7  and  O1_8 
ROOT
ATOM      1  C1  <0> d          -3.769  -0.118   0.037  0.00  0.00    -0.082 A 
ATOM      2  C2  <0> d          -4.003  -1.479   0.032  0.00  0.00    -0.076 A 
ATOM      3  C3  <0> d          -2.941  -2.368   0.016  0.00  0.00    -0.051 A 
ATOM      4  C4  <0> d          -1.644  -1.891   0.002  0.00  0.00    -0.043 A 
ATOM      5  C5  <0> d          -1.412  -0.526   0.013  0.00  0.00    -0.028 A 
ATOM      6  C6  <0> d          -2.472   0.360   0.028  0.00  0.00    -0.074 A 
ATOM      7  C8  <0> d          -0.672  -3.051  -0.010  0.00  0.00    -0.040 C 
ATOM      8  C9  <0> d          -1.499  -4.277   0.431  0.00  0.00    -0.058 C 
ATOM      9  C10 <0> d          -2.929  -3.882   0.007  0.00  0.00    -0.040 C 
ATOM     10  H1  <0> d          -4.599   0.573   0.049  0.00  0.00     0.083 H 
ATOM     11  H2  <0> d          -5.016  -1.852   0.039  0.00  0.00     0.084 H 
ATOM     12  H3  <0> d          -2.288   1.424   0.032  0.00  0.00     0.084 H 
ATOM     13  H7  <0> d           0.143  -2.872   0.692  0.00  0.00     0.040 H 
ATOM     14  H8  <0> d          -0.279  -3.201  -1.015  0.00  0.00     0.040 H 
ATOM     15  H9  <0> d          -1.439  -4.417   1.510  0.00  0.00     0.033 H 
ATOM     16  H10 <0> d          -1.172  -5.174  -0.095  0.00  0.00     0.033 H 
ATOM     17  H11 <0> d          -3.656  -4.270   0.721  0.00  0.00     0.040 H 
ATOM     18  H12 <0> d          -3.144  -4.256  -0.994  0.00  0.00     0.040 H 
ENDROOT
BRANCH   5  19
ATOM     19  C7  <0> d           0.002  -0.004   0.002  0.00  0.00     0.041 C 
ATOM     20  H4  <0> d           0.512  -0.356  -0.895  0.00  0.00     0.081 H 
ATOM     21  H5  <0> d           0.529  -0.365   0.885  0.00  0.00     0.081 H 
BRANCH  19  22
ATOM     22  O1  <0> d          -0.017   1.425   0.010  0.00  0.00    -0.396 OA
ATOM     23  H6  <0> d           0.861   1.830   0.004  0.00  0.00     0.209 HD
ENDBRANCH  19  22
ENDBRANCH   5  19
TORSDOF 2
