REMARK  0 active torsions:
REMARK  status: ('A' for Active; 'I' for Inactive)
ROOT
ATOM      1  C1  <0> d          -0.018   1.460   0.010  0.00  0.00    -0.054 A 
ATOM      2  C2  <0> d           1.261   1.867   0.000  0.00  0.00    -0.020 A 
ATOM      3  N1  <0> d           2.096   0.783  -0.014  0.00  0.00    -0.352 N 
ATOM      4  H1  <0> d           3.065   0.827  -0.022  0.00  0.00     0.166 HD
ATOM      5  C3  <0> d           1.359  -0.379  -0.013  0.00  0.00     0.115 A 
ATOM      6  C4  <0> d           0.002  -0.004   0.002  0.00  0.00     0.012 A 
ATOM      7  C5  <0> d          -0.985  -0.992   0.006  0.00  0.00    -0.033 A 
ATOM      8  C6  <0> d          -0.579  -2.318  -0.006  0.00  0.00     0.123 A 
ATOM      9  C7  <0> d           0.780  -2.613  -0.020  0.00  0.00     0.014 A 
ATOM     10  N2  <0> d           1.690  -1.663  -0.023  0.00  0.00    -0.349 N 
ATOM     11  O1  <0> d          -1.500  -3.319  -0.002  0.00  0.00    -0.191 OA
ATOM     12  H2  <0> d          -0.894   2.091   0.026  0.00  0.00     0.087 H 
ATOM     13  H3  <0> d           1.583   2.898   0.003  0.00  0.00     0.111 H 
ATOM     14  H4  <0> d          -2.033  -0.732   0.018  0.00  0.00     0.089 H 
ATOM     15  H5  <0> d           1.095  -3.646  -0.029  0.00  0.00     0.115 H 
ATOM     16  H6  <0> d           2.629  -1.908  -0.034  0.00  0.00     0.167 HD
ENDROOT
TORSDOF 0
