REMARK  3 active torsions:
REMARK  status: ('A' for Active; 'I' for Inactive)
REMARK    1  A    between atoms: C1_1  and  C2_2 
REMARK    2  A    between atoms: C4_4  and  N3_9 
REMARK    3  A    between atoms: C5_6  and  C6_8 
ROOT
ATOM      1  C2  <0> d           2.370   1.286  -0.013  0.00  0.00     0.058 A 
ATOM      2  C3  <0> d           1.198   2.018   0.002  0.00  0.00     0.103 A 
ATOM      3  C4  <0> d          -0.016   1.325   0.009  0.00  0.00     0.147 A 
ATOM      4  N1  <0> d           0.002  -0.004   0.002  0.00  0.00    -0.215 NA
ATOM      5  C5  <0> d           1.144  -0.661  -0.012  0.00  0.00     0.124 A 
ATOM      6  N2  <0> d           2.305  -0.038  -0.020  0.00  0.00    -0.237 NA
ATOM      7 Cl1  <0> d           1.232   3.753   0.010  0.00  0.00    -0.078 Cl
ENDROOT
BRANCH   1   8
ATOM      8  C1  <0> d           3.705   1.984  -0.021  0.00  0.00    -0.034 C 
ATOM      9  H1  <0> d           4.018   2.158  -1.051  0.00  0.00     0.035 H 
ATOM     10  H2  <0> d           3.619   2.938   0.498  0.00  0.00     0.035 H 
ATOM     11  H3  <0> d           4.444   1.361   0.483  0.00  0.00     0.035 H 
ENDBRANCH   1   8
BRANCH   5  12
ATOM     12  C6  <0> d           1.122  -2.168  -0.020  0.00  0.00    -0.019 C 
ATOM     13  H4  <0> d           1.106  -2.526  -1.050  0.00  0.00     0.037 H 
ATOM     14  H5  <0> d           2.011  -2.547   0.483  0.00  0.00     0.037 H 
ATOM     15  H6  <0> d           0.231  -2.521   0.500  0.00  0.00     0.037 H 
ENDBRANCH   5  12
BRANCH   3  16
ATOM     16  N3  <0> d          -1.219   2.013   0.019  0.00  0.00    -0.383 N 
ATOM     17  H7  <0> d          -2.057   1.525   0.020  0.00  0.00     0.157 HD
ATOM     18  H8  <0> d          -1.223   2.983   0.024  0.00  0.00     0.157 HD
ENDBRANCH   3  16
TORSDOF 3
