REMARK  3 active torsions:
REMARK  status: ('A' for Active; 'I' for Inactive)
REMARK    1  A    between atoms: C1_1  and  C2_2 
REMARK    2  A    between atoms: N2_5  and  C5_8 
REMARK    3  A    between atoms: C4_6  and  N3_7 
ROOT
ATOM      1  C2  <0> d          -2.465   1.079   0.020  0.00  0.00     0.002 A 
ATOM      2  C3  <0> d          -3.406   2.112   0.030  0.00  0.00     0.031 A 
ATOM      3  N1  <0> d          -2.766   3.253   0.034  0.00  0.00    -0.183 NA
ATOM      4  N2  <0> d          -1.391   2.988   0.031  0.00  0.00    -0.259 N 
ATOM      5  C4  <0> d          -1.226   1.645   0.017  0.00  0.00     0.124 A 
ATOM      6  H4  <0> d          -4.479   1.989   0.035  0.00  0.00     0.118 H 
ENDROOT
BRANCH   1   7
ATOM      7  C1  <0> d          -2.766  -0.397   0.012  0.00  0.00    -0.046 C 
ATOM      8  H1  <0> d          -2.833  -0.760   1.038  0.00  0.00     0.033 H 
ATOM      9  H2  <0> d          -3.713  -0.572  -0.498  0.00  0.00     0.033 H 
ATOM     10  H3  <0> d          -1.969  -0.928  -0.509  0.00  0.00     0.033 H 
ENDBRANCH   1   7
BRANCH   5  11
ATOM     11  N3  <0> d          -0.011   0.966   0.007  0.00  0.00    -0.384 N 
ATOM     12  H5  <0> d           0.002  -0.004   0.002  0.00  0.00     0.157 HD
ATOM     13  H6  <0> d           0.822   1.462   0.002  0.00  0.00     0.157 HD
ENDBRANCH   5  11
BRANCH   4  14
ATOM     14  C5  <0> d          -0.320   3.988   0.038  0.00  0.00     0.004 C 
ATOM     15  H7  <0> d          -0.057   4.246  -0.988  0.00  0.00     0.059 H 
ATOM     16  H8  <0> d          -0.660   4.881   0.562  0.00  0.00     0.059 H 
ATOM     17  H9  <0> d           0.554   3.580   0.545  0.00  0.00     0.059 H 
ENDBRANCH   4  14
TORSDOF 3
