REMARK  2 active torsions:
REMARK  status: ('A' for Active; 'I' for Inactive)
REMARK    1  A    between atoms: C8_8  and  C9_10 
REMARK    2  A    between atoms: C9_10  and  O1_11 
ROOT
ATOM      1  C1  <0> d           1.974   5.226   3.496  0.00  0.00    -0.082 A 
ATOM      2  C2  <0> d           0.770   4.558   3.614  0.00  0.00    -0.082 A 
ATOM      3  C3  <0> d           0.304   3.785   2.568  0.00  0.00    -0.076 A 
ATOM      4  C4  <0> d           1.038   3.676   1.400  0.00  0.00    -0.045 A 
ATOM      5  C5  <0> d           2.248   4.347   1.281  0.00  0.00    -0.051 A 
ATOM      6  C6  <0> d           2.710   5.120   2.332  0.00  0.00    -0.076 A 
ATOM      7  C7  <0> d           2.482   3.827  -0.124  0.00  0.00    -0.031 A 
ATOM      8  C8  <0> d           1.145   3.085   0.008  0.00  0.00    -0.004 A 
ATOM      9  H1  <0> d           0.337   3.198  -0.730  0.00  0.00     0.051 H 
ATOM     10  H2  <0> d           2.340   5.830   4.313  0.00  0.00     0.083 H 
ATOM     11  H3  <0> d           0.194   4.639   4.524  0.00  0.00     0.083 H 
ATOM     12  H4  <0> d          -0.637   3.264   2.663  0.00  0.00     0.084 H 
ATOM     13  H5  <0> d           3.651   5.643   2.242  0.00  0.00     0.084 H 
ATOM     14  H6  <0> d           2.558   4.675  -0.821  0.00  0.00     0.041 H 
ATOM     15  H7  <0> d           3.417   3.247  -0.149  0.00  0.00     0.041 H 
ENDROOT
BRANCH   8  16
ATOM     16  C9  <0> d           1.286   1.562  -0.002  0.00  0.00     0.024 C 
ATOM     17  H8  <0> d           1.828   1.250  -0.907  0.00  0.00     0.075 H 
ATOM     18  H9  <0> d           1.845   1.240   0.889  0.00  0.00     0.075 H 
BRANCH  16  19
ATOM     19  O1  <0> d          -0.011   0.963   0.007  0.00  0.00    -0.400 OA
ATOM     20  H10 <0> d          -0.111  -0.133   0.002  0.00  0.00     0.209 HD
ENDBRANCH  16  19
ENDBRANCH   8  16
TORSDOF 2
