REMARK  5 active torsions:
REMARK  status: ('A' for Active; 'I' for Inactive)
REMARK    1  A    between atoms: C1_1  and  C2_2 
REMARK    2  A    between atoms: C2_2  and  C3_4 
REMARK    3  A    between atoms: C2_2  and  C9_10 
REMARK    4  A    between atoms: C9_10  and  C10_12 
REMARK    5  A    between atoms: C9_10  and  O1_13 
ROOT
ATOM      1  C3  <0> d          -0.009   1.076   0.015  0.00  0.00    -0.049 C 
ATOM      2  C4  <0> d          -0.722   1.564   1.278  0.00  0.00    -0.061 C 
ATOM      3  C5  <0> d          -2.154   1.025   1.296  0.00  0.00    -0.065 C 
ATOM      4  C6  <0> d          -2.904   1.528   0.061  0.00  0.00    -0.065 C 
ATOM      5  C7  <0> d          -2.191   1.040  -1.202  0.00  0.00    -0.065 C 
ATOM      6  C8  <0> d          -0.759   1.579  -1.220  0.00  0.00    -0.061 C 
ATOM      7  H6  <0> d           0.013  -0.023   0.008  0.00  0.00     0.040 H 
ATOM      8  H7  <0> d          -0.183   1.202   2.166  0.00  0.00     0.033 H 
ATOM      9  H8  <0> d          -0.744   2.664   1.285  0.00  0.00     0.033 H 
ATOM     10  H9  <0> d          -2.132  -0.075   1.289  0.00  0.00     0.033 H 
ATOM     11  H10 <0> d          -2.666   1.375   2.204  0.00  0.00     0.033 H 
ATOM     12  H11 <0> d          -3.933   1.140   0.073  0.00  0.00     0.033 H 
ATOM     13  H12 <0> d          -2.926   2.628   0.068  0.00  0.00     0.033 H 
ATOM     14  H13 <0> d          -2.169  -0.059  -1.210  0.00  0.00     0.033 H 
ATOM     15  H14 <0> d          -2.730   1.402  -2.090  0.00  0.00     0.033 H 
ATOM     16  H15 <0> d          -0.781   2.679  -1.213  0.00  0.00     0.033 H 
ATOM     17  H16 <0> d          -0.246   1.229  -2.128  0.00  0.00     0.033 H 
ENDROOT
BRANCH   1  18
ATOM     18  C2  <0> d           1.423   1.615  -0.003  0.00  0.00    -0.030 C 
ATOM     19  H1  <0> d           1.932   1.333   0.930  0.00  0.00     0.043 H 
BRANCH  18  20
ATOM     20  C1  <0> d           1.392   3.140  -0.127  0.00  0.00    -0.070 C 
ATOM     21  H3  <0> d           2.421   3.528  -0.139  0.00  0.00     0.028 H 
ATOM     22  H4  <0> d           0.850   3.567   0.731  0.00  0.00     0.028 H 
ATOM     23  H5  <0> d           0.882   3.422  -1.060  0.00  0.00     0.028 H 
ENDBRANCH  18  20
BRANCH  18  24
ATOM     24  C9  <0> d           2.176   1.022  -1.195  0.00  0.00     0.035 C 
ATOM     25  H2  <0> d           1.712   1.317  -2.147  0.00  0.00     0.082 H 
BRANCH  24  26
ATOM     26  C10 <0> d           3.643   1.452  -1.136  0.00  0.00    -0.052 C 
ATOM     27  H17 <0> d           4.185   1.025  -1.993  0.00  0.00     0.030 H 
ATOM     28  H18 <0> d           4.094   1.090  -0.200  0.00  0.00     0.030 H 
ATOM     29  H19 <0> d           3.706   2.550  -1.172  0.00  0.00     0.030 H 
ENDBRANCH  24  26
BRANCH  24  30
ATOM     30  O1  <0> d           2.095  -0.404  -1.148  0.00  0.00    -0.396 OA
ATOM     31  H20 <0> d           2.581  -1.008  -1.928  0.00  0.00     0.210 HD
ENDBRANCH  24  30
ENDBRANCH  18  24
ENDBRANCH   1  18
TORSDOF 5
