REMARK  3 active torsions:
REMARK  status: ('A' for Active; 'I' for Inactive)
REMARK    1  A    between atoms: C1_1  and  O1_2 
REMARK    2  A    between atoms: O1_2  and  C2_3 
REMARK    3  A    between atoms: C2_3  and  C3_5 
ROOT
ATOM      1  C3  <0> d          -0.792   3.042  -1.183  0.00  0.00     0.235 C 
ATOM      2  H1  <0> d           0.238   3.426  -1.228  0.00  0.00     0.107 H 
ATOM      3  C4  <0> d          -1.503   3.517   0.086  0.00  0.00     0.057 C 
ATOM      4  O3  <0> d          -0.815   3.008   1.231  0.00  0.00    -0.387 OA
ATOM      5  C5  <0> d          -0.731   1.580   1.266  0.00  0.00     0.044 C 
ATOM      6  C6  <0> d          -0.013   1.086   0.008  0.00  0.00     0.132 C 
ATOM      7  N1  <0> d          -0.725   1.574  -1.182  0.00  0.00     0.102 N 
ATOM      8  H5  <0> d          -1.505   4.617   0.116  0.00  0.00     0.078 H 
ATOM      9  H6  <0> d          -2.540   3.149   0.085  0.00  0.00     0.078 H 
ATOM     10  H7  <0> d          -0.169   1.268   2.159  0.00  0.00     0.076 H 
ATOM     11  H8  <0> d          -1.745   1.155   1.304  0.00  0.00     0.076 H 
ATOM     12  H9  <0> d           1.019   1.467   0.001  0.00  0.00     0.082 H 
ATOM     13  H10 <0> d           0.003  -0.014   0.003  0.00  0.00     0.082 H 
ATOM     14  H11 <0> d          -1.745   1.161  -1.179  0.00  0.00     0.317 HD
ENDROOT
BRANCH   1  15
ATOM     15  C2  <0> d          -1.557   3.510  -2.394  0.00  0.00     0.294 C 
ATOM     16  O2  <0> d          -2.299   2.750  -2.971  0.00  0.00    -0.263 OA
BRANCH  15  17
ATOM     17  O1  <0> d          -1.415   4.771  -2.832  0.00  0.00    -0.325 OA
BRANCH  17  18
ATOM     18  C1  <0> d          -2.184   5.152  -4.004  0.00  0.00     0.013 C 
ATOM     19  H2  <0> d          -1.975   6.203  -4.253  0.00  0.00     0.067 H 
ATOM     20  H3  <0> d          -3.257   5.031  -3.794  0.00  0.00     0.067 H 
ATOM     21  H4  <0> d          -1.901   4.511  -4.852  0.00  0.00     0.067 H 
ENDBRANCH  17  18
ENDBRANCH  15  17
ENDBRANCH   1  15
TORSDOF 3
