REMARK  7 active torsions:
REMARK  status: ('A' for Active; 'I' for Inactive)
REMARK    1  A    between atoms: C1_1  and  C2_2 
REMARK    2  A    between atoms: C2_2  and  C3_3 
REMARK    3  A    between atoms: C3_3  and  C4_4 
REMARK    4  A    between atoms: C4_4  and  C5_5 
REMARK    5  A    between atoms: C4_4  and  C6_6 
REMARK    6  A    between atoms: C4_4  and  C8_8 
REMARK    7  A    between atoms: C6_6  and  C7_7 
ROOT
ATOM      1  C4  <0> d          -0.019   1.526   0.010  0.00  0.00     0.044 C 
ENDROOT
BRANCH   1   2
ATOM      2  C3  <0> d          -0.759   2.033  -1.229  0.00  0.00    -0.049 C 
ATOM      3  H6  <0> d          -1.781   1.655  -1.221  0.00  0.00     0.034 H 
ATOM      4  H7  <0> d          -0.773   3.123  -1.223  0.00  0.00     0.034 H 
BRANCH   2   5
ATOM      5  C2  <0> d          -0.043   1.539  -2.488  0.00  0.00    -0.067 C 
ATOM      6  H4  <0> d           0.980   1.917  -2.496  0.00  0.00     0.032 H 
ATOM      7  H5  <0> d          -0.028   0.449  -2.494  0.00  0.00     0.032 H 
BRANCH   5   8
ATOM      8  C1  <0> d          -0.782   2.046  -3.727  0.00  0.00    -0.076 C 
ATOM      9  H1  <0> d          -0.272   1.694  -4.624  0.00  0.00     0.027 H 
ATOM     10  H2  <0> d          -1.805   1.669  -3.720  0.00  0.00     0.027 H 
ATOM     11  H3  <0> d          -0.797   3.136  -3.721  0.00  0.00     0.027 H 
ENDBRANCH   5   8
ENDBRANCH   2   5
ENDBRANCH   1   2
BRANCH   1  12
ATOM     12  C5  <0> d           0.002  -0.004   0.002  0.00  0.00    -0.059 C 
ATOM     13  H8  <0> d           0.529  -0.365   0.885  0.00  0.00     0.029 H 
ATOM     14  H9  <0> d          -1.020  -0.381   0.010  0.00  0.00     0.029 H 
ATOM     15  H10 <0> d           0.512  -0.356  -0.895  0.00  0.00     0.029 H 
ENDBRANCH   1  12
BRANCH   1  16
ATOM     16  C6  <0> d          -0.735   2.019   1.269  0.00  0.00    -0.052 C 
ATOM     17  H11 <0> d          -0.750   3.109   1.275  0.00  0.00     0.034 H 
ATOM     18  H12 <0> d          -1.757   1.642   1.277  0.00  0.00     0.034 H 
BRANCH  16  19
ATOM     19  C7  <0> d           0.005   1.512   2.509  0.00  0.00    -0.075 C 
ATOM     20  H13 <0> d          -0.505   1.864   3.406  0.00  0.00     0.027 H 
ATOM     21  H14 <0> d           0.020   0.422   2.503  0.00  0.00     0.027 H 
ATOM     22  H15 <0> d           1.028   1.890   2.501  0.00  0.00     0.027 H 
ENDBRANCH  16  19
ENDBRANCH   1  16
BRANCH   1  23
ATOM     23  C8  <0> d           1.395   2.047  -0.000  0.00  0.00     0.181 C 
ATOM     24  O1  <0> d           2.324   1.275  -0.013  0.00  0.00    -0.647 OA
ATOM     25  O2  <0> d           1.623   3.370   0.005  0.00  0.00    -0.647 OA
ENDBRANCH   1  23
TORSDOF 7
