REMARK  3 active torsions:
REMARK  status: ('A' for Active; 'I' for Inactive)
REMARK    1  A    between atoms: C1_1  and  C2_2 
REMARK    2  A    between atoms: C6_7  and  C7_8 
REMARK    3  A    between atoms: C7_8  and  C8_10 
ROOT
ATOM      1  C2  <0> d          -0.576   2.377   3.607  0.00  0.00    -0.045 A 
ATOM      2  C3  <0> d           0.240   2.795   4.643  0.00  0.00    -0.059 A 
ATOM      3  C4  <0> d           1.581   2.454   4.629  0.00  0.00     0.002 A 
ATOM      4  N1  <0> d           2.093   1.735   3.647  0.00  0.00    -0.272 NA
ATOM      5  C5  <0> d           1.359   1.310   2.641  0.00  0.00     0.016 A 
ATOM      6  C6  <0> d          -0.005   1.610   2.580  0.00  0.00     0.033 A 
ATOM      7  H4  <0> d          -0.165   3.384   5.453  0.00  0.00     0.086 H 
ATOM      8  H5  <0> d           2.220   2.782   5.435  0.00  0.00     0.114 H 
ATOM      9  H6  <0> d           1.814   0.724   1.856  0.00  0.00     0.116 H 
ENDROOT
BRANCH   6  10
ATOM     10  C7  <0> d          -0.827   1.135   1.456  0.00  0.00     0.157 C 
ATOM     11  O1  <0> d          -2.027   1.309   1.466  0.00  0.00    -0.293 OA
BRANCH  10  12
ATOM     12  C8  <0> d          -0.177   0.433   0.291  0.00  0.00    -0.017 C 
ATOM     13  H7  <0> d          -0.150  -0.551   0.468  0.00  0.00     0.038 H 
ATOM     14  H8  <0> d           0.838   0.808   0.162  0.00  0.00     0.038 H 
ATOM     15  H9  <0> d          -0.753   0.623  -0.615  0.00  0.00     0.038 H 
ENDBRANCH  10  12
ENDBRANCH   6  10
BRANCH   1  16
ATOM     16  C1  <0> d          -2.040   2.733   3.584  0.00  0.00    -0.050 C 
ATOM     17  H1  <0> d          -2.620   1.908   3.998  0.00  0.00     0.033 H 
ATOM     18  H2  <0> d          -2.205   3.629   4.182  0.00  0.00     0.033 H 
ATOM     19  H3  <0> d          -2.353   2.918   2.557  0.00  0.00     0.033 H 
ENDBRANCH   1  16
TORSDOF 3
