REMARK  4 active torsions:
REMARK  status: ('A' for Active; 'I' for Inactive)
REMARK    1  A    between atoms: C1_1  and  C2_2 
REMARK    2  A    between atoms: C2_2  and  C3_3 
REMARK    3  A    between atoms: C6_6  and  S1_9 
REMARK    4  A    between atoms: S1_9  and  C9_10 
ROOT
ATOM      1  C3  <0> d           1.208  -0.681  -0.013  0.00  0.00    -0.059 A 
ATOM      2  C4  <0> d           0.002  -0.004   0.002  0.00  0.00    -0.076 A 
ATOM      3  C5  <0> d          -0.017   1.377   0.010  0.00  0.00    -0.066 A 
ATOM      4  C6  <0> d           1.178   2.086   0.002  0.00  0.00    -0.000 A 
ATOM      5  C7  <0> d           2.388   1.403  -0.012  0.00  0.00    -0.066 A 
ATOM      6  C8  <0> d           2.399   0.022  -0.020  0.00  0.00    -0.076 A 
ATOM      7  H6  <0> d          -0.926  -0.556   0.008  0.00  0.00     0.084 H 
ATOM      8  H7  <0> d          -0.959   1.905   0.017  0.00  0.00     0.085 H 
ATOM      9  H8  <0> d           3.319   1.951  -0.017  0.00  0.00     0.085 H 
ATOM     10  H9  <0> d           3.339  -0.510  -0.031  0.00  0.00     0.084 H 
ENDROOT
BRANCH   1  11
ATOM     11  C2  <0> d           1.224  -2.188  -0.020  0.00  0.00    -0.044 C 
ATOM     12  H4  <0> d           2.123  -2.544   0.483  0.00  0.00     0.039 H 
ATOM     13  H5  <0> d           0.343  -2.563   0.500  0.00  0.00     0.039 H 
BRANCH  11  14
ATOM     14  C1  <0> d           1.216  -2.691  -1.466  0.00  0.00    -0.073 C 
ATOM     15  H1  <0> d           1.228  -3.780  -1.471  0.00  0.00     0.028 H 
ATOM     16  H2  <0> d           0.318  -2.334  -1.969  0.00  0.00     0.028 H 
ATOM     17  H3  <0> d           2.098  -2.315  -1.986  0.00  0.00     0.028 H 
ENDBRANCH  11  14
ENDBRANCH   1  11
BRANCH   4  18
ATOM     18  S1  <0> d           1.159   3.848   0.012  0.00  0.00    -0.134 SA
BRANCH  18  19
ATOM     19  C9  <0> d           2.915   4.306  -0.003  0.00  0.00    -0.030 C 
ATOM     20  H10 <0> d           3.387   3.905  -0.899  0.00  0.00     0.042 H 
ATOM     21  H11 <0> d           3.007   5.392   0.002  0.00  0.00     0.042 H 
ATOM     22  H12 <0> d           3.404   3.896   0.880  0.00  0.00     0.042 H 
ENDBRANCH  18  19
ENDBRANCH   4  18
TORSDOF 4
