REMARK  3 active torsions:
REMARK  status: ('A' for Active; 'I' for Inactive)
REMARK    1  A    between atoms: C1_1  and  C2_2 
REMARK    2  A    between atoms: C5_5  and  O2_10 
REMARK    3  A    between atoms: C6_6  and  C8_8 
ROOT
ATOM      1  C2  <0> d           0.039  -2.781  -0.011  0.00  0.00    -0.061 A 
ATOM      2  C3  <0> d           0.041  -2.088   1.188  0.00  0.00    -0.075 A 
ATOM      3  C4  <0> d           0.023  -0.707   1.198  0.00  0.00    -0.049 A 
ATOM      4  C5  <0> d           0.002  -0.004   0.002  0.00  0.00     0.082 A 
ATOM      5  C6  <0> d          -0.006  -0.702  -1.214  0.00  0.00     0.074 A 
ATOM      6  C7  <0> d           0.019  -2.099  -1.208  0.00  0.00    -0.058 A 
ATOM      7  H4  <0> d           0.057  -2.630   2.122  0.00  0.00     0.084 H 
ATOM      8  H5  <0> d           0.025  -0.174   2.137  0.00  0.00     0.087 H 
ATOM      9  H6  <0> d           0.017  -2.644  -2.141  0.00  0.00     0.086 H 
ENDROOT
BRANCH   1  10
ATOM     10  C1  <0> d           0.059  -4.288  -0.007  0.00  0.00    -0.051 C 
ATOM     11  H1  <0> d          -0.963  -4.665   0.004  0.00  0.00     0.033 H 
ATOM     12  H2  <0> d           0.570  -4.647  -0.900  0.00  0.00     0.033 H 
ATOM     13  H3  <0> d           0.586  -4.641   0.880  0.00  0.00     0.033 H 
ENDBRANCH   1  10
BRANCH   5  14
ATOM     14  C8  <0> d          -0.035   0.034  -2.491  0.00  0.00     0.212 C 
ATOM     15  O1  <0> d          -0.052   1.249  -2.492  0.00  0.00    -0.644 OA
ATOM     16  O3  <0> d          -0.042  -0.641  -3.657  0.00  0.00    -0.644 OA
ENDBRANCH   5  14
BRANCH   4  17
ATOM     17  O2  <0> d          -0.016   1.352   0.009  0.00  0.00    -0.360 OA
ATOM     18  H7  <0> d           0.862   1.758   0.003  0.00  0.00     0.217 HD
ENDBRANCH   4  17
TORSDOF 3
