REMARK  4 active torsions:
REMARK  status: ('A' for Active; 'I' for Inactive)
REMARK    1  A    between atoms: C1_1  and  C2_2 
REMARK    2  A    between atoms: C3_3  and  N3_10 
REMARK    3  A    between atoms: C5_5  and  N2_9 
REMARK    4  A    between atoms: C7_7  and  N1_8 
ROOT
ATOM      1  C2  <0> d          -1.243   3.142   0.029  0.00  0.00    -0.009 A 
ATOM      2  C3  <0> d          -1.224   1.754   0.017  0.00  0.00     0.036 A 
ATOM      3  C4  <0> d          -0.013   1.076   0.008  0.00  0.00    -0.032 A 
ATOM      4  C5  <0> d           1.180   1.786   0.000  0.00  0.00     0.030 A 
ATOM      5  C6  <0> d           1.161   3.175   0.007  0.00  0.00    -0.032 A 
ATOM      6  C7  <0> d          -0.050   3.852   0.022  0.00  0.00     0.036 A 
ATOM      7  H4  <0> d           0.002  -0.004   0.002  0.00  0.00     0.090 H 
ATOM      8  H5  <0> d           2.089   3.727   0.001  0.00  0.00     0.090 H 
ENDROOT
BRANCH   1   9
ATOM      9  C1  <0> d          -2.558   3.877   0.045  0.00  0.00    -0.047 C 
ATOM     10  H1  <0> d          -2.885   4.060  -0.978  0.00  0.00     0.033 H 
ATOM     11  H2  <0> d          -3.305   3.275   0.563  0.00  0.00     0.033 H 
ATOM     12  H3  <0> d          -2.436   4.829   0.563  0.00  0.00     0.033 H 
ENDBRANCH   1   9
BRANCH   6  13
ATOM     13  N1  <0> d          -0.069   5.249   0.029  0.00  0.00    -0.399 N 
ATOM     14  H6  <0> d           0.764   5.745   0.024  0.00  0.00     0.156 HD
ATOM     15  H7  <0> d          -0.916   5.722   0.040  0.00  0.00     0.156 HD
ENDBRANCH   6  13
BRANCH   2  16
ATOM     16  N3  <0> d          -2.424   1.039   0.020  0.00  0.00    -0.399 N 
ATOM     17  H10 <0> d          -2.411   0.069   0.015  0.00  0.00     0.156 HD
ATOM     18  H11 <0> d          -3.271   1.512   0.026  0.00  0.00     0.156 HD
ENDBRANCH   2  16
BRANCH   4  19
ATOM     19  N2  <0> d           2.399   1.105  -0.014  0.00  0.00    -0.399 N 
ATOM     20  H8  <0> d           2.412   0.135  -0.019  0.00  0.00     0.156 HD
ATOM     21  H9  <0> d           3.232   1.601  -0.019  0.00  0.00     0.156 HD
ENDBRANCH   4  19
TORSDOF 4
