REMARK  4 active torsions:
REMARK  status: ('A' for Active; 'I' for Inactive)
REMARK    1  A    between atoms: C1_1  and  C2_2 
REMARK    2  A    between atoms: C2_2  and  C3_3 
REMARK    3  A    between atoms: C3_3  and  N1_4 
REMARK       I    between atoms: N1_4  and  C4_5 
REMARK    4  A    between atoms: C4_5  and  C5_7 
ROOT
ATOM      1  C3  <0> d          -1.290   1.681   0.017  0.00  0.00    -0.005 C 
ATOM      2  H6  <0> d          -1.352   2.302   0.911  0.00  0.00     0.064 H 
ATOM      3  H7  <0> d          -1.360   2.312  -0.869  0.00  0.00     0.064 H 
ENDROOT
BRANCH   1   4
ATOM      4  C2  <0> d          -2.439   0.671   0.017  0.00  0.00    -0.054 C 
ATOM      5  H4  <0> d          -2.377   0.050  -0.876  0.00  0.00     0.034 H 
ATOM      6  H5  <0> d          -2.369   0.040   0.903  0.00  0.00     0.034 H 
BRANCH   4   7
ATOM      7  C1  <0> d          -3.774   1.418   0.028  0.00  0.00    -0.075 C 
ATOM      8  H1  <0> d          -3.836   2.039   0.921  0.00  0.00     0.027 H 
ATOM      9  H2  <0> d          -3.845   2.049  -0.859  0.00  0.00     0.027 H 
ATOM     10  H3  <0> d          -4.593   0.699   0.028  0.00  0.00     0.027 H 
ENDBRANCH   4   7
ENDBRANCH   1   4
BRANCH   1  11
ATOM     11  N1  <0> d          -0.011   0.966   0.007  0.00  0.00    -0.361 N 
ATOM     12  C4  <0> d           1.147   1.655  -0.000  0.00  0.00     0.213 C 
ATOM     13  O1  <0> d           1.130   2.868   0.007  0.00  0.00    -0.274 OA
ATOM     14  H8  <0> d           0.002  -0.004   0.002  0.00  0.00     0.162 HD
BRANCH  12  15
ATOM     15  C5  <0> d           2.462   0.920  -0.017  0.00  0.00    -0.003 C 
ATOM     16  H9  <0> d           2.277  -0.154  -0.021  0.00  0.00     0.040 H 
ATOM     17  H10 <0> d           3.021   1.196  -0.910  0.00  0.00     0.040 H 
ATOM     18  H11 <0> d           3.038   1.186   0.870  0.00  0.00     0.040 H 
ENDBRANCH  12  15
ENDBRANCH   1  11
TORSDOF 4
