REMARK  0 active torsions:
REMARK  status: ('A' for Active; 'I' for Inactive)
ROOT
ATOM      1  C1  <0> d          -1.236   1.761   0.018  0.00  0.00    -0.076 A 
ATOM      2  C2  <0> d          -0.013   1.076   0.008  0.00  0.00    -0.068 A 
ATOM      3  C3  <0> d           1.150   1.769   0.001  0.00  0.00    -0.020 A 
ATOM      4  N1  <0> d           1.148   3.127   0.008  0.00  0.00    -0.334 N 
ATOM      5  H1  <0> d           2.099   3.678   0.002  0.00  0.00     0.168 HD
ATOM      6  C4  <0> d          -0.011   3.813   0.023  0.00  0.00     0.245 A 
ATOM      7  O1  <0> d           0.003   5.034   0.029  0.00  0.00    -0.268 OA
ATOM      8  C5  <0> d          -1.236   3.125   0.030  0.00  0.00    -0.017 A 
ATOM      9  H2  <0> d          -2.167   1.214   0.018  0.00  0.00     0.083 H 
ATOM     10  H3  <0> d           0.002  -0.004   0.002  0.00  0.00     0.085 H 
ATOM     11  H4  <0> d           2.089   1.236  -0.012  0.00  0.00     0.111 H 
ATOM     12  H5  <0> d          -2.168   3.670   0.042  0.00  0.00     0.092 H 
ENDROOT
TORSDOF 0
