REMARK  5 active torsions:
REMARK  status: ('A' for Active; 'I' for Inactive)
REMARK    1  A    between atoms: C1_1  and  C2_2 
REMARK    2  A    between atoms: C2_2  and  C3_3 
REMARK    3  A    between atoms: C6_6  and  C9_9 
REMARK    4  A    between atoms: C9_9  and  C10_11 
REMARK    5  A    between atoms: C9_9  and  O1_12 
ROOT
ATOM      1  C3  <0> d          -0.718   1.572   1.248  0.00  0.00    -0.059 A 
ATOM      2  C4  <0> d          -0.360   2.779   1.819  0.00  0.00    -0.076 A 
ATOM      3  C5  <0> d          -1.010   3.227   2.953  0.00  0.00    -0.074 A 
ATOM      4  C6  <0> d          -2.012   2.463   3.523  0.00  0.00    -0.030 A 
ATOM      5  C7  <0> d          -2.366   1.254   2.955  0.00  0.00    -0.074 A 
ATOM      6  C8  <0> d          -1.719   0.808   1.818  0.00  0.00    -0.076 A 
ATOM      7  H7  <0> d           0.425   3.373   1.376  0.00  0.00     0.084 H 
ATOM      8  H8  <0> d          -0.733   4.172   3.397  0.00  0.00     0.084 H 
ATOM      9  H9  <0> d          -3.149   0.657   3.400  0.00  0.00     0.084 H 
ATOM     10  H10 <0> d          -1.996  -0.137   1.374  0.00  0.00     0.084 H 
ENDROOT
BRANCH   4  11
ATOM     11  C9  <0> d          -2.717   2.949   4.763  0.00  0.00     0.057 C 
ATOM     12  H1  <0> d          -3.120   2.096   5.309  0.00  0.00     0.089 H 
BRANCH  11  13
ATOM     13  C10 <0> d          -3.859   3.887   4.365  0.00  0.00    -0.049 C 
ATOM     14  H11 <0> d          -3.455   4.739   3.819  0.00  0.00     0.031 H 
ATOM     15  H12 <0> d          -4.566   3.351   3.732  0.00  0.00     0.031 H 
ATOM     16  H13 <0> d          -4.369   4.238   5.262  0.00  0.00     0.031 H 
ENDBRANCH  11  13
BRANCH  11  17
ATOM     17  O1  <0> d          -1.791   3.652   5.593  0.00  0.00    -0.391 OA
ATOM     18  H14 <0> d          -2.177   3.994   6.411  0.00  0.00     0.210 HD
ENDBRANCH  11  17
ENDBRANCH   4  11
BRANCH   1  19
ATOM     19  C2  <0> d          -0.013   1.086   0.008  0.00  0.00    -0.044 C 
ATOM     20  H5  <0> d           0.002  -0.004   0.002  0.00  0.00     0.039 H 
ATOM     21  H6  <0> d           1.010   1.463   0.000  0.00  0.00     0.039 H 
BRANCH  19  22
ATOM     22  C1  <0> d          -0.753   1.593  -1.232  0.00  0.00    -0.073 C 
ATOM     23  H2  <0> d          -0.242   1.241  -2.128  0.00  0.00     0.028 H 
ATOM     24  H3  <0> d          -1.775   1.215  -1.224  0.00  0.00     0.028 H 
ATOM     25  H4  <0> d          -0.767   2.683  -1.226  0.00  0.00     0.028 H 
ENDBRANCH  19  22
ENDBRANCH   1  19
TORSDOF 5
