REMARK  2 active torsions:
REMARK  status: ('A' for Active; 'I' for Inactive)
REMARK    1  A    between atoms: C5_7  and  N3_12 
REMARK    2  A    between atoms: C7_9  and  N2_11 
ROOT
ATOM      1  C1  <0> d          -0.018   1.461   0.010  0.00  0.00    -0.054 A 
ATOM      2  C2  <0> d           1.260   1.871   0.000  0.00  0.00    -0.022 A 
ATOM      3  N1  <0> d           2.097   0.785  -0.014  0.00  0.00    -0.365 N 
ATOM      4  H1  <0> d           3.066   0.829  -0.023  0.00  0.00     0.165 HD
ATOM      5  C3  <0> d           1.357  -0.376  -0.013  0.00  0.00     0.046 A 
ATOM      6  C4  <0> d           0.002  -0.004   0.002  0.00  0.00     0.018 A 
ATOM      7  C5  <0> d          -0.996  -0.989   0.007  0.00  0.00     0.040 A 
ATOM      8  C6  <0> d          -0.638  -2.325  -0.003  0.00  0.00    -0.032 A 
ATOM      9  C7  <0> d           0.707  -2.690  -0.018  0.00  0.00     0.030 A 
ATOM     10  C8  <0> d           1.699  -1.725  -0.023  0.00  0.00    -0.031 A 
ATOM     11  H2  <0> d          -0.895   2.092   0.018  0.00  0.00     0.087 H 
ATOM     12  H3  <0> d           1.580   2.902   0.002  0.00  0.00     0.111 H 
ATOM     13  H4  <0> d          -1.403  -3.087   0.002  0.00  0.00     0.090 H 
ATOM     14  H5  <0> d           2.738  -2.019  -0.035  0.00  0.00     0.090 H 
ENDROOT
BRANCH   7  15
ATOM     15  N3  <0> d          -2.342  -0.624   0.022  0.00  0.00    -0.398 N 
ATOM     16  H8  <0> d          -2.591   0.314   0.029  0.00  0.00     0.156 HD
ATOM     17  H9  <0> d          -3.030  -1.308   0.025  0.00  0.00     0.156 HD
ENDBRANCH   7  15
BRANCH   9  18
ATOM     18  N2  <0> d           1.056  -4.043  -0.028  0.00  0.00    -0.399 N 
ATOM     19  H6  <0> d           1.991  -4.303  -0.038  0.00  0.00     0.156 HD
ATOM     20  H7  <0> d           0.365  -4.723  -0.024  0.00  0.00     0.156 HD
ENDBRANCH   9  18
TORSDOF 2
