REMARK  4 active torsions:
REMARK  status: ('A' for Active; 'I' for Inactive)
REMARK    1  A    between atoms: C1_1  and  C2_2 
REMARK    2  A    between atoms: C2_2  and  C7_8 
REMARK    3  A    between atoms: C7_8  and  O3_10 
REMARK    4  A    between atoms: O3_10  and  C8_11 
ROOT
ATOM      1  C2  <0> d          -1.293  -0.775   0.010  0.00  0.00     0.104 C 
ATOM      2  C3  <0> d          -1.004  -2.291  -0.015  0.00  0.00    -0.042 C 
ATOM      3  C4  <0> d          -2.121  -2.863  -0.925  0.00  0.00    -0.057 C 
ATOM      4  C5  <0> d          -2.270  -1.759  -2.001  0.00  0.00    -0.008 C 
ATOM      5  C6  <0> d          -2.091  -0.459  -1.237  0.00  0.00     0.145 C 
ATOM      6  O1  <0> d          -2.509   0.626  -1.563  0.00  0.00    -0.297 OA
ATOM      7  H4  <0> d          -0.022  -2.486  -0.446  0.00  0.00     0.035 H 
ATOM      8  H5  <0> d          -1.074  -2.711   0.988  0.00  0.00     0.035 H 
ATOM      9  H6  <0> d          -3.049  -2.988  -0.367  0.00  0.00     0.033 H 
ATOM     10  H7  <0> d          -1.813  -3.805  -1.377  0.00  0.00     0.033 H 
ATOM     11  H8  <0> d          -3.172  -1.829  -2.428  0.00  0.00     0.044 H 
ATOM     12  H9  <0> d          -1.499  -1.861  -2.764  0.00  0.00     0.044 H 
ENDROOT
BRANCH   1  13
ATOM     13  C1  <0> d          -2.105  -0.419   1.256  0.00  0.00    -0.053 C 
ATOM     14  H1  <0> d          -2.313   0.651   1.261  0.00  0.00     0.029 H 
ATOM     15  H2  <0> d          -3.045  -0.971   1.248  0.00  0.00     0.029 H 
ATOM     16  H3  <0> d          -1.537  -0.682   2.148  0.00  0.00     0.029 H 
ENDBRANCH   1  13
BRANCH   1  17
ATOM     17  C7  <0> d           0.002  -0.004   0.002  0.00  0.00     0.274 C 
ATOM     18  O2  <0> d           1.056  -0.594  -0.011  0.00  0.00    -0.264 OA
BRANCH  17  19
ATOM     19  O3  <0> d          -0.016   1.338   0.009  0.00  0.00    -0.326 OA
BRANCH  19  20
ATOM     20  C8  <0> d           1.268   2.015   0.001  0.00  0.00     0.013 C 
ATOM     21  H10 <0> d           1.111   3.093   0.008  0.00  0.00     0.067 H 
ATOM     22  H11 <0> d           1.838   1.725   0.884  0.00  0.00     0.067 H 
ATOM     23  H12 <0> d           1.821   1.734  -0.896  0.00  0.00     0.067 H 
ENDBRANCH  19  20
ENDBRANCH  17  19
ENDBRANCH   1  17
TORSDOF 4
