REMARK  2 active torsions:
REMARK  status: ('A' for Active; 'I' for Inactive)
REMARK    1  A    between atoms: C1_1  and  C2_2 
REMARK    2  A    between atoms: C5_6  and  C8_11 
ROOT
ATOM      1  C2  <0> d          -2.136   0.982   1.329  0.00  0.00    -0.051 C 
ATOM      2  H1  <0> d          -2.070  -0.116   1.294  0.00  0.00     0.040 H 
ATOM      3  C3  <0> d          -0.729   1.579   1.266  0.00  0.00    -0.061 C 
ATOM      4  C4  <0> d          -0.013   1.086   0.008  0.00  0.00    -0.055 C 
ATOM      5  C5  <0> d          -0.754   1.594  -1.233  0.00  0.00     0.000 C 
ATOM      6  H2  <0> d          -0.698   2.691  -1.292  0.00  0.00     0.051 H 
ATOM      7  C6  <0> d          -2.203   1.170  -1.134  0.00  0.00     0.131 C 
ATOM      8  O1  <0> d          -2.744   0.594  -2.048  0.00  0.00    -0.298 OA
ATOM      9  C7  <0> d          -2.958   1.486   0.138  0.00  0.00    -0.006 C 
ATOM     10  H6  <0> d          -0.798   2.677   1.238  0.00  0.00     0.033 H 
ATOM     11  H7  <0> d          -0.159   1.270   2.154  0.00  0.00     0.033 H 
ATOM     12  H8  <0> d           1.019   1.467   0.001  0.00  0.00     0.034 H 
ATOM     13  H9  <0> d           0.002  -0.014   0.002  0.00  0.00     0.034 H 
ATOM     14  H10 <0> d          -3.936   0.983   0.129  0.00  0.00     0.044 H 
ATOM     15  H11 <0> d          -3.104   2.572   0.228  0.00  0.00     0.044 H 
ENDROOT
BRANCH   1  16
ATOM     16  C1  <0> d          -2.813   1.408   2.633  0.00  0.00    -0.073 C 
ATOM     17  H3  <0> d          -2.224   1.046   3.488  0.00  0.00     0.028 H 
ATOM     18  H4  <0> d          -3.825   0.979   2.678  0.00  0.00     0.028 H 
ATOM     19  H5  <0> d          -2.878   2.505   2.671  0.00  0.00     0.028 H 
ENDBRANCH   1  16
BRANCH   5  20
ATOM     20  C8  <0> d          -0.127   0.989  -2.490  0.00  0.00    -0.066 C 
ATOM     21  H12 <0> d          -0.661   1.355  -3.379  0.00  0.00     0.028 H 
ATOM     22  H13 <0> d          -0.199  -0.108  -2.445  0.00  0.00     0.028 H 
ATOM     23  H14 <0> d           0.931   1.284  -2.550  0.00  0.00     0.028 H 
ENDBRANCH   5  20
TORSDOF 2
