REMARK  6 active torsions:
REMARK  status: ('A' for Active; 'I' for Inactive)
REMARK    1  A    between atoms: C2_2  and  C3_3 
REMARK    2  A    between atoms: C3_3  and  C4_4 
REMARK    3  A    between atoms: C4_4  and  C5_5 
REMARK    4  A    between atoms: C5_5  and  C6_7 
REMARK    5  A    between atoms: C5_5  and  O2_9 
REMARK    6  A    between atoms: C6_7  and  O1_8 
ROOT
ATOM      1  C4  <0> d           2.527   3.727  -0.128  0.00  0.00    -0.036 C 
ATOM      2  H7  <0> d           3.127   3.487   0.751  0.00  0.00     0.037 H 
ATOM      3  H8  <0> d           3.021   3.341  -1.020  0.00  0.00     0.037 H 
ENDROOT
BRANCH   1   4
ATOM      4  C3  <0> d           2.376   5.245  -0.244  0.00  0.00    -0.048 C 
ATOM      5  H5  <0> d           1.777   5.484  -1.122  0.00  0.00     0.038 H 
ATOM      6  H6  <0> d           1.883   5.630   0.649  0.00  0.00     0.038 H 
BRANCH   4   7
ATOM      7  C2  <0> d           3.738   5.877  -0.377  0.00  0.00    -0.112 C 
ATOM      8  C1  <0> d           3.998   6.663  -1.391  0.00  0.00    -0.125 C 
ATOM      9  H2  <0> d           4.974   7.116  -1.487  0.00  0.00     0.066 H 
ATOM     10  H3  <0> d           3.237   6.859  -2.132  0.00  0.00     0.066 H 
ATOM     11  H4  <0> d           4.499   5.681   0.364  0.00  0.00     0.075 H 
ENDBRANCH   4   7
ENDBRANCH   1   4
BRANCH   1  12
ATOM     12  C5  <0> d           1.145   3.085   0.008  0.00  0.00     0.056 C 
ATOM     13  H1  <0> d           0.516   3.397  -0.827  0.00  0.00     0.086 H 
BRANCH  12  14
ATOM     14  C6  <0> d           1.286   1.562  -0.002  0.00  0.00     0.040 C 
ATOM     15  H9  <0> d           1.840   1.243   0.881  0.00  0.00     0.077 H 
ATOM     16  H10 <0> d           1.823   1.252  -0.899  0.00  0.00     0.077 H 
BRANCH  14  17
ATOM     17  O1  <0> d          -0.011   0.963   0.007  0.00  0.00    -0.398 OA
ATOM     18  H11 <0> d           0.002  -0.004   0.002  0.00  0.00     0.209 HD
ENDBRANCH  14  17
ENDBRANCH  12  14
BRANCH  12  19
ATOM     19  O2  <0> d           0.546   3.500   1.237  0.00  0.00    -0.393 OA
ATOM     20  H12 <0> d           1.052   3.256   2.023  0.00  0.00     0.210 HD
ENDBRANCH  12  19
ENDBRANCH   1  12
TORSDOF 6
