REMARK  4 active torsions:
REMARK  status: ('A' for Active; 'I' for Inactive)
REMARK    1  A    between atoms: C1_1  and  C2_2 
REMARK    2  A    between atoms: C4_5  and  C7_8 
REMARK    3  A    between atoms: C4_5  and  C8_9 
REMARK    4  A    between atoms: C8_9  and  O2_10 
ROOT
ATOM      1  C2  <0> d          -1.171   1.680   0.017  0.00  0.00    -0.062 C 
ATOM      2  C3  <0> d          -0.013   1.076   0.008  0.00  0.00     0.015 C 
ATOM      3  O1  <0> d           1.168   1.733   0.000  0.00  0.00    -0.350 OA
ATOM      4  C4  <0> d           1.161   3.115   0.370  0.00  0.00     0.084 C 
ATOM      5  C5  <0> d           0.026   3.811  -0.394  0.00  0.00    -0.031 C 
ATOM      6  C6  <0> d          -1.301   3.179   0.040  0.00  0.00    -0.040 C 
ATOM      7  H4  <0> d           0.002  -0.004   0.002  0.00  0.00     0.123 H 
ATOM      8  H5  <0> d           0.022   4.875  -0.158  0.00  0.00     0.037 H 
ATOM      9  H6  <0> d           0.166   3.673  -1.466  0.00  0.00     0.037 H 
ATOM     10  H7  <0> d          -1.548   3.510   1.049  0.00  0.00     0.039 H 
ATOM     11  H8  <0> d          -2.091   3.484  -0.646  0.00  0.00     0.039 H 
ENDROOT
BRANCH   4  12
ATOM     12  C7  <0> d           0.923   3.244   1.876  0.00  0.00    -0.045 C 
ATOM     13  H9  <0> d           1.720   2.731   2.415  0.00  0.00     0.031 H 
ATOM     14  H10 <0> d           0.918   4.299   2.154  0.00  0.00     0.031 H 
ATOM     15  H11 <0> d          -0.037   2.797   2.133  0.00  0.00     0.031 H 
ENDBRANCH   4  12
BRANCH   4  16
ATOM     16  C8  <0> d           2.500   3.755   0.001  0.00  0.00     0.045 C 
ATOM     17  H12 <0> d           2.660   3.670  -1.074  0.00  0.00     0.078 H 
ATOM     18  H13 <0> d           2.490   4.808   0.284  0.00  0.00     0.078 H 
BRANCH  16  19
ATOM     19  O2  <0> d           3.555   3.085   0.694  0.00  0.00    -0.398 OA
ATOM     20  H14 <0> d           4.436   3.439   0.507  0.00  0.00     0.209 HD
ENDBRANCH  16  19
ENDBRANCH   4  16
BRANCH   1  21
ATOM     21  C1  <0> d          -2.425   0.844   0.009  0.00  0.00    -0.053 C 
ATOM     22  H1  <0> d          -2.157  -0.212  -0.005  0.00  0.00     0.033 H 
ATOM     23  H2  <0> d          -3.011   1.059   0.902  0.00  0.00     0.033 H 
ATOM     24  H3  <0> d          -3.014   1.081  -0.878  0.00  0.00     0.033 H 
ENDBRANCH   1  21
TORSDOF 4
