REMARK  3 active torsions:
REMARK  status: ('A' for Active; 'I' for Inactive)
REMARK    1  A    between atoms: C1_1  and  C2_2 
REMARK    2  A    between atoms: C3_3  and  C6_8 
REMARK    3  A    between atoms: C5_6  and  N1_7 
ROOT
ATOM      1  C2  <0> d           1.300   2.081   0.001  0.00  0.00    -0.023 A 
ATOM      2  C3  <0> d          -0.022   1.781   0.012  0.00  0.00    -0.013 A 
ATOM      3  S1  <0> d           0.002  -0.004   0.002  0.00  0.00    -0.104 SA
ATOM      4  C4  <0> d           1.772  -0.234  -0.016  0.00  0.00    -0.019 A 
ATOM      5  C5  <0> d           2.223   1.048  -0.013  0.00  0.00     0.039 A 
ATOM      6  H4  <0> d           2.338  -1.153  -0.026  0.00  0.00     0.098 H 
ENDROOT
BRANCH   1   7
ATOM      7  C1  <0> d           1.758   3.517   0.004  0.00  0.00    -0.048 C 
ATOM      8  H1  <0> d           1.878   3.858   1.032  0.00  0.00     0.033 H 
ATOM      9  H2  <0> d           2.712   3.595  -0.519  0.00  0.00     0.033 H 
ATOM     10  H3  <0> d           1.016   4.136  -0.500  0.00  0.00     0.033 H 
ENDBRANCH   1   7
BRANCH   5  11
ATOM     11  N1  <0> d           3.604   1.322  -0.025  0.00  0.00    -0.398 N 
ATOM     12  H5  <0> d           4.243   0.592  -0.036  0.00  0.00     0.156 HD
ATOM     13  H6  <0> d           3.916   2.240  -0.023  0.00  0.00     0.156 HD
ENDBRANCH   5  11
BRANCH   2  14
ATOM     14  C6  <0> d          -1.206   2.713   0.023  0.00  0.00    -0.045 C 
ATOM     15  H7  <0> d          -2.127   2.130   0.025  0.00  0.00     0.034 H 
ATOM     16  H8  <0> d          -1.169   3.337   0.916  0.00  0.00     0.034 H 
ATOM     17  H9  <0> d          -1.179   3.346  -0.864  0.00  0.00     0.034 H 
ENDBRANCH   2  14
TORSDOF 3
