REMARK  1 active torsions:
REMARK  status: ('A' for Active; 'I' for Inactive)
REMARK    1  A    between atoms: C2_2  and  C3_3 
ROOT
ATOM      1  C3  <0> d          -1.267  -0.760   0.010  0.00  0.00     0.002 A 
ATOM      2  C4  <0> d          -2.487  -0.082   0.020  0.00  0.00    -0.067 A 
ATOM      3  C5  <0> d          -3.669  -0.792   0.027  0.00  0.00    -0.045 A 
ATOM      4  C6  <0> d          -3.649  -2.178   0.025  0.00  0.00     0.119 A 
ATOM      5  C7  <0> d          -2.442  -2.859   0.016  0.00  0.00    -0.008 A 
ATOM      6  C8  <0> d          -1.252  -2.158   0.002  0.00  0.00     0.129 A 
ATOM      7  F1  <0> d          -0.075  -2.821  -0.013  0.00  0.00    -0.205 F 
ATOM      8  F2  <0> d          -4.810  -2.868   0.033  0.00  0.00    -0.206 F 
ATOM      9  H4  <0> d          -2.505   0.998   0.021  0.00  0.00     0.085 H 
ATOM     10  H5  <0> d          -4.613  -0.267   0.035  0.00  0.00     0.088 H 
ATOM     11  H6  <0> d          -2.433  -3.938   0.016  0.00  0.00     0.093 H 
ENDROOT
BRANCH   1  12
ATOM     12  C2  <0> d           0.002  -0.004   0.002  0.00  0.00    -0.079 C 
ATOM     13  C1  <0> d          -0.016   1.322   0.009  0.00  0.00    -0.120 C 
ATOM     14  H1  <0> d           0.912   1.874   0.003  0.00  0.00     0.066 H 
ATOM     15  H2  <0> d          -0.958   1.849   0.017  0.00  0.00     0.066 H 
ATOM     16  H3  <0> d           0.945  -0.531  -0.010  0.00  0.00     0.083 H 
ENDBRANCH   1  12
TORSDOF 1
