REMARK  6 active torsions:
REMARK  status: ('A' for Active; 'I' for Inactive)
REMARK    1  A    between atoms: C1_1  and  C2_2 
REMARK    2  A    between atoms: C2_2  and  C3_3 
REMARK    3  A    between atoms: C3_3  and  C4_5 
REMARK    4  A    between atoms: C3_3  and  O1_12 
REMARK    5  A    between atoms: N1_7  and  C8_11 
REMARK    6  A    between atoms: C6_9  and  C7_10 
ROOT
ATOM      1  C4  <0> d           1.337  -0.423  -0.013  0.00  0.00     0.013 A 
ATOM      2  C5  <0> d           2.119   0.681  -0.015  0.00  0.00     0.009 A 
ATOM      3  N1  <0> d           1.309   1.760  -0.001  0.00  0.00    -0.284 N 
ATOM      4  N2  <0> d          -0.016   1.304   0.009  0.00  0.00    -0.178 NA
ATOM      5  C6  <0> d           0.002  -0.004   0.002  0.00  0.00     0.061 A 
ATOM      6  H7  <0> d           3.199   0.696  -0.025  0.00  0.00     0.115 H 
ENDROOT
BRANCH   1   7
ATOM      7  C3  <0> d           1.817  -1.851  -0.025  0.00  0.00     0.064 C 
ATOM      8  H1  <0> d           1.168  -2.470  -0.662  0.00  0.00     0.090 H 
BRANCH   7   9
ATOM      9  C2  <0> d           1.875  -2.382   1.409  0.00  0.00    -0.040 C 
ATOM     10  H5  <0> d           0.893  -2.254   1.887  0.00  0.00     0.036 H 
ATOM     11  H6  <0> d           2.635  -1.823   1.976  0.00  0.00     0.036 H 
BRANCH   9  12
ATOM     12  C1  <0> d           2.243  -3.867   1.389  0.00  0.00    -0.074 C 
ATOM     13  H2  <0> d           2.284  -4.248   2.420  0.00  0.00     0.027 H 
ATOM     14  H3  <0> d           3.225  -3.995   0.911  0.00  0.00     0.027 H 
ATOM     15  H4  <0> d           1.483  -4.425   0.822  0.00  0.00     0.027 H 
ENDBRANCH   9  12
ENDBRANCH   7   9
BRANCH   7  16
ATOM     16  O1  <0> d           3.121  -1.910  -0.607  0.00  0.00    -0.391 OA
ATOM     17  H14 <0> d           3.278  -1.568  -1.641  0.00  0.00     0.210 HD
ENDBRANCH   7  16
ENDBRANCH   1   7
BRANCH   5  18
ATOM     18  C7  <0> d          -1.206  -0.904   0.009  0.00  0.00    -0.033 C 
ATOM     19  H8  <0> d          -2.120  -0.291   0.021  0.00  0.00     0.035 H 
ATOM     20  H9  <0> d          -1.182  -1.543   0.904  0.00  0.00     0.035 H 
ATOM     21  H10 <0> d          -1.200  -1.535  -0.892  0.00  0.00     0.035 H 
ENDBRANCH   5  18
BRANCH   3  22
ATOM     22  C8  <0> d           1.739   3.160   0.002  0.00  0.00     0.002 C 
ATOM     23  H11 <0> d           0.855   3.815   0.014  0.00  0.00     0.059 H 
ATOM     24  H12 <0> d           2.333   3.364  -0.900  0.00  0.00     0.059 H 
ATOM     25  H13 <0> d           2.350   3.354   0.896  0.00  0.00     0.059 H 
ENDBRANCH   3  22
TORSDOF 6
