REMARK  1 active torsions:
REMARK  status: ('A' for Active; 'I' for Inactive)
REMARK    1  A    between atoms: C4_4  and  O1_11 
ROOT
ATOM      1  C1  <0> d           0.002  -0.004   0.002  0.00  0.00    -0.065 C 
ATOM      2  C2  <0> d           1.015  -0.518  -1.020  0.00  0.00    -0.062 C 
ATOM      3  C3  <0> d           2.402  -0.021  -0.613  0.00  0.00    -0.036 C 
ATOM      4  C4  <0> d           2.461   1.503  -0.729  0.00  0.00     0.061 C 
ATOM      5  C5  <0> d           3.755   1.965  -0.019  0.00  0.00    -0.036 C 
ATOM      6  C6  <0> d           3.331   2.856   1.160  0.00  0.00    -0.062 C 
ATOM      7  C7  <0> d           1.831   2.573   1.388  0.00  0.00    -0.059 C 
ATOM      8  C8  <0> d           1.315   2.177   0.001  0.00  0.00    -0.024 C 
ATOM      9  H1  <0> d           1.166   3.128  -0.510  0.00  0.00     0.044 H 
ATOM     10  C9  <0> d          -0.018   1.512   0.010  0.00  0.00    -0.059 C 
ATOM     11  H2  <0> d           0.274  -0.366   0.993  0.00  0.00     0.033 H 
ATOM     12  H3  <0> d          -0.990  -0.377  -0.255  0.00  0.00     0.033 H 
ATOM     13  H4  <0> d           1.004  -1.608  -1.031  0.00  0.00     0.033 H 
ATOM     14  H5  <0> d           0.764  -0.138  -2.010  0.00  0.00     0.033 H 
ATOM     15  H6  <0> d           2.605  -0.314   0.416  0.00  0.00     0.037 H 
ATOM     16  H7  <0> d           3.152  -0.462  -1.270  0.00  0.00     0.037 H 
ATOM     17  H8  <0> d           4.306   1.100   0.348  0.00  0.00     0.037 H 
ATOM     18  H9  <0> d           4.376   2.533  -0.713  0.00  0.00     0.037 H 
ATOM     19  H10 <0> d           3.902   2.596   2.051  0.00  0.00     0.033 H 
ATOM     20  H11 <0> d           3.482   3.906   0.911  0.00  0.00     0.033 H 
ATOM     21  H12 <0> d           1.700   1.752   2.093  0.00  0.00     0.033 H 
ATOM     22  H13 <0> d           1.323   3.468   1.746  0.00  0.00     0.033 H 
ATOM     23  H14 <0> d          -0.574   1.850  -0.864  0.00  0.00     0.033 H 
ATOM     24  H15 <0> d          -0.558   1.840   0.899  0.00  0.00     0.033 H 
ENDROOT
BRANCH   4  25
ATOM     25  O1  <0> d           2.483   1.894  -2.103  0.00  0.00    -0.389 OA
ATOM     26  H16 <0> d           3.233   1.539  -2.600  0.00  0.00     0.210 HD
ENDBRANCH   4  25
TORSDOF 1
