REMARK  1 active torsions:
REMARK  status: ('A' for Active; 'I' for Inactive)
REMARK    1  A    between atoms: C6_6  and  O1_7 
ROOT
ATOM      1  C1  <0> d           1.208  -0.680  -0.013  0.00  0.00    -0.048 A 
ATOM      2  C2  <0> d           0.002  -0.004   0.002  0.00  0.00    -0.041 A 
ATOM      3  C3  <0> d          -0.017   1.380   0.010  0.00  0.00     0.138 A 
ATOM      4  C4  <0> d           1.173   2.090   0.002  0.00  0.00     0.075 A 
ATOM      5  C5  <0> d           2.380   1.416  -0.013  0.00  0.00    -0.027 A 
ATOM      6  C6  <0> d           2.400   0.029  -0.021  0.00  0.00     0.067 A 
ATOM      7 Cl1  <0> d           1.148   3.826   0.011  0.00  0.00    -0.081 Cl
ATOM      8  F1  <0> d          -1.196   2.039   0.019  0.00  0.00    -0.204 F 
ATOM      9  H1  <0> d           1.222  -1.759  -0.019  0.00  0.00     0.087 H 
ATOM     10  H2  <0> d          -0.926  -0.556   0.008  0.00  0.00     0.088 H 
ATOM     11  H3  <0> d           3.308   1.970  -0.019  0.00  0.00     0.090 H 
ENDROOT
BRANCH   6  12
ATOM     12  O1  <0> d           3.586  -0.634  -0.036  0.00  0.00    -0.361 OA
ATOM     13  H4  <0> d           3.920  -0.821  -0.924  0.00  0.00     0.217 HD
ENDBRANCH   6  12
TORSDOF 1
