REMARK  1 active torsions:
REMARK  status: ('A' for Active; 'I' for Inactive)
REMARK    1  A    between atoms: C1_1  and  C2_2 
ROOT
ATOM      1  C2  <0> d          -0.994  -0.986   0.006  0.00  0.00    -0.048 A 
ATOM      2  C3  <0> d          -0.649  -2.304  -0.004  0.00  0.00    -0.056 A 
ATOM      3  C4  <0> d           0.700  -2.685  -0.019  0.00  0.00     0.047 A 
ATOM      4  C5  <0> d           1.704  -1.718  -0.023  0.00  0.00    -0.036 A 
ATOM      5  C6  <0> d           1.362  -0.374  -0.013  0.00  0.00     0.044 A 
ATOM      6  C7  <0> d           0.002  -0.004   0.002  0.00  0.00    -0.002 A 
ATOM      7  C8  <0> d          -0.018   1.459   0.010  0.00  0.00    -0.056 A 
ATOM      8  C9  <0> d           1.262   1.870   0.000  0.00  0.00    -0.022 A 
ATOM      9  N1  <0> d           2.099   0.790  -0.014  0.00  0.00    -0.365 N 
ATOM     10  H1  <0> d           3.068   0.836  -0.023  0.00  0.00     0.165 HD
ATOM     11  C10 <0> d           1.049  -4.074  -0.030  0.00  0.00     0.099 C 
ATOM     12  N2  <0> d           1.326  -5.175  -0.038  0.00  0.00    -0.191 NA
ATOM     13  H5  <0> d          -1.421  -3.061   0.000  0.00  0.00     0.086 H 
ATOM     14  H6  <0> d           2.742  -2.014  -0.035  0.00  0.00     0.089 H 
ATOM     15  H7  <0> d          -0.895   2.089   0.018  0.00  0.00     0.087 H 
ATOM     16  H8  <0> d           1.581   2.902   0.002  0.00  0.00     0.111 H 
ENDROOT
BRANCH   1  17
ATOM     17  C1  <0> d          -2.447  -0.587   0.022  0.00  0.00    -0.050 C 
ATOM     18  H2  <0> d          -2.807  -0.485  -1.002  0.00  0.00     0.033 H 
ATOM     19  H3  <0> d          -3.028  -1.351   0.537  0.00  0.00     0.033 H 
ATOM     20  H4  <0> d          -2.556   0.365   0.541  0.00  0.00     0.033 H 
ENDBRANCH   1  17
TORSDOF 1
