REMARK  3 active torsions:
REMARK  status: ('A' for Active; 'I' for Inactive)
REMARK    1  A    between atoms: C2_2  and  C3_3 
REMARK    2  A    between atoms: C3_3  and  N1_4 
REMARK       I    between atoms: N1_4  and  C4_5 
REMARK    3  A    between atoms: C4_5  and  C5_7 
ROOT
ATOM      1  C1  <0> d           0.018  -1.178  -0.004  0.00  0.00    -0.152 C 
ATOM      2  C2  <0> d           0.002  -0.004   0.002  0.00  0.00    -0.098 C 
ATOM      3  H1  <0> d           0.032  -2.228  -0.010  0.00  0.00     0.166 H 
ENDROOT
BRANCH   2   4
ATOM      4  C3  <0> d          -0.018   1.468   0.010  0.00  0.00     0.050 C 
ATOM      5  H2  <0> d          -0.545   1.829  -0.873  0.00  0.00     0.083 H 
ATOM      6  H3  <0> d          -0.528   1.819   0.907  0.00  0.00     0.083 H 
BRANCH   4   7
ATOM      7  N1  <0> d           1.357   1.975  -0.000  0.00  0.00    -0.350 N 
ATOM      8  C4  <0> d           1.585   3.303   0.005  0.00  0.00     0.223 C 
ATOM      9  O1  <0> d           0.652   4.079   0.018  0.00  0.00    -0.273 OA
ATOM     10  H4  <0> d           2.102   1.355  -0.011  0.00  0.00     0.163 HD
BRANCH   8  11
ATOM     11  C5  <0> d           2.999   3.825  -0.006  0.00  0.00     0.036 C 
ATOM     12  C8  <0> d           3.090   5.360   0.001  0.00  0.00     0.002 C 
ATOM     13  C7  <0> d           4.239   5.201   0.977  0.00  0.00     0.128 C 
ATOM     14  H8  <0> d           3.386   5.786  -0.958  0.00  0.00     0.045 H 
ATOM     15  H9  <0> d           2.216   5.849   0.431  0.00  0.00     0.045 H 
ATOM     16  C6  <0> d           3.652   3.865   1.386  0.00  0.00     0.002 C 
ATOM     17  O2  <0> d           5.204   5.856   1.292  0.00  0.00    -0.298 OA
ATOM     18  H6  <0> d           2.936   3.934   2.204  0.00  0.00     0.045 H 
ATOM     19  H7  <0> d           4.401   3.087   1.541  0.00  0.00     0.045 H 
ATOM     20  H5  <0> d           3.619   3.353  -0.769  0.00  0.00     0.055 H 
ENDBRANCH   8  11
ENDBRANCH   4   7
ENDBRANCH   2   4
TORSDOF 3
