REMARK  6 active torsions:
REMARK  status: ('A' for Active; 'I' for Inactive)
REMARK    1  A    between atoms: C1_1  and  C2_2 
REMARK    2  A    between atoms: C2_2  and  O1_3 
REMARK    3  A    between atoms: O1_3  and  C3_4 
REMARK    4  A    between atoms: C3_4  and  C4_5 
REMARK    5  A    between atoms: C4_5  and  C5_6 
REMARK    6  A    between atoms: C4_5  and  C6_7 
ROOT
ATOM      1  C3  <0> d           1.423   1.615  -0.003  0.00  0.00     0.022 C 
ATOM      2  H6  <0> d           1.408   2.702  -0.086  0.00  0.00     0.074 H 
ATOM      3  H7  <0> d           1.923   1.329   0.922  0.00  0.00     0.074 H 
ENDROOT
BRANCH   1   4
ATOM      4  O1  <0> d           2.126   1.061  -1.116  0.00  0.00    -0.391 OA
BRANCH   4   5
ATOM      5  C2  <0> d           3.484   1.494  -1.219  0.00  0.00     0.016 C 
ATOM      6  H4  <0> d           3.513   2.578  -1.328  0.00  0.00     0.073 H 
ATOM      7  H5  <0> d           4.027   1.205  -0.319  0.00  0.00     0.073 H 
BRANCH   5   8
ATOM      8  C1  <0> d           4.136   0.842  -2.440  0.00  0.00    -0.056 C 
ATOM      9  H1  <0> d           3.594   1.131  -3.340  0.00  0.00     0.030 H 
ATOM     10  H2  <0> d           5.172   1.172  -2.519  0.00  0.00     0.030 H 
ATOM     11  H3  <0> d           4.108  -0.242  -2.331  0.00  0.00     0.030 H 
ENDBRANCH   5   8
ENDBRANCH   4   5
ENDBRANCH   1   4
BRANCH   1  12
ATOM     12  C4  <0> d          -0.013   1.086   0.008  0.00  0.00    -0.041 C 
ATOM     13  H8  <0> d           0.002  -0.004   0.002  0.00  0.00     0.042 H 
BRANCH  12  14
ATOM     14  C5  <0> d          -0.753   1.593  -1.232  0.00  0.00    -0.071 C 
ATOM     15  H9  <0> d          -0.242   1.241  -2.128  0.00  0.00     0.028 H 
ATOM     16  H10 <0> d          -1.775   1.215  -1.224  0.00  0.00     0.028 H 
ATOM     17  H11 <0> d          -0.767   2.683  -1.226  0.00  0.00     0.028 H 
ENDBRANCH  12  14
BRANCH  12  18
ATOM     18  C6  <0> d          -0.729   1.579   1.267  0.00  0.00    -0.071 C 
ATOM     19  H12 <0> d          -0.744   2.669   1.273  0.00  0.00     0.028 H 
ATOM     20  H13 <0> d          -1.751   1.202   1.275  0.00  0.00     0.028 H 
ATOM     21  H14 <0> d          -0.202   1.218   2.150  0.00  0.00     0.028 H 
ENDBRANCH  12  18
ENDBRANCH   1  12
TORSDOF 6
