REMARK  1 active torsions:
REMARK  status: ('A' for Active; 'I' for Inactive)
REMARK    1  A    between atoms: C5_6  and  C6_7 
ROOT
ATOM      1  C1  <0> d           2.472   3.730  -0.002  0.00  0.00    -0.062 A 
ATOM      2  C2  <0> d           2.475   5.112   0.006  0.00  0.00    -0.044 A 
ATOM      3  C3  <0> d           1.259   5.796   0.021  0.00  0.00     0.136 A 
ATOM      4  N1  <0> d           0.106   5.135   0.029  0.00  0.00    -0.249 NA
ATOM      5  C4  <0> d           0.061   3.822   0.016  0.00  0.00     0.020 A 
ATOM      6  C5  <0> d           1.238   3.067   0.007  0.00  0.00     0.058 A 
ATOM      7  C7  <0> d           1.253   7.228   0.029  0.00  0.00     0.119 C 
ATOM      8  N2  <0> d           1.248   8.364   0.036  0.00  0.00    -0.190 NA
ATOM      9  H1  <0> d           3.398   3.174  -0.014  0.00  0.00     0.085 H 
ATOM     10  H2  <0> d           3.408   5.657  -0.000  0.00  0.00     0.088 H 
ATOM     11  H3  <0> d          -0.895   3.320   0.018  0.00  0.00     0.116 H 
ENDROOT
BRANCH   6  12
ATOM     12  C6  <0> d           1.181   1.591  -0.001  0.00  0.00     0.210 C 
ATOM     13  O1  <0> d           2.208   0.943  -0.014  0.00  0.00    -0.644 OA
ATOM     14  O2  <0> d          -0.011   0.963   0.007  0.00  0.00    -0.644 OA
ENDBRANCH   6  12
TORSDOF 1
