REMARK  1 active torsions:
REMARK  status: ('A' for Active; 'I' for Inactive)
REMARK    1  A    between atoms: C4_4  and  C5_6 
ROOT
ATOM      1  C1  <0> d          -0.019   1.534   0.011  0.00  0.00    -0.042 C 
ATOM      2  C2  <0> d           1.518   1.476  -0.004  0.00  0.00    -0.002 C 
ATOM      3  C3  <0> d           1.394   0.090   0.649  0.00  0.00     0.257 C 
ATOM      4  C4  <0> d           0.002  -0.004   0.002  0.00  0.00     0.093 C 
ATOM      5  H1  <0> d           0.014  -0.435  -0.999  0.00  0.00     0.066 H 
ATOM      6  F1  <0> d           2.307  -0.847   0.152  0.00  0.00    -0.205 F 
ATOM      7  F2  <0> d           1.361   0.130   2.047  0.00  0.00    -0.205 F 
ATOM      8  H2  <0> d          -0.431   1.960   0.925  0.00  0.00     0.034 H 
ATOM      9  H3  <0> d          -0.448   1.969  -0.892  0.00  0.00     0.034 H 
ATOM     10  H4  <0> d           1.944   1.450  -1.007  0.00  0.00     0.042 H 
ATOM     11  H5  <0> d           1.989   2.221   0.637  0.00  0.00     0.042 H 
ENDROOT
BRANCH   4  12
ATOM     12  C5  <0> d          -1.039  -0.627   0.897  0.00  0.00     0.183 C 
ATOM     13  O1  <0> d          -1.645  -1.619   0.528  0.00  0.00    -0.648 OA
ATOM     14  O2  <0> d          -1.274  -0.139   1.989  0.00  0.00    -0.648 OA
ENDBRANCH   4  12
TORSDOF 1
