REMARK  3 active torsions:
REMARK  status: ('A' for Active; 'I' for Inactive)
REMARK    1  A    between atoms: C2_2  and  C3_3 
REMARK    2  A    between atoms: C3_3  and  O1_4 
REMARK    3  A    between atoms: O1_4  and  C4_5 
REMARK       I    between atoms: C4_5  and  N1_7 
ROOT
ATOM      1  C4  <0> d          -2.308  -2.622  -1.067  0.00  0.00     0.363 C 
ATOM      2  O2  <0> d          -3.286  -2.419  -0.376  0.00  0.00    -0.238 OA
ATOM      3  N1  <0> d          -2.308  -3.637  -1.954  0.00  0.00    -0.314 N 
ATOM      4  C5  <0> d          -1.359  -4.195  -2.930  0.00  0.00     0.057 C 
ATOM      5  C6  <0> d          -2.553  -4.698  -3.712  0.00  0.00     0.162 C 
ATOM      6  O3  <0> d          -2.816  -4.979  -4.856  0.00  0.00    -0.294 OA
ATOM      7  C7  <0> d          -3.255  -4.684  -2.369  0.00  0.00     0.057 C 
ATOM      8  H6  <0> d          -0.782  -3.435  -3.458  0.00  0.00     0.076 H 
ATOM      9  H7  <0> d          -0.737  -4.993  -2.525  0.00  0.00     0.076 H 
ATOM     10  H8  <0> d          -3.147  -5.614  -1.812  0.00  0.00     0.076 H 
ATOM     11  H9  <0> d          -4.288  -4.340  -2.420  0.00  0.00     0.076 H 
ENDROOT
BRANCH   1  12
ATOM     12  O1  <0> d          -1.224  -1.832  -0.949  0.00  0.00    -0.300 OA
BRANCH  12  13
ATOM     13  C3  <0> d          -1.293  -0.775   0.010  0.00  0.00     0.045 C 
ATOM     14  H4  <0> d          -1.459  -1.195   1.002  0.00  0.00     0.081 H 
ATOM     15  H5  <0> d          -2.115  -0.107  -0.244  0.00  0.00     0.081 H 
BRANCH  13  16
ATOM     16  C2  <0> d           0.002  -0.004   0.002  0.00  0.00    -0.089 C 
ATOM     17  C1  <0> d          -0.016   1.306   0.009  0.00  0.00    -0.123 C 
ATOM     18  H1  <0> d           0.912   1.859   0.003  0.00  0.00     0.066 H 
ATOM     19  H2  <0> d          -0.958   1.833   0.017  0.00  0.00     0.066 H 
ATOM     20  H3  <0> d           0.945  -0.531  -0.010  0.00  0.00     0.078 H 
ENDBRANCH  13  16
ENDBRANCH  12  13
ENDBRANCH   1  12
TORSDOF 3
