REMARK  2 active torsions:
REMARK  status: ('A' for Active; 'I' for Inactive)
REMARK    1  A    between atoms: C3_3  and  C6_7 
REMARK    2  A    between atoms: C6_7  and  C7_9 
ROOT
ATOM      1  C7  <0> d          -2.169   1.554  -1.263  0.00  0.00     0.030 C 
ATOM      2  C8  <0> d          -2.815   1.965  -2.520  0.00  0.00     0.060 C 
ATOM      3  N1  <0> d          -3.314   2.281  -3.490  0.00  0.00    -0.197 NA
ATOM      4  H9  <0> d          -2.165   0.467  -1.194  0.00  0.00     0.057 H 
ATOM      5  H10 <0> d          -2.719   1.970  -0.418  0.00  0.00     0.057 H 
ENDROOT
BRANCH   1   6
ATOM      6  C6  <0> d          -0.729   2.072  -1.237  0.00  0.00     0.048 C 
ATOM      7  H2  <0> d          -0.203   1.729  -2.128  0.00  0.00     0.065 H 
ATOM      8  C9  <0> d          -0.738   3.544  -1.208  0.00  0.00     0.065 C 
ATOM      9  N2  <0> d          -0.744   4.680  -1.186  0.00  0.00    -0.197 NA
BRANCH   6  10
ATOM     10  C3  <0> d          -0.019   1.542   0.011  0.00  0.00    -0.021 C 
ATOM     11  C2  <0> d           0.002  -0.004   0.002  0.00  0.00    -0.054 C 
ATOM     12  C1  <0> d           1.390  -0.294   0.619  0.00  0.00    -0.049 C 
ATOM     13  H5  <0> d          -0.795  -0.410   0.625  0.00  0.00     0.034 H 
ATOM     14  H6  <0> d          -0.063  -0.391  -1.015  0.00  0.00     0.034 H 
ATOM     15  C5  <0> d           2.205   0.944   0.331  0.00  0.00    -0.106 C 
ATOM     16  H3  <0> d           1.302  -0.450   1.694  0.00  0.00     0.038 H 
ATOM     17  H4  <0> d           1.841  -1.167   0.146  0.00  0.00     0.038 H 
ATOM     18  C4  <0> d           1.437   1.946  -0.001  0.00  0.00    -0.101 C 
ATOM     19  H8  <0> d           3.283   0.995   0.391  0.00  0.00     0.076 H 
ATOM     20  H7  <0> d           1.795   2.934  -0.252  0.00  0.00     0.077 H 
ATOM     21  H1  <0> d          -0.508   1.910   0.912  0.00  0.00     0.048 H 
ENDBRANCH   6  10
ENDBRANCH   1   6
TORSDOF 2
