REMARK  3 active torsions:
REMARK  status: ('A' for Active; 'I' for Inactive)
REMARK    1  A    between atoms: N1_3  and  C3_6 
REMARK    2  A    between atoms: C3_6  and  C4_7 
REMARK    3  A    between atoms: C4_7  and  O1_8 
ROOT
ATOM      1  C3  <0> d          -0.729   1.579   1.267  0.00  0.00     0.037 C 
ATOM      2  H3  <0> d          -0.744   2.669   1.273  0.00  0.00     0.070 H 
ATOM      3  H4  <0> d          -1.751   1.202   1.275  0.00  0.00     0.070 H 
ENDROOT
BRANCH   1   4
ATOM      4  N1  <0> d          -0.020   1.094   2.454  0.00  0.00    -0.259 N 
ATOM      5  C2  <0> d           0.452   1.861   3.464  0.00  0.00     0.019 A 
ATOM      6  C1  <0> d           1.031   1.010   4.343  0.00  0.00     0.042 A 
ATOM      7  H2  <0> d           0.381   2.935   3.551  0.00  0.00     0.116 H 
ATOM      8  N3  <0> d           0.887  -0.219   3.835  0.00  0.00    -0.143 NA
ATOM      9  H1  <0> d           1.515   1.272   5.272  0.00  0.00     0.119 H 
ATOM     10  N2  <0> d           0.255  -0.135   2.717  0.00  0.00    -0.067 NA
ENDBRANCH   1   4
BRANCH   1  11
ATOM     11  C4  <0> d          -0.013   1.086   0.008  0.00  0.00     0.033 C 
ATOM     12  H5  <0> d           0.002  -0.004   0.002  0.00  0.00     0.076 H 
ATOM     13  H6  <0> d           1.010   1.463   0.000  0.00  0.00     0.076 H 
BRANCH  11  14
ATOM     14  O1  <0> d          -0.704   1.559  -1.150  0.00  0.00    -0.399 OA
ATOM     15  H7  <0> d          -0.304   1.284  -1.986  0.00  0.00     0.209 HD
ENDBRANCH  11  14
ENDBRANCH   1  11
TORSDOF 3
