REMARK  4 active torsions:
REMARK  status: ('A' for Active; 'I' for Inactive)
REMARK    1  A    between atoms: C1_1  and  C2_2 
REMARK    2  A    between atoms: C2_2  and  O2_4 
REMARK    3  A    between atoms: O2_4  and  C3_5 
REMARK    4  A    between atoms: C3_5  and  C4_6 
ROOT
ATOM      1  O2  <0> d          -0.031   1.407   2.445  0.00  0.00    -0.313 OA
ENDROOT
BRANCH   1   2
ATOM      2  C2  <0> d          -0.534   1.754   3.640  0.00  0.00     0.255 C 
ATOM      3  O1  <0> d          -1.529   2.438   3.701  0.00  0.00    -0.266 OA
BRANCH   2   4
ATOM      4  C1  <0> d           0.141   1.292   4.905  0.00  0.00     0.004 C 
ATOM      5  H1  <0> d           1.015   0.692   4.652  0.00  0.00     0.041 H 
ATOM      6  H2  <0> d           0.452   2.159   5.488  0.00  0.00     0.041 H 
ATOM      7  H3  <0> d          -0.556   0.692   5.490  0.00  0.00     0.041 H 
ENDBRANCH   2   4
ENDBRANCH   1   2
BRANCH   1   8
ATOM      8  C3  <0> d          -0.733   1.888   1.268  0.00  0.00     0.119 C 
ATOM      9  H4  <0> d          -0.748   2.978   1.274  0.00  0.00     0.088 H 
ATOM     10  H5  <0> d          -1.756   1.511   1.276  0.00  0.00     0.088 H 
BRANCH   8  11
ATOM     11  C4  <0> d          -0.017   1.395   0.010  0.00  0.00     0.409 C 
ATOM     12  F1  <0> d           0.002  -0.004   0.002  0.00  0.00    -0.169 F 
ATOM     13  F2  <0> d           1.296   1.879  -0.000  0.00  0.00    -0.169 F 
ATOM     14  F3  <0> d          -0.694   1.858  -1.124  0.00  0.00    -0.169 F 
ENDBRANCH   8  11
ENDBRANCH   1   8
TORSDOF 4
