REMARK  6 active torsions:
REMARK  status: ('A' for Active; 'I' for Inactive)
REMARK    1  A    between atoms: C1_1  and  C2_2 
REMARK    2  A    between atoms: C2_2  and  O1_3 
REMARK    3  A    between atoms: O1_3  and  C3_4 
REMARK    4  A    between atoms: C3_4  and  C4_5 
REMARK    5  A    between atoms: C4_5  and  C5_6 
REMARK    6  A    between atoms: C5_6  and  C6_7 
ROOT
ATOM      1  O1  <0> d          -1.193   1.736   0.017  0.00  0.00    -0.370 OA
ENDROOT
BRANCH   1   2
ATOM      2  C2  <0> d          -2.381   0.942   0.018  0.00  0.00     0.018 C 
ATOM      3  H4  <0> d          -2.402   0.318  -0.875  0.00  0.00     0.073 H 
ATOM      4  H5  <0> d          -2.393   0.308   0.905  0.00  0.00     0.073 H 
BRANCH   2   5
ATOM      5  C1  <0> d          -3.607   1.857   0.029  0.00  0.00    -0.056 C 
ATOM      6  H1  <0> d          -3.595   2.491  -0.857  0.00  0.00     0.030 H 
ATOM      7  H2  <0> d          -4.513   1.251   0.030  0.00  0.00     0.030 H 
ATOM      8  H3  <0> d          -3.586   2.482   0.923  0.00  0.00     0.030 H 
ENDBRANCH   2   5
ENDBRANCH   1   2
BRANCH   1   9
ATOM      9  C3  <0> d          -0.013   1.076   0.008  0.00  0.00     0.131 C 
ATOM     10  H6  <0> d           0.002  -0.004   0.002  0.00  0.00     0.109 H 
BRANCH   9  11
ATOM     11  C4  <0> d           1.110   1.745   0.001  0.00  0.00    -0.071 C 
BRANCH  11  12
ATOM     12  C5  <0> d           2.233   2.413  -0.006  0.00  0.00    -0.103 C 
BRANCH  12  13
ATOM     13  C6  <0> d           3.356   3.082  -0.013  0.00  0.00     0.000 C 
ATOM     14  H7  <0> d           3.341   4.162  -0.007  0.00  0.00     0.053 H 
ATOM     15  H8  <0> d           4.299   2.555  -0.025  0.00  0.00     0.053 H 
ENDBRANCH  12  13
ENDBRANCH  11  12
ENDBRANCH   9  11
ENDBRANCH   1   9
TORSDOF 6
