REMARK  6 active torsions:
REMARK  status: ('A' for Active; 'I' for Inactive)
REMARK    1  A    between atoms: C1_1  and  C2_2 
REMARK    2  A    between atoms: C2_2  and  C3_3 
REMARK    3  A    between atoms: C2_2  and  O1_4 
REMARK    4  A    between atoms: C2_2  and  O2_6 
REMARK    5  A    between atoms: O1_4  and  C4_5 
REMARK    6  A    between atoms: O2_6  and  C5_7 
ROOT
ATOM      1  C2  <0> d          -0.068   1.127   2.404  0.00  0.00     0.155 C 
ENDROOT
BRANCH   1   2
ATOM      2  C1  <0> d          -0.864   1.675   3.590  0.00  0.00    -0.026 C 
ATOM      3  H1  <0> d          -1.885   1.296   3.548  0.00  0.00     0.035 H 
ATOM      4  H2  <0> d          -0.396   1.354   4.521  0.00  0.00     0.035 H 
ATOM      5  H3  <0> d          -0.877   2.764   3.546  0.00  0.00     0.035 H 
ENDBRANCH   1   2
BRANCH   1   6
ATOM      6  C3  <0> d          -0.049  -0.402   2.465  0.00  0.00    -0.026 C 
ATOM      7  H4  <0> d           0.518  -0.793   1.620  0.00  0.00     0.035 H 
ATOM      8  H5  <0> d           0.419  -0.723   3.396  0.00  0.00     0.035 H 
ATOM      9  H6  <0> d          -1.070  -0.780   2.423  0.00  0.00     0.035 H 
ENDBRANCH   1   6
BRANCH   1  10
ATOM     10  O1  <0> d          -0.682   1.547   1.184  0.00  0.00    -0.361 OA
BRANCH  10  11
ATOM     11  C4  <0> d          -0.013   1.086   0.008  0.00  0.00     0.007 C 
ATOM     12  H7  <0> d           0.002  -0.004   0.002  0.00  0.00     0.066 H 
ATOM     13  H8  <0> d           1.010   1.463   0.000  0.00  0.00     0.066 H 
ATOM     14  H9  <0> d          -0.540   1.447  -0.875  0.00  0.00     0.066 H 
ENDBRANCH  10  11
ENDBRANCH   1  10
BRANCH   1  15
ATOM     15  O2  <0> d           1.271   1.622   2.459  0.00  0.00    -0.361 OA
BRANCH  15  16
ATOM     16  C5  <0> d           1.366   3.047   2.408  0.00  0.00     0.007 C 
ATOM     17  H10 <0> d           0.928   3.408   1.477  0.00  0.00     0.066 H 
ATOM     18  H11 <0> d           0.829   3.478   3.253  0.00  0.00     0.066 H 
ATOM     19  H12 <0> d           2.414   3.344   2.455  0.00  0.00     0.066 H 
ENDBRANCH  15  16
ENDBRANCH   1  15
TORSDOF 6
