REMARK  2 active torsions:
REMARK  status: ('A' for Active; 'I' for Inactive)
REMARK    1  A    between atoms: C3_3  and  C5_7 
REMARK    2  A    between atoms: C5_7  and  C6_8 
ROOT
ATOM      1  C1  <0> d          -0.532  -4.324  -0.660  0.00  0.00    -0.066 A 
ATOM      2  C2  <0> d          -0.765  -3.005  -1.096  0.00  0.00    -0.059 A 
ATOM      3  C3  <0> d          -0.997  -2.253  -0.001  0.00  0.00     0.019 A 
ATOM      4  N1  <0> d          -0.924  -3.062   1.095  0.00  0.00    -0.369 N 
ATOM      5  H1  <0> d          -1.054  -2.781   2.014  0.00  0.00     0.165 HD
ATOM      6  C4  <0> d          -0.639  -4.330   0.684  0.00  0.00    -0.023 A 
ATOM      7  H2  <0> d          -0.312  -5.175  -1.287  0.00  0.00     0.085 H 
ATOM      8  H3  <0> d          -0.757  -2.659  -2.119  0.00  0.00     0.086 H 
ATOM      9  H4  <0> d          -0.520  -5.191   1.325  0.00  0.00     0.111 H 
ENDROOT
BRANCH   3  10
ATOM     10  C5  <0> d          -1.293  -0.775   0.010  0.00  0.00     0.053 C 
ATOM     11  H5  <0> d          -1.859  -0.524   0.907  0.00  0.00     0.058 H 
ATOM     12  H6  <0> d          -1.876  -0.515  -0.873  0.00  0.00     0.058 H 
BRANCH  10  13
ATOM     13  C6  <0> d           0.002  -0.004   0.002  0.00  0.00     0.178 C 
ATOM     14  O1  <0> d           1.056  -0.594  -0.011  0.00  0.00    -0.648 OA
ATOM     15  O2  <0> d          -0.016   1.338   0.009  0.00  0.00    -0.648 OA
ENDBRANCH  10  13
ENDBRANCH   3  10
TORSDOF 2
