REMARK  4 active torsions:
REMARK  status: ('A' for Active; 'I' for Inactive)
REMARK    1  A    between atoms: C1_1  and  C2_2 
REMARK    2  A    between atoms: C2_2  and  C7_8 
REMARK    3  A    between atoms: C4_4  and  C5_5 
REMARK    4  A    between atoms: C4_4  and  C6_6 
ROOT
ATOM      1  C2  <0> d          -1.150   1.781  -0.743  0.00  0.00     0.063 A 
ATOM      2  C3  <0> d          -0.013   1.086   0.008  0.00  0.00    -0.030 A 
ATOM      3  C4  <0> d          -1.136   1.773   0.788  0.00  0.00     0.063 A 
ATOM      4  H4  <0> d           0.002  -0.004   0.002  0.00  0.00     0.036 H 
ATOM      5  H5  <0> d           0.964   1.569   0.001  0.00  0.00     0.036 H 
ENDROOT
BRANCH   1   6
ATOM      6  C1  <0> d          -0.829   3.102  -1.446  0.00  0.00    -0.058 C 
ATOM      7  H1  <0> d          -0.876   2.959  -2.525  0.00  0.00     0.029 H 
ATOM      8  H2  <0> d          -1.555   3.858  -1.147  0.00  0.00     0.029 H 
ATOM      9  H3  <0> d           0.172   3.428  -1.165  0.00  0.00     0.029 H 
ENDBRANCH   1   6
BRANCH   1  10
ATOM     10  C7  <0> d          -2.164   0.907  -1.434  0.00  0.00     0.182 C 
ATOM     11  O2  <0> d          -2.926   0.233  -0.781  0.00  0.00    -0.647 OA
ATOM     12  O4  <0> d          -2.221   0.875  -2.775  0.00  0.00    -0.647 OA
ENDBRANCH   1  10
BRANCH   3  13
ATOM     13  C5  <0> d          -2.152   0.877   1.500  0.00  0.00    -0.058 C 
ATOM     14  H6  <0> d          -2.026   0.972   2.578  0.00  0.00     0.029 H 
ATOM     15  H7  <0> d          -3.161   1.182   1.223  0.00  0.00     0.029 H 
ATOM     16  H8  <0> d          -1.992  -0.160   1.205  0.00  0.00     0.029 H 
ENDBRANCH   3  13
BRANCH   3  17
ATOM     17  C6  <0> d          -0.806   3.066   1.487  0.00  0.00     0.182 C 
ATOM     18  O1  <0> d          -0.567   4.059   0.841  0.00  0.00    -0.647 OA
ATOM     19  O3  <0> d          -0.779   3.116   2.829  0.00  0.00    -0.647 OA
ENDBRANCH   3  17
TORSDOF 4
