REMARK  3 active torsions:
REMARK  status: ('A' for Active; 'I' for Inactive)
REMARK    1  A    between atoms: C1_1  and  N1_2 
REMARK    2  A    between atoms: C2_3  and  N3_9 
REMARK    3  A    between atoms: C3_4  and  C5_7 
ROOT
ATOM      1  N1  <0> d          -1.385   2.977   0.030  0.00  0.00    -0.258 N 
ATOM      2  C2  <0> d          -1.215   1.639   0.017  0.00  0.00     0.135 A 
ATOM      3  C3  <0> d          -2.485   1.065   0.020  0.00  0.00     0.104 A 
ATOM      4  C4  <0> d          -3.419   2.129   0.030  0.00  0.00     0.042 A 
ATOM      5  N2  <0> d          -2.756   3.251   0.033  0.00  0.00    -0.182 NA
ATOM      6  H4  <0> d          -4.494   2.028   0.034  0.00  0.00     0.119 H 
ENDROOT
BRANCH   1   7
ATOM      7  C1  <0> d          -0.313   3.975   0.038  0.00  0.00     0.004 C 
ATOM      8  H1  <0> d          -0.049   4.233  -0.987  0.00  0.00     0.059 H 
ATOM      9  H2  <0> d          -0.652   4.869   0.561  0.00  0.00     0.059 H 
ATOM     10  H3  <0> d           0.561   3.567   0.547  0.00  0.00     0.059 H 
ENDBRANCH   1   7
BRANCH   2  11
ATOM     11  N3  <0> d          -0.011   0.966   0.007  0.00  0.00    -0.383 N 
ATOM     12  H5  <0> d           0.002  -0.004   0.002  0.00  0.00     0.157 HD
ATOM     13  H6  <0> d           0.822   1.462   0.002  0.00  0.00     0.157 HD
ENDBRANCH   2  11
BRANCH   3  14
ATOM     14  C5  <0> d          -2.795  -0.368   0.015  0.00  0.00     0.214 C 
ATOM     15  O1  <0> d          -1.894  -1.185   0.007  0.00  0.00    -0.644 OA
ATOM     16  O2  <0> d          -4.079  -0.780   0.019  0.00  0.00    -0.644 OA
ENDBRANCH   3  14
TORSDOF 3
