REMARK  1 active torsions:
REMARK  status: ('A' for Active; 'I' for Inactive)
REMARK    1  A    between atoms: C1_1  and  C2_2 
ROOT
ATOM      1  C2  <0> d           1.150  -0.686  -0.013  0.00  0.00     0.037 A 
ATOM      2  C3  <0> d           2.337  -0.018  -0.020  0.00  0.00     0.006 A 
ATOM      3  C4  <0> d           2.318   1.392  -0.013  0.00  0.00     0.248 A 
ATOM      4  O1  <0> d           3.358   2.029  -0.019  0.00  0.00    -0.268 OA
ATOM      5  N1  <0> d           1.124   2.022   0.002  0.00  0.00    -0.318 N 
ATOM      6  H1  <0> d           1.082   3.121   0.009  0.00  0.00     0.169 HD
ATOM      7  C5  <0> d          -0.016   1.302   0.009  0.00  0.00     0.067 A 
ATOM      8  N2  <0> d           0.002  -0.004   0.002  0.00  0.00    -0.249 NA
ATOM      9  H5  <0> d           3.273  -0.557  -0.032  0.00  0.00     0.095 H 
ATOM     10  H6  <0> d          -0.965   1.817   0.016  0.00  0.00     0.143 H 
ENDROOT
BRANCH   1  11
ATOM     11  C1  <0> d           1.132  -2.193  -0.021  0.00  0.00    -0.035 C 
ATOM     12  H2  <0> d           2.164  -2.572  -0.033  0.00  0.00     0.035 H 
ATOM     13  H3  <0> d           0.601  -2.548  -0.916  0.00  0.00     0.035 H 
ATOM     14  H4  <0> d           0.617  -2.559   0.880  0.00  0.00     0.035 H 
ENDBRANCH   1  11
TORSDOF 1
