REMARK  7 active torsions:
REMARK  status: ('A' for Active; 'I' for Inactive)
REMARK    1  A    between atoms: C1_1  and  C2_2 
REMARK    2  A    between atoms: C2_2  and  C3_3 
REMARK    3  A    between atoms: C3_3  and  C4_4 
REMARK    4  A    between atoms: C4_4  and  C5_6 
REMARK    5  A    between atoms: C4_4  and  O1_9 
REMARK    6  A    between atoms: C5_6  and  C6_7 
REMARK    7  A    between atoms: C5_6  and  C7_8 
ROOT
ATOM      1  C4  <0> d          -0.729   1.579   1.267  0.00  0.00     0.038 C 
ATOM      2  H1  <0> d          -1.751   1.202   1.275  0.00  0.00     0.083 H 
ENDROOT
BRANCH   1   3
ATOM      3  C3  <0> d           0.011   1.072   2.506  0.00  0.00    -0.041 C 
ATOM      4  H7  <0> d           0.104  -0.013   2.456  0.00  0.00     0.036 H 
ATOM      5  H8  <0> d           1.004   1.520   2.545  0.00  0.00     0.036 H 
BRANCH   3   6
ATOM      6  C2  <0> d          -0.772   1.460   3.762  0.00  0.00    -0.066 C 
ATOM      7  H5  <0> d          -0.865   2.545   3.812  0.00  0.00     0.032 H 
ATOM      8  H6  <0> d          -1.766   1.012   3.723  0.00  0.00     0.032 H 
BRANCH   6   9
ATOM      9  C1  <0> d          -0.033   0.953   5.002  0.00  0.00    -0.076 C 
ATOM     10  H2  <0> d          -0.591   1.229   5.896  0.00  0.00     0.027 H 
ATOM     11  H3  <0> d           0.060  -0.132   4.951  0.00  0.00     0.027 H 
ATOM     12  H4  <0> d           0.960   1.401   5.040  0.00  0.00     0.027 H 
ENDBRANCH   6   9
ENDBRANCH   3   6
ENDBRANCH   1   3
BRANCH   1  13
ATOM     13  C5  <0> d          -0.013   1.086   0.008  0.00  0.00    -0.036 C 
ATOM     14  H9  <0> d           0.002  -0.004   0.002  0.00  0.00     0.042 H 
BRANCH  13  15
ATOM     15  C6  <0> d           1.423   1.615  -0.003  0.00  0.00    -0.071 C 
ATOM     16  H10 <0> d           1.950   1.254   0.880  0.00  0.00     0.028 H 
ATOM     17  H11 <0> d           1.933   1.264  -0.900  0.00  0.00     0.028 H 
ATOM     18  H12 <0> d           1.408   2.705   0.003  0.00  0.00     0.028 H 
ENDBRANCH  13  15
BRANCH  13  19
ATOM     19  C7  <0> d          -0.753   1.593  -1.232  0.00  0.00    -0.071 C 
ATOM     20  H13 <0> d          -0.242   1.241  -2.128  0.00  0.00     0.028 H 
ATOM     21  H14 <0> d          -1.775   1.215  -1.224  0.00  0.00     0.028 H 
ATOM     22  H15 <0> d          -0.767   2.683  -1.226  0.00  0.00     0.028 H 
ENDBRANCH  13  19
ENDBRANCH   1  13
BRANCH   1  23
ATOM     23  O1  <0> d          -0.748   3.008   1.275  0.00  0.00    -0.395 OA
ATOM     24  H16 <0> d           0.130   3.413   1.268  0.00  0.00     0.210 HD
ENDBRANCH   1  23
TORSDOF 7
