REMARK  1 active torsions:
REMARK  status: ('A' for Active; 'I' for Inactive)
REMARK    1  A    between atoms: C2_2  and  O1_10 
ROOT
ATOM      1  C1  <0> d           2.404   0.030  -0.021  0.00  0.00    -0.008 A 
ATOM      2  C2  <0> d           1.214  -0.681  -0.013  0.00  0.00     0.107 A 
ATOM      3  C3  <0> d           0.002  -0.004   0.002  0.00  0.00     0.152 A 
ATOM      4  C4  <0> d          -0.017   1.379   0.010  0.00  0.00    -0.003 A 
ATOM      5  C5  <0> d           1.172   2.088   0.002  0.00  0.00     0.158 A 
ATOM      6  C6  <0> d           2.383   1.413  -0.013  0.00  0.00     0.157 A 
ATOM      7  F1  <0> d           3.542   2.106  -0.021  0.00  0.00    -0.203 F 
ATOM      8  F2  <0> d           1.152   3.439   0.009  0.00  0.00    -0.203 F 
ATOM      9  F3  <0> d          -1.159  -0.696   0.009  0.00  0.00    -0.203 F 
ATOM     10  H1  <0> d           3.348  -0.496  -0.033  0.00  0.00     0.092 H 
ATOM     11  H2  <0> d          -0.959   1.906   0.017  0.00  0.00     0.093 H 
ENDROOT
BRANCH   2  12
ATOM     12  O1  <0> d           1.234  -2.041  -0.020  0.00  0.00    -0.357 OA
ATOM     13  H3  <0> d           1.231  -2.430  -0.906  0.00  0.00     0.217 HD
ENDBRANCH   2  12
TORSDOF 1
