REMARK  3 active torsions:
REMARK  status: ('A' for Active; 'I' for Inactive)
REMARK    1  A    between atoms: C1_1  and  N1_2 
REMARK    2  A    between atoms: N1_2  and  C2_3 
REMARK    3  A    between atoms: N1_2  and  C3_4 
ROOT
ATOM      1  C3  <0> d          -1.225   1.755   0.017  0.00  0.00     0.031 A 
ATOM      2  C4  <0> d          -0.013   1.076   0.008  0.00  0.00    -0.057 A 
ATOM      3  C5  <0> d           1.173   1.783   0.000  0.00  0.00    -0.079 A 
ATOM      4  C6  <0> d           1.156   3.166   0.008  0.00  0.00    -0.062 A 
ATOM      5  C7  <0> d          -0.049   3.845   0.023  0.00  0.00     0.036 A 
ATOM      6  C8  <0> d          -1.240   3.143   0.031  0.00  0.00    -0.036 A 
ATOM      7 Cl1  <0> d          -0.066   5.581   0.032  0.00  0.00    -0.084 Cl
ATOM      8  H7  <0> d           0.002  -0.004   0.002  0.00  0.00     0.086 H 
ATOM      9  H8  <0> d           2.116   1.255  -0.012  0.00  0.00     0.083 H 
ATOM     10  H9  <0> d           2.085   3.716   0.002  0.00  0.00     0.086 H 
ATOM     11  H10 <0> d          -2.180   3.674   0.043  0.00  0.00     0.089 H 
ENDROOT
BRANCH   1  12
ATOM     12  N1  <0> d          -2.426   1.042   0.019  0.00  0.00    -0.390 N 
BRANCH  12  13
ATOM     13  C1  <0> d          -2.409  -0.423   0.010  0.00  0.00    -0.019 C 
ATOM     14  H1  <0> d          -1.886  -0.785   0.896  0.00  0.00     0.056 H 
ATOM     15  H2  <0> d          -3.432  -0.799   0.013  0.00  0.00     0.056 H 
ATOM     16  H3  <0> d          -1.894  -0.775  -0.884  0.00  0.00     0.056 H 
ENDBRANCH  12  13
BRANCH  12  17
ATOM     17  C2  <0> d          -3.703   1.759   0.029  0.00  0.00    -0.019 C 
ATOM     18  H4  <0> d          -4.025   1.943  -0.997  0.00  0.00     0.056 H 
ATOM     19  H5  <0> d          -4.454   1.158   0.542  0.00  0.00     0.056 H 
ATOM     20  H6  <0> d          -3.582   2.710   0.547  0.00  0.00     0.056 H 
ENDBRANCH  12  17
ENDBRANCH   1  12
TORSDOF 3
