REMARK  5 active torsions:
REMARK  status: ('A' for Active; 'I' for Inactive)
REMARK    1  A    between atoms: C1_1  and  C2_2 
REMARK    2  A    between atoms: C2_2  and  C3_3 
REMARK    3  A    between atoms: C2_2  and  C4_4 
REMARK    4  A    between atoms: C2_2  and  C5_5 
REMARK    5  A    between atoms: C8_8  and  O1_11 
ROOT
ATOM      1  C5  <0> d           0.718  -0.497  -1.257  0.00  0.00    -0.048 C 
ATOM      2  C6  <0> d           0.739  -2.027  -1.265  0.00  0.00    -0.059 C 
ATOM      3  C7  <0> d           1.455  -2.521  -2.524  0.00  0.00    -0.041 C 
ATOM      4  C8  <0> d           2.890  -1.991  -2.535  0.00  0.00     0.035 C 
ATOM      5  C9  <0> d           2.870  -0.461  -2.526  0.00  0.00    -0.041 C 
ATOM      6  C10 <0> d           2.154   0.032  -1.268  0.00  0.00    -0.059 C 
ATOM      7  H10 <0> d           0.191  -0.136  -2.140  0.00  0.00     0.041 H 
ATOM      8  H11 <0> d           1.266  -2.388  -0.382  0.00  0.00     0.033 H 
ATOM      9  H12 <0> d          -0.284  -2.405  -1.258  0.00  0.00     0.033 H 
ATOM     10  H13 <0> d           1.470  -3.611  -2.530  0.00  0.00     0.036 H 
ATOM     11  H14 <0> d           0.928  -2.160  -3.407  0.00  0.00     0.036 H 
ATOM     12  H15 <0> d           3.401  -2.343  -3.432  0.00  0.00     0.082 H 
ATOM     13  H16 <0> d           3.892  -0.084  -2.534  0.00  0.00     0.036 H 
ATOM     14  H17 <0> d           2.343  -0.100  -3.409  0.00  0.00     0.036 H 
ATOM     15  H18 <0> d           2.139   1.122  -1.262  0.00  0.00     0.033 H 
ATOM     16  H19 <0> d           2.681  -0.329  -0.385  0.00  0.00     0.033 H 
ENDROOT
BRANCH   1  17
ATOM     17  C2  <0> d           0.002  -0.004   0.002  0.00  0.00    -0.048 C 
BRANCH  17  18
ATOM     18  C1  <0> d          -0.019   1.526   0.010  0.00  0.00    -0.069 C 
ATOM     19  H1  <0> d           1.004   1.903   0.003  0.00  0.00     0.028 H 
ATOM     20  H2  <0> d          -0.546   1.887  -0.873  0.00  0.00     0.028 H 
ATOM     21  H3  <0> d          -0.529   1.877   0.907  0.00  0.00     0.028 H 
ENDBRANCH  17  18
BRANCH  17  22
ATOM     22  C3  <0> d           0.742  -0.511   1.242  0.00  0.00    -0.069 C 
ATOM     23  H4  <0> d           0.232  -0.159   2.138  0.00  0.00     0.028 H 
ATOM     24  H5  <0> d           0.757  -1.601   1.236  0.00  0.00     0.028 H 
ATOM     25  H6  <0> d           1.765  -0.134   1.234  0.00  0.00     0.028 H 
ENDBRANCH  17  22
BRANCH  17  26
ATOM     26  C4  <0> d          -1.433  -0.534   0.013  0.00  0.00    -0.069 C 
ATOM     27  H7  <0> d          -1.960  -0.173  -0.870  0.00  0.00     0.028 H 
ATOM     28  H8  <0> d          -1.419  -1.623   0.007  0.00  0.00     0.028 H 
ATOM     29  H9  <0> d          -1.944  -0.182   0.910  0.00  0.00     0.028 H 
ENDBRANCH  17  26
ENDBRANCH   1  17
BRANCH   4  30
ATOM     30  O1  <0> d           3.582  -2.465  -1.377  0.00  0.00    -0.396 OA
ATOM     31  H20 <0> d           4.500  -2.167  -1.318  0.00  0.00     0.210 HD
ENDBRANCH   4  30
TORSDOF 5
