REMARK  4 active torsions:
REMARK  status: ('A' for Active; 'I' for Inactive)
REMARK    1  A    between atoms: C1_1  and  C2_2 
REMARK    2  A    between atoms: C2_2  and  C3_3 
REMARK    3  A    between atoms: C4_4  and  C5_5 
REMARK    4  A    between atoms: C5_5  and  C6_6 
ROOT
ATOM      1  C3  <0> d           0.002  -0.004   0.002  0.00  0.00    -0.106 C 
ATOM      2  C4  <0> d          -0.016   1.306   0.009  0.00  0.00    -0.097 C 
ATOM      3  H6  <0> d          -0.926  -0.557   0.008  0.00  0.00     0.076 H 
ATOM      4  H7  <0> d           0.912   1.859   0.003  0.00  0.00     0.077 H 
ENDROOT
BRANCH   1   5
ATOM      5  C2  <0> d           1.317  -0.740  -0.015  0.00  0.00    -0.053 C 
ATOM      6  H4  <0> d           1.413  -1.291  -0.950  0.00  0.00     0.038 H 
ATOM      7  H5  <0> d           2.135  -0.024   0.071  0.00  0.00     0.038 H 
BRANCH   5   8
ATOM      8  C1  <0> d           1.370  -1.717   1.161  0.00  0.00    -0.073 C 
ATOM      9  H1  <0> d           2.321  -2.249   1.149  0.00  0.00     0.027 H 
ATOM     10  H2  <0> d           1.274  -1.166   2.097  0.00  0.00     0.027 H 
ATOM     11  H3  <0> d           0.552  -2.433   1.076  0.00  0.00     0.027 H 
ENDBRANCH   5   8
ENDBRANCH   1   5
BRANCH   2  12
ATOM     12  C5  <0> d          -1.331   2.042   0.019  0.00  0.00     0.030 C 
ATOM     13  H8  <0> d          -1.440   2.603  -0.908  0.00  0.00     0.055 H 
ATOM     14  H9  <0> d          -2.147   1.325   0.109  0.00  0.00     0.055 H 
BRANCH  12  15
ATOM     15  C6  <0> d          -1.366   2.992   1.189  0.00  0.00     0.176 C 
ATOM     16  O1  <0> d          -0.420   3.064   1.937  0.00  0.00    -0.648 OA
ATOM     17  O2  <0> d          -2.448   3.757   1.399  0.00  0.00    -0.648 OA
ENDBRANCH  12  15
ENDBRANCH   2  12
TORSDOF 4
