REMARK  4 active torsions:
REMARK  status: ('A' for Active; 'I' for Inactive)
REMARK    1  A    between atoms: C1_1  and  O1_2 
REMARK    2  A    between atoms: O1_2  and  C2_3 
REMARK       I    between atoms: C2_3  and  N1_5 
REMARK    3  A    between atoms: N1_5  and  C3_6 
REMARK    4  A    between atoms: C3_6  and  C4_7 
ROOT
ATOM      1  C2  <0> d          -0.016   1.344   0.009  0.00  0.00     0.360 C 
ATOM      2  O2  <0> d           1.028   1.965   0.003  0.00  0.00    -0.239 OA
ATOM      3  N1  <0> d           0.002  -0.004   0.002  0.00  0.00    -0.327 N 
ATOM      4  H4  <0> d          -0.831  -0.500   0.007  0.00  0.00     0.165 HD
ENDROOT
BRANCH   3   5
ATOM      5  C3  <0> d           1.281  -0.719  -0.014  0.00  0.00     0.077 C 
ATOM      6  H5  <0> d           1.840  -0.443  -0.908  0.00  0.00     0.080 H 
ATOM      7  H6  <0> d           1.857  -0.453   0.872  0.00  0.00     0.080 H 
BRANCH   5   8
ATOM      8  C4  <0> d           1.025  -2.204  -0.020  0.00  0.00     0.191 C 
ATOM      9  O3  <0> d          -0.108  -2.623  -0.011  0.00  0.00    -0.647 OA
ATOM     10  O4  <0> d           2.057  -3.063  -0.034  0.00  0.00    -0.647 OA
ENDBRANCH   5   8
ENDBRANCH   3   5
BRANCH   1  11
ATOM     11  O1  <0> d          -1.191   2.001   0.019  0.00  0.00    -0.309 OA
BRANCH  11  12
ATOM     12  C1  <0> d          -1.135   3.452   0.026  0.00  0.00     0.015 C 
ATOM     13  H1  <0> d          -0.603   3.790   0.915  0.00  0.00     0.067 H 
ATOM     14  H2  <0> d          -0.612   3.800  -0.864  0.00  0.00     0.067 H 
ATOM     15  H3  <0> d          -2.148   3.855   0.033  0.00  0.00     0.067 H 
ENDBRANCH  11  12
ENDBRANCH   1  11
TORSDOF 4
