REMARK  1 active torsions:
REMARK  status: ('A' for Active; 'I' for Inactive)
REMARK    1  A    between atoms: C1_1  and  C2_2 
ROOT
ATOM      1  C2  <0> d           0.002  -0.004   0.002  0.00  0.00     0.071 A 
ATOM      2  N1  <0> d           0.009  -0.810  -1.024  0.00  0.00    -0.250 NA
ATOM      3  C3  <0> d           0.029  -2.141  -0.887  0.00  0.00     0.048 A 
ATOM      4  C4  <0> d           0.037  -2.578   0.395  0.00  0.00     0.009 A 
ATOM      5  S1  <0> d           0.029  -1.058   1.315  0.00  0.00    -0.078 SA
ATOM      6  C5  <0> d           0.052  -4.074   0.481  0.00  0.00    -0.033 C 
ATOM      7  C6  <0> d          -0.375  -4.551  -0.925  0.00  0.00    -0.056 C 
ATOM      8  C7  <0> d           0.049  -3.359  -1.808  0.00  0.00    -0.023 C 
ATOM      9  H4  <0> d           1.055  -4.431   0.715  0.00  0.00     0.041 H 
ATOM     10  H5  <0> d          -0.659  -4.418   1.232  0.00  0.00     0.041 H 
ATOM     11  H6  <0> d           0.161  -5.456  -1.209  0.00  0.00     0.034 H 
ATOM     12  H7  <0> d          -1.453  -4.707  -0.973  0.00  0.00     0.034 H 
ATOM     13  H8  <0> d          -0.659  -3.225  -2.626  0.00  0.00     0.042 H 
ATOM     14  H9  <0> d           1.053  -3.519  -2.200  0.00  0.00     0.042 H 
ENDROOT
BRANCH   1  15
ATOM     15  C1  <0> d          -0.018   1.503   0.010  0.00  0.00    -0.029 C 
ATOM     16  H1  <0> d           1.004   1.880   0.003  0.00  0.00     0.036 H 
ATOM     17  H2  <0> d          -0.545   1.864  -0.873  0.00  0.00     0.036 H 
ATOM     18  H3  <0> d          -0.529   1.854   0.907  0.00  0.00     0.036 H 
ENDBRANCH   1  15
TORSDOF 1
