REMARK  7 active torsions:
REMARK  status: ('A' for Active; 'I' for Inactive)
REMARK    1  A    between atoms: C1_1  and  C2_2 
REMARK    2  A    between atoms: C2_2  and  O1_3 
REMARK    3  A    between atoms: O1_3  and  C3_4 
REMARK    4  A    between atoms: C3_4  and  C4_6 
REMARK    5  A    between atoms: C4_6  and  N1_7 
REMARK    6  A    between atoms: N1_7  and  C5_8 
REMARK    7  A    between atoms: C5_8  and  C6_9 
ROOT
ATOM      1  C6  <0> d          -0.018   1.468   0.010  0.00  0.00     0.039 C 
ATOM      2  C7  <0> d           0.002  -0.004   0.002  0.00  0.00     0.060 C 
ATOM      3  N2  <0> d           0.018  -1.140  -0.004  0.00  0.00    -0.197 NA
ATOM      4  H11 <0> d          -0.550   1.832  -0.881  0.00  0.00     0.057 H 
ATOM      5  H12 <0> d           1.014   1.849   0.002  0.00  0.00     0.057 H 
ENDROOT
BRANCH   1   6
ATOM      6  C5  <0> d          -0.734   1.961   1.269  0.00  0.00     0.123 C 
ATOM      7  H9  <0> d          -0.202   1.597   2.160  0.00  0.00     0.081 H 
ATOM      8  H10 <0> d          -1.766   1.580   1.277  0.00  0.00     0.081 H 
BRANCH   6   9
ATOM      9  N1  <0> d          -0.754   3.430   1.277  0.00  0.00     0.093 N 
ATOM     10  H8  <0> d          -1.281   3.781   0.377  0.00  0.00     0.316 HD
BRANCH   9  11
ATOM     11  C4  <0> d          -1.435   3.941   2.474  0.00  0.00     0.190 C 
ATOM     12  H6  <0> d          -0.908   3.590   3.374  0.00  0.00     0.095 H 
ATOM     13  H7  <0> d          -2.472   3.574   2.490  0.00  0.00     0.095 H 
BRANCH  11  14
ATOM     14  C3  <0> d          -1.436   5.447   2.447  0.00  0.00     0.287 C 
ATOM     15  O2  <0> d          -0.922   6.036   1.526  0.00  0.00    -0.263 OA
BRANCH  14  16
ATOM     16  O1  <0> d          -2.008   6.136   3.447  0.00  0.00    -0.321 OA
BRANCH  16  17
ATOM     17  C2  <0> d          -1.971   7.585   3.356  0.00  0.00     0.025 C 
ATOM     18  H4  <0> d          -2.489   7.907   2.440  0.00  0.00     0.074 H 
ATOM     19  H5  <0> d          -0.925   7.924   3.324  0.00  0.00     0.074 H 
BRANCH  17  20
ATOM     20  C1  <0> d          -2.667   8.191   4.576  0.00  0.00    -0.056 C 
ATOM     21  H1  <0> d          -2.639   9.289   4.506  0.00  0.00     0.030 H 
ATOM     22  H2  <0> d          -2.149   7.869   5.491  0.00  0.00     0.030 H 
ATOM     23  H3  <0> d          -3.713   7.852   4.608  0.00  0.00     0.030 H 
ENDBRANCH  17  20
ENDBRANCH  16  17
ENDBRANCH  14  16
ENDBRANCH  11  14
ENDBRANCH   9  11
ENDBRANCH   6   9
ENDBRANCH   1   6
TORSDOF 7
