REMARK  6 active torsions:
REMARK  status: ('A' for Active; 'I' for Inactive)
REMARK    1  A    between atoms: C1_1  and  C2_2 
REMARK    2  A    between atoms: C2_2  and  C3_3 
REMARK    3  A    between atoms: C4_4  and  C5_5 
REMARK    4  A    between atoms: C5_5  and  C6_7 
REMARK    5  A    between atoms: C7_8  and  C8_9 
REMARK    6  A    between atoms: C8_9  and  C9_10 
ROOT
ATOM      1  C5  <0> d           1.974  -1.355   3.306  0.00  0.00     0.279 C 
ATOM      2  O1  <0> d           2.104  -2.551   3.491  0.00  0.00    -0.268 OA
ENDROOT
BRANCH   1   3
ATOM      3  C4  <0> d           1.282  -0.881   2.146  0.00  0.00    -0.015 C 
ATOM      4  C3  <0> d           0.714  -0.492   1.195  0.00  0.00    -0.098 C 
BRANCH   4   5
ATOM      5  C2  <0> d           0.002  -0.004   0.002  0.00  0.00    -0.012 C 
ATOM      6  H4  <0> d          -1.020  -0.381   0.010  0.00  0.00     0.051 H 
ATOM      7  H5  <0> d           0.512  -0.356  -0.895  0.00  0.00     0.051 H 
BRANCH   5   8
ATOM      8  C1  <0> d          -0.019   1.526   0.010  0.00  0.00    -0.067 C 
ATOM      9  H1  <0> d           1.004   1.903   0.003  0.00  0.00     0.028 H 
ATOM     10  H2  <0> d          -0.546   1.887  -0.873  0.00  0.00     0.028 H 
ATOM     11  H3  <0> d          -0.529   1.877   0.907  0.00  0.00     0.028 H 
ENDBRANCH   5   8
ENDBRANCH   4   5
ENDBRANCH   1   3
BRANCH   1  12
ATOM     12  C6  <0> d           2.515  -0.422   4.248  0.00  0.00    -0.015 C 
ATOM     13  C7  <0> d           2.958   0.343   5.021  0.00  0.00    -0.098 C 
BRANCH  13  14
ATOM     14  C8  <0> d           3.514   1.301   5.990  0.00  0.00    -0.012 C 
ATOM     15  H6  <0> d           4.242   1.941   5.491  0.00  0.00     0.051 H 
ATOM     16  H7  <0> d           2.709   1.915   6.396  0.00  0.00     0.051 H 
BRANCH  14  17
ATOM     17  C9  <0> d           4.197   0.539   7.127  0.00  0.00    -0.067 C 
ATOM     18  H8  <0> d           3.469  -0.100   7.625  0.00  0.00     0.028 H 
ATOM     19  H9  <0> d           5.002  -0.074   6.721  0.00  0.00     0.028 H 
ATOM     20  H10 <0> d           4.609   1.249   7.844  0.00  0.00     0.028 H 
ENDBRANCH  14  17
ENDBRANCH  13  14
ENDBRANCH   1  12
TORSDOF 6
