REMARK  3 active torsions:
REMARK  status: ('A' for Active; 'I' for Inactive)
REMARK    1  A    between atoms: C1_1  and  N1_2 
REMARK    2  A    between atoms: N1_2  and  C2_3 
REMARK    3  A    between atoms: C7_8  and  C8_9 
REMARK       I    between atoms: C8_9  and  N2_11 
ROOT
ATOM      1  C2  <0> d          -3.678   1.546   0.134  0.00  0.00     0.043 A 
ATOM      2  C3  <0> d          -4.866   0.824   0.124  0.00  0.00    -0.057 A 
ATOM      3  C4  <0> d          -4.838  -0.551   0.012  0.00  0.00    -0.081 A 
ATOM      4  C5  <0> d          -3.630  -1.222  -0.092  0.00  0.00    -0.082 A 
ATOM      5  C6  <0> d          -2.443  -0.524  -0.090  0.00  0.00    -0.066 A 
ATOM      6  C7  <0> d          -2.454   0.869   0.028  0.00  0.00     0.058 A 
ATOM      7  H5  <0> d          -5.811   1.339   0.205  0.00  0.00     0.086 H 
ATOM      8  H6  <0> d          -5.763  -1.108   0.005  0.00  0.00     0.083 H 
ATOM      9  H7  <0> d          -3.619  -2.299  -0.179  0.00  0.00     0.083 H 
ATOM     10  H8  <0> d          -1.504  -1.052  -0.177  0.00  0.00     0.085 H 
ENDROOT
BRANCH   1  11
ATOM     11  N1  <0> d          -3.704   2.929   0.246  0.00  0.00    -0.393 N 
ATOM     12  H4  <0> d          -2.880   3.437   0.173  0.00  0.00     0.159 HD
BRANCH  11  13
ATOM     13  C1  <0> d          -4.974   3.623   0.475  0.00  0.00    -0.021 C 
ATOM     14  H1  <0> d          -5.414   3.275   1.410  0.00  0.00     0.056 H 
ATOM     15  H2  <0> d          -4.796   4.696   0.535  0.00  0.00     0.056 H 
ATOM     16  H3  <0> d          -5.656   3.413  -0.348  0.00  0.00     0.056 H 
ENDBRANCH  11  13
ENDBRANCH   1  11
BRANCH   6  17
ATOM     17  C8  <0> d          -1.186   1.622   0.037  0.00  0.00     0.251 C 
ATOM     18  O1  <0> d          -1.202   2.838   0.032  0.00  0.00    -0.268 OA
ATOM     19  N2  <0> d          -0.011   0.963   0.050  0.00  0.00    -0.366 N 
ATOM     20  H9  <0> d           0.002  -0.006   0.054  0.00  0.00     0.159 HD
ATOM     21  H10 <0> d           0.823   1.459   0.052  0.00  0.00     0.159 HD
ENDBRANCH   6  17
TORSDOF 3
