REMARK  1 active torsions:
REMARK  status: ('A' for Active; 'I' for Inactive)
REMARK    1  A    between atoms: C1_1  and  C2_2 
ROOT
ATOM      1  C2  <0> d          -1.227   2.418   0.021  0.00  0.00    -0.037 A 
ATOM      2  C3  <0> d          -1.197   3.804   0.033  0.00  0.00    -0.059 A 
ATOM      3  C4  <0> d           0.024   4.452   0.025  0.00  0.00     0.002 A 
ATOM      4  N1  <0> d           1.151   3.767   0.011  0.00  0.00    -0.271 NA
ATOM      5  C5  <0> d           1.162   2.449   0.004  0.00  0.00     0.023 A 
ATOM      6  C6  <0> d          -0.021   1.732   0.012  0.00  0.00     0.057 A 
ATOM      7 Cl1  <0> d           0.002  -0.004   0.002  0.00  0.00    -0.082 Cl
ATOM      8  H4  <0> d          -2.116   4.371   0.043  0.00  0.00     0.086 H 
ATOM      9  H5  <0> d           0.055   5.531   0.031  0.00  0.00     0.114 H 
ATOM     10  H6  <0> d           2.105   1.923  -0.007  0.00  0.00     0.117 H 
ENDROOT
BRANCH   1  11
ATOM     11  C1  <0> d          -2.538   1.675   0.024  0.00  0.00    -0.050 C 
ATOM     12  H1  <0> d          -2.849   1.490   1.052  0.00  0.00     0.033 H 
ATOM     13  H2  <0> d          -3.296   2.272  -0.484  0.00  0.00     0.033 H 
ATOM     14  H3  <0> d          -2.418   0.724  -0.496  0.00  0.00     0.033 H 
ENDBRANCH   1  11
TORSDOF 1
