REMARK  3 active torsions:
REMARK  status: ('A' for Active; 'I' for Inactive)
REMARK    1  A    between atoms: C1_1  and  C2_2 
REMARK    2  A    between atoms: C5_5  and  O1_10 
REMARK    3  A    between atoms: O1_10  and  C8_11 
ROOT
ATOM      1  C2  <0> d          -1.001   5.634   1.675  0.00  0.00    -0.020 A 
ATOM      2  C3  <0> d          -0.366   5.118   0.560  0.00  0.00    -0.071 A 
ATOM      3  C4  <0> d          -0.253   3.751   0.397  0.00  0.00    -0.047 A 
ATOM      4  C5  <0> d          -0.787   2.892   1.346  0.00  0.00     0.110 A 
ATOM      5  C6  <0> d          -1.425   3.409   2.466  0.00  0.00     0.188 A 
ATOM      6  C7  <0> d          -1.531   4.781   2.628  0.00  0.00     0.163 A 
ATOM      7  F1  <0> d          -2.150   5.287   3.717  0.00  0.00    -0.202 F 
ATOM      8  F2  <0> d          -1.942   2.576   3.395  0.00  0.00    -0.200 F 
ATOM      9  H4  <0> d           0.047   5.785  -0.182  0.00  0.00     0.084 H 
ATOM     10  H5  <0> d           0.247   3.350  -0.473  0.00  0.00     0.087 H 
ENDROOT
BRANCH   4  11
ATOM     11  O1  <0> d          -0.682   1.547   1.184  0.00  0.00    -0.353 OA
BRANCH  11  12
ATOM     12  C8  <0> d          -0.013   1.086   0.008  0.00  0.00     0.011 C 
ATOM     13  H6  <0> d           0.002  -0.004   0.002  0.00  0.00     0.066 H 
ATOM     14  H7  <0> d           1.010   1.463   0.000  0.00  0.00     0.066 H 
ATOM     15  H8  <0> d          -0.540   1.447  -0.875  0.00  0.00     0.066 H 
ENDBRANCH  11  12
ENDBRANCH   4  11
BRANCH   1  16
ATOM     16  C1  <0> d          -1.116   7.126   1.852  0.00  0.00    -0.048 C 
ATOM     17  H1  <0> d          -0.249   7.494   2.401  0.00  0.00     0.033 H 
ATOM     18  H2  <0> d          -1.158   7.606   0.875  0.00  0.00     0.033 H 
ATOM     19  H3  <0> d          -2.023   7.356   2.410  0.00  0.00     0.033 H 
ENDBRANCH   1  16
TORSDOF 3
