REMARK  3 active torsions:
REMARK  status: ('A' for Active; 'I' for Inactive)
REMARK    1  A    between atoms: C1_1  and  C2_2 
REMARK    2  A    between atoms: C4_5  and  C10_13 
REMARK    3  A    between atoms: C6_7  and  C9_12 
ROOT
ATOM      1  C2  <0> d          -0.762   3.114   1.250  0.00  0.00    -0.049 C 
ATOM      2  H1  <0> d           0.257   3.501   1.287  0.00  0.00     0.040 H 
ATOM      3  C3  <0> d          -1.440   3.579  -0.043  0.00  0.00    -0.033 C 
ATOM      4  C4  <0> d          -1.859   2.352  -0.857  0.00  0.00     0.058 C 
ATOM      5  C5  <0> d          -2.853   1.520  -0.041  0.00  0.00    -0.033 C 
ATOM      6  C6  <0> d          -2.172   1.056   1.253  0.00  0.00    -0.049 C 
ATOM      7  H2  <0> d          -2.713   1.448   2.115  0.00  0.00     0.040 H 
ATOM      8  C7  <0> d          -0.732   1.581   1.268  0.00  0.00    -0.027 C 
ATOM      9  C8  <0> d          -0.013   1.086   0.008  0.00  0.00     0.025 C 
ATOM     10  O1  <0> d          -0.706   1.560  -1.149  0.00  0.00    -0.380 OA
ATOM     11  H6  <0> d          -0.743   4.182  -0.624  0.00  0.00     0.037 H 
ATOM     12  H7  <0> d          -2.321   4.173   0.201  0.00  0.00     0.037 H 
ATOM     13  H8  <0> d          -3.724   2.129   0.203  0.00  0.00     0.037 H 
ATOM     14  H9  <0> d          -3.165   0.652  -0.621  0.00  0.00     0.037 H 
ATOM     15  H10 <0> d          -0.209   1.229   2.157  0.00  0.00     0.044 H 
ATOM     16  H11 <0> d           0.002  -0.004   0.002  0.00  0.00     0.075 H 
ATOM     17  H12 <0> d           1.010   1.464   0.000  0.00  0.00     0.075 H 
ENDROOT
BRANCH   1  18
ATOM     18  C1  <0> d          -1.550   3.626   2.456  0.00  0.00    -0.072 C 
ATOM     19  H3  <0> d          -2.567   3.234   2.419  0.00  0.00     0.028 H 
ATOM     20  H4  <0> d          -1.066   3.294   3.374  0.00  0.00     0.028 H 
ATOM     21  H5  <0> d          -1.580   4.715   2.435  0.00  0.00     0.028 H 
ENDBRANCH   1  18
BRANCH   6  22
ATOM     22  C9  <0> d          -2.162  -0.473   1.306  0.00  0.00    -0.072 C 
ATOM     23  H13 <0> d          -1.666  -0.801   2.220  0.00  0.00     0.028 H 
ATOM     24  H14 <0> d          -3.187  -0.844   1.296  0.00  0.00     0.028 H 
ATOM     25  H15 <0> d          -1.625  -0.863   0.441  0.00  0.00     0.028 H 
ENDBRANCH   6  22
BRANCH   4  26
ATOM     26  C10 <0> d          -2.513   2.804  -2.164  0.00  0.00    -0.048 C 
ATOM     27  H16 <0> d          -2.811   1.929  -2.743  0.00  0.00     0.031 H 
ATOM     28  H17 <0> d          -3.393   3.407  -1.941  0.00  0.00     0.031 H 
ATOM     29  H18 <0> d          -1.803   3.396  -2.740  0.00  0.00     0.031 H 
ENDBRANCH   4  26
TORSDOF 3
