REMARK  5 active torsions:
REMARK  status: ('A' for Active; 'I' for Inactive)
REMARK    1  A    between atoms: C1_1  and  C2_2 
REMARK    2  A    between atoms: C2_2  and  C3_3 
REMARK    3  A    between atoms: C2_2  and  C4_4 
REMARK    4  A    between atoms: C2_2  and  C5_5 
REMARK    5  A    between atoms: C10_11  and  O1_13 
ROOT
ATOM      1  C5  <0> d           2.523  -0.007   1.072  0.00  0.00    -0.023 C 
ATOM      2  H1  <0> d           3.126  -0.525   0.326  0.00  0.00     0.045 H 
ATOM      3  C6  <0> d           2.763   1.500   0.965  0.00  0.00    -0.059 C 
ATOM      4  C7  <0> d           2.369   1.982  -0.432  0.00  0.00    -0.065 C 
ATOM      5  C8  <0> d           0.888   1.683  -0.676  0.00  0.00    -0.063 C 
ATOM      6  C9  <0> d           0.648   0.175  -0.569  0.00  0.00    -0.041 C 
ATOM      7  C10 <0> d           1.042  -0.306   0.829  0.00  0.00     0.040 C 
ATOM      8  H2  <0> d           0.440   0.212   1.575  0.00  0.00     0.083 H 
ATOM      9  H12 <0> d           2.161   2.018   1.711  0.00  0.00     0.033 H 
ATOM     10  H13 <0> d           3.818   1.713   1.139  0.00  0.00     0.033 H 
ATOM     11  H14 <0> d           2.972   1.464  -1.178  0.00  0.00     0.033 H 
ATOM     12  H15 <0> d           2.540   3.055  -0.509  0.00  0.00     0.033 H 
ATOM     13  H16 <0> d           0.608   2.026  -1.672  0.00  0.00     0.033 H 
ATOM     14  H17 <0> d           0.286   2.201   0.070  0.00  0.00     0.033 H 
ATOM     15  H18 <0> d          -0.407  -0.037  -0.742  0.00  0.00     0.036 H 
ATOM     16  H19 <0> d           1.251  -0.342  -1.315  0.00  0.00     0.036 H 
ENDROOT
BRANCH   1  17
ATOM     17  C2  <0> d           2.917  -0.488   2.470  0.00  0.00    -0.045 C 
BRANCH  17  18
ATOM     18  C1  <0> d           2.831  -2.015   2.527  0.00  0.00    -0.069 C 
ATOM     19  H3  <0> d           3.365  -2.441   1.678  0.00  0.00     0.028 H 
ATOM     20  H4  <0> d           3.280  -2.370   3.455  0.00  0.00     0.028 H 
ATOM     21  H5  <0> d           1.785  -2.321   2.490  0.00  0.00     0.028 H 
ENDBRANCH  17  18
BRANCH  17  22
ATOM     22  C3  <0> d           4.350  -0.047   2.776  0.00  0.00    -0.069 C 
ATOM     23  H6  <0> d           4.412   1.041   2.736  0.00  0.00     0.028 H 
ATOM     24  H7  <0> d           4.631  -0.390   3.772  0.00  0.00     0.028 H 
ATOM     25  H8  <0> d           5.028  -0.477   2.039  0.00  0.00     0.028 H 
ENDBRANCH  17  22
BRANCH  17  26
ATOM     26  C4  <0> d           1.966   0.116   3.505  0.00  0.00    -0.069 C 
ATOM     27  H9  <0> d           0.945  -0.199   3.287  0.00  0.00     0.028 H 
ATOM     28  H10 <0> d           2.247  -0.227   4.501  0.00  0.00     0.028 H 
ATOM     29  H11 <0> d           2.027   1.203   3.464  0.00  0.00     0.028 H 
ENDBRANCH  17  26
ENDBRANCH   1  17
BRANCH   7  30
ATOM     30  O1  <0> d           0.818  -1.714   0.929  0.00  0.00    -0.395 OA
ATOM     31  H20 <0> d          -0.101  -1.976   0.785  0.00  0.00     0.210 HD
ENDBRANCH   7  30
TORSDOF 5
