REMARK  2 active torsions:
REMARK  status: ('A' for Active; 'I' for Inactive)
REMARK    1  A    between atoms: C2_2  and  C3_3 
REMARK    2  A    between atoms: C6_6  and  C8_9 
ROOT
ATOM      1  C1  <0> d           0.018  -1.178  -0.004  0.00  0.00    -0.149 C 
ATOM      2  C2  <0> d           0.002  -0.004   0.002  0.00  0.00    -0.076 C 
ATOM      3  H1  <0> d           0.032  -2.228  -0.010  0.00  0.00     0.166 H 
ENDROOT
BRANCH   2   4
ATOM      4  C3  <0> d          -0.017   1.428   0.010  0.00  0.00     0.034 A 
ATOM      5  C7  <0> d           1.180   2.154   0.002  0.00  0.00     0.021 A 
ATOM      6  N1  <0> d           1.168   3.466   0.005  0.00  0.00    -0.253 NA
ATOM      7  H4  <0> d           2.123   1.628  -0.009  0.00  0.00     0.117 H 
ATOM      8  C6  <0> d           0.032   4.156   0.025  0.00  0.00     0.132 A 
ATOM      9  C5  <0> d          -1.202   3.503   0.038  0.00  0.00    -0.047 A 
ATOM     10  C4  <0> d          -1.233   2.121   0.031  0.00  0.00    -0.061 A 
ATOM     11  H3  <0> d          -2.121   4.070   0.054  0.00  0.00     0.087 H 
ATOM     12  H2  <0> d          -2.173   1.589   0.041  0.00  0.00     0.085 H 
BRANCH   8  13
ATOM     13  C8  <0> d           0.075   5.632   0.032  0.00  0.00     0.228 C 
ATOM     14  O1  <0> d          -0.965   6.274   0.050  0.00  0.00    -0.643 OA
ATOM     15  O2  <0> d           1.152   6.212   0.020  0.00  0.00    -0.643 OA
ENDBRANCH   8  13
ENDBRANCH   2   4
TORSDOF 2
