REMARK  1 active torsions:
REMARK  status: ('A' for Active; 'I' for Inactive)
REMARK    1  A    between atoms: C3_3  and  N2_7 
REMARK       I    between atoms: N2_7  and  C6_8 
REMARK       I    between atoms: C6_8  and  N3_10 
ROOT
ATOM      1  C1  <0> d          -0.011   1.080   0.179  0.00  0.00    -0.064 A 
ATOM      2  C2  <0> d           1.173   1.799   0.172  0.00  0.00    -0.054 A 
ATOM      3  C3  <0> d           1.107   3.181   0.014  0.00  0.00     0.053 A 
ATOM      4  C4  <0> d          -0.136   3.784  -0.131  0.00  0.00     0.028 A 
ATOM      5  N1  <0> d          -1.239   3.061  -0.120  0.00  0.00    -0.271 NA
ATOM      6  C5  <0> d          -1.209   1.751   0.023  0.00  0.00     0.002 A 
ATOM      7  H1  <0> d           0.003   0.007   0.299  0.00  0.00     0.085 H 
ATOM      8  H2  <0> d           2.124   1.301   0.287  0.00  0.00     0.087 H 
ATOM      9  H3  <0> d          -0.200   4.855  -0.254  0.00  0.00     0.118 H 
ATOM     10  H4  <0> d          -2.135   1.194   0.023  0.00  0.00     0.114 H 
ENDROOT
BRANCH   3  11
ATOM     11  N2  <0> d           2.275   3.952   0.002  0.00  0.00    -0.308 N 
ATOM     12  C6  <0> d           3.415   3.440  -0.505  0.00  0.00     0.318 C 
ATOM     13  O1  <0> d           3.406   2.347  -1.037  0.00  0.00    -0.247 OA
ATOM     14  N3  <0> d           4.564   4.139  -0.420  0.00  0.00    -0.352 N 
ATOM     15  H6  <0> d           4.570   5.011   0.005  0.00  0.00     0.160 HD
ATOM     16  H7  <0> d           5.383   3.771  -0.784  0.00  0.00     0.160 HD
ATOM     17  H5  <0> d           2.265   4.854   0.357  0.00  0.00     0.170 HD
ENDBRANCH   3  11
TORSDOF 1
