REMARK  2 active torsions:
REMARK  status: ('A' for Active; 'I' for Inactive)
REMARK    1  A    between atoms: C1_1  and  O1_2 
REMARK    2  A    between atoms: O1_2  and  C2_3 
ROOT
ATOM      1  C2  <0> d           1.178   1.788   0.000  0.00  0.00     0.076 A 
ATOM      2  C3  <0> d          -0.013   1.076   0.008  0.00  0.00    -0.050 A 
ATOM      3  C4  <0> d          -1.217   1.753   0.017  0.00  0.00    -0.078 A 
ATOM      4  C5  <0> d          -1.240   3.131   0.032  0.00  0.00    -0.057 A 
ATOM      5  C6  <0> d          -0.047   3.858   0.023  0.00  0.00     0.037 A 
ATOM      6  C7  <0> d           1.158   3.174   0.008  0.00  0.00     0.003 A 
ATOM      7  C8  <0> d           2.284   4.183   0.002  0.00  0.00    -0.021 A 
ATOM      8  C9  <0> d           1.578   5.549   0.016  0.00  0.00    -0.004 A 
ATOM      9  N1  <0> d           0.146   5.241   0.028  0.00  0.00    -0.389 N 
ATOM     10  H4  <0> d           0.002  -0.004   0.002  0.00  0.00     0.087 H 
ATOM     11  H5  <0> d          -2.145   1.200   0.018  0.00  0.00     0.083 H 
ATOM     12  H6  <0> d          -2.186   3.652   0.043  0.00  0.00     0.086 H 
ATOM     13  H7  <0> d           2.904   4.066   0.891  0.00  0.00     0.042 H 
ATOM     14  H8  <0> d           2.888   4.074  -0.899  0.00  0.00     0.042 H 
ATOM     15  H9  <0> d           1.853   6.108   0.910  0.00  0.00     0.064 H 
ATOM     16  H10 <0> d           1.837   6.117  -0.878  0.00  0.00     0.064 H 
ATOM     17  H11 <0> d          -0.565   5.901   0.038  0.00  0.00     0.159 HD
ENDROOT
BRANCH   1  18
ATOM     18  O1  <0> d           2.365   1.127  -0.015  0.00  0.00    -0.355 OA
BRANCH  18  19
ATOM     19  C1  <0> d           2.312  -0.301  -0.022  0.00  0.00     0.010 C 
ATOM     20  H1  <0> d           1.777  -0.640  -0.908  0.00  0.00     0.066 H 
ATOM     21  H2  <0> d           3.326  -0.702  -0.034  0.00  0.00     0.066 H 
ATOM     22  H3  <0> d           1.794  -0.650   0.871  0.00  0.00     0.066 H 
ENDBRANCH  18  19
ENDBRANCH   1  18
TORSDOF 2
