REMARK  1 active torsions:
REMARK  status: ('A' for Active; 'I' for Inactive)
REMARK    1  A    between atoms: C4_7  and  O1_11 
ROOT
ATOM      1  C1  <0> d          -0.618  -2.081  -0.224  0.00  0.00     0.108 A 
ATOM      2  N1  <0> d           0.642  -2.052   0.218  0.00  0.00    -0.215 NA
ATOM      3  C2  <0> d           1.030  -0.806   0.354  0.00  0.00     0.186 A 
ATOM      4  N2  <0> d           0.002  -0.004   0.002  0.00  0.00    -0.243 N 
ATOM      5  N3  <0> d          -1.048  -0.856  -0.371  0.00  0.00    -0.163 NA
ATOM      6  C3  <0> d          -0.018   1.456   0.010  0.00  0.00     0.044 C 
ATOM      7  C4  <0> d           1.398   2.025  -0.000  0.00  0.00     0.061 C 
ATOM      8  H1  <0> d           1.901   1.727  -0.920  0.00  0.00     0.086 H 
ATOM      9  C5  <0> d           2.186   1.499   1.204  0.00  0.00     0.009 C 
ATOM     10  S1  <0> d           2.612  -0.238   0.894  0.00  0.00    -0.088 SA
ATOM     11  H2  <0> d          -1.189  -2.974  -0.427  0.00  0.00     0.149 H 
ATOM     12  H3  <0> d          -0.552   1.811  -0.871  0.00  0.00     0.071 H 
ATOM     13  H4  <0> d          -0.535   1.801   0.905  0.00  0.00     0.071 H 
ATOM     14  H5  <0> d           1.575   1.572   2.103  0.00  0.00     0.053 H 
ATOM     15  H6  <0> d           3.097   2.083   1.331  0.00  0.00     0.053 H 
ENDROOT
BRANCH   7  16
ATOM     16  O1  <0> d           1.335   3.452   0.061  0.00  0.00    -0.393 OA
ATOM     17  H7  <0> d           2.200   3.884   0.058  0.00  0.00     0.210 HD
ENDBRANCH   7  16
TORSDOF 1
