REMARK  4 active torsions:
REMARK  status: ('A' for Active; 'I' for Inactive)
REMARK    1  A    between atoms: C1_1  and  O1_2 
REMARK    2  A    between atoms: O1_2  and  C2_3 
REMARK    3  A    between atoms: C2_3  and  C3_5 
REMARK    4  A    between atoms: C3_5  and  C4_6 
ROOT
ATOM      1  C3  <0> d          -1.244  -2.135   0.003  0.00  0.00     0.055 C 
ATOM      2  H5  <0> d          -0.753  -2.514  -0.894  0.00  0.00     0.057 H 
ATOM      3  H6  <0> d          -0.736  -2.523   0.886  0.00  0.00     0.057 H 
ENDROOT
BRANCH   1   4
ATOM      4  C2  <0> d          -1.185  -0.630   0.010  0.00  0.00     0.264 C 
ATOM      5  O2  <0> d          -2.208   0.015   0.023  0.00  0.00    -0.265 OA
BRANCH   4   6
ATOM      6  O1  <0> d           0.002  -0.004   0.002  0.00  0.00    -0.326 OA
BRANCH   6   7
ATOM      7  C1  <0> d          -0.017   1.425   0.010  0.00  0.00     0.013 C 
ATOM      8  H2  <0> d           1.005   1.802   0.002  0.00  0.00     0.067 H 
ATOM      9  H3  <0> d          -0.544   1.786  -0.873  0.00  0.00     0.067 H 
ATOM     10  H4  <0> d          -0.527   1.776   0.907  0.00  0.00     0.067 H 
ENDBRANCH   6   7
ENDBRANCH   4   6
ENDBRANCH   1   4
BRANCH   1  11
ATOM     11  C4  <0> d          -2.683  -2.582   0.014  0.00  0.00     0.038 A 
ATOM     12  N2  <0> d          -3.425  -2.903  -1.067  0.00  0.00    -0.282 N 
ATOM     13  N1  <0> d          -4.702  -3.266  -0.620  0.00  0.00    -0.187 NA
ATOM     14  H1  <0> d          -3.127  -2.887  -1.990  0.00  0.00     0.189 HD
ATOM     15  C6  <0> d          -4.726  -3.158   0.683  0.00  0.00     0.023 A 
ATOM     16  C5  <0> d          -3.464  -2.729   1.109  0.00  0.00    -0.041 A 
ATOM     17  H8  <0> d          -5.572  -3.366   1.321  0.00  0.00     0.117 H 
ATOM     18  H7  <0> d          -3.167  -2.546   2.131  0.00  0.00     0.088 H 
ENDBRANCH   1  11
TORSDOF 4
