REMARK  2 active torsions:
REMARK  status: ('A' for Active; 'I' for Inactive)
REMARK    1  A    between atoms: C7_8  and  C8_11 
REMARK    2  A    between atoms: C8_11  and  O3_12 
ROOT
ATOM      1  C1  <0> d          -0.019   1.536   0.011  0.00  0.00    -0.060 C 
ATOM      2  C2  <0> d           1.454   1.996  -0.001  0.00  0.00    -0.060 C 
ATOM      3  C3  <0> d           2.235   0.792   0.584  0.00  0.00    -0.013 C 
ATOM      4  C4  <0> d           1.481  -0.419  -0.004  0.00  0.00     0.164 C 
ATOM      5  C5  <0> d           0.002  -0.004   0.002  0.00  0.00    -0.013 C 
ATOM      6  O1  <0> d           1.688  -1.576   0.805  0.00  0.00    -0.352 OA
ATOM      7  C6  <0> d           2.269  -2.587  -0.047  0.00  0.00     0.049 C 
ATOM      8  C7  <0> d           1.865  -2.122  -1.469  0.00  0.00     0.083 C 
ATOM      9  H1  <0> d           0.855  -2.449  -1.714  0.00  0.00     0.090 H 
ATOM     10  O2  <0> d           1.926  -0.680  -1.339  0.00  0.00    -0.346 OA
ATOM     11  H2  <0> d          -0.516   1.898   0.910  0.00  0.00     0.033 H 
ATOM     12  H3  <0> d          -0.533   1.907  -0.876  0.00  0.00     0.033 H 
ATOM     13  H4  <0> d           1.780   2.204  -1.020  0.00  0.00     0.033 H 
ATOM     14  H5  <0> d           1.583   2.877   0.629  0.00  0.00     0.033 H 
ATOM     15  H6  <0> d           3.272   0.803   0.246  0.00  0.00     0.041 H 
ATOM     16  H7  <0> d           2.182   0.789   1.672  0.00  0.00     0.041 H 
ATOM     17  H8  <0> d          -0.491  -0.390   0.894  0.00  0.00     0.041 H 
ATOM     18  H9  <0> d          -0.495  -0.380  -0.892  0.00  0.00     0.041 H 
ATOM     19  H10 <0> d           3.354  -2.603   0.059  0.00  0.00     0.078 H 
ATOM     20  H11 <0> d           1.845  -3.567   0.172  0.00  0.00     0.078 H 
ENDROOT
BRANCH   8  21
ATOM     21  C8  <0> d           2.867  -2.620  -2.513  0.00  0.00     0.043 C 
ATOM     22  H12 <0> d           3.837  -2.156  -2.336  0.00  0.00     0.078 H 
ATOM     23  H13 <0> d           2.963  -3.703  -2.436  0.00  0.00     0.078 H 
BRANCH  21  24
ATOM     24  O3  <0> d           2.405  -2.274  -3.820  0.00  0.00    -0.398 OA
ATOM     25  H14 <0> d           2.992  -2.560  -4.533  0.00  0.00     0.209 HD
ENDBRANCH  21  24
ENDBRANCH   8  21
TORSDOF 2
