REMARK  7 active torsions:
REMARK  status: ('A' for Active; 'I' for Inactive)
REMARK    1  A    between atoms: C1_1  and  C2_2 
REMARK    2  A    between atoms: C2_2  and  C3_4 
REMARK    3  A    between atoms: C2_2  and  C5_8 
REMARK    4  A    between atoms: C3_4  and  C4_5 
REMARK       I    between atoms: C4_5  and  N1_7 
REMARK    5  A    between atoms: C5_8  and  C6_9 
REMARK    6  A    between atoms: C5_8  and  C7_10 
REMARK    7  A    between atoms: C5_8  and  C8_11 
ROOT
ATOM      1  C2  <0> d          -0.729   1.579   1.267  0.00  0.00    -0.043 C 
ATOM      2  H1  <0> d          -1.776   1.277   1.232  0.00  0.00     0.041 H 
ENDROOT
BRANCH   1   3
ATOM      3  C1  <0> d          -0.641   3.105   1.339  0.00  0.00    -0.072 C 
ATOM      4  H2  <0> d          -1.115   3.538   0.458  0.00  0.00     0.028 H 
ATOM      5  H3  <0> d          -1.151   3.457   2.235  0.00  0.00     0.028 H 
ATOM      6  H4  <0> d           0.406   3.407   1.374  0.00  0.00     0.028 H 
ENDBRANCH   1   3
BRANCH   1   7
ATOM      7  C3  <0> d          -0.013   1.086   0.008  0.00  0.00     0.013 C 
ATOM      8  H5  <0> d           0.002  -0.004   0.002  0.00  0.00     0.047 H 
ATOM      9  H6  <0> d           1.010   1.463   0.000  0.00  0.00     0.047 H 
BRANCH   7  10
ATOM     10  C4  <0> d          -0.742   1.585  -1.213  0.00  0.00     0.215 C 
ATOM     11  O1  <0> d          -1.736   2.268  -1.088  0.00  0.00    -0.274 OA
ATOM     12  N1  <0> d          -0.288   1.272  -2.443  0.00  0.00    -0.370 N 
ATOM     13  H7  <0> d           0.507   0.726  -2.543  0.00  0.00     0.159 HD
ATOM     14  H8  <0> d          -0.758   1.594  -3.229  0.00  0.00     0.159 HD
ENDBRANCH   7  10
ENDBRANCH   1   7
BRANCH   1  15
ATOM     15  C5  <0> d          -0.064   0.971   2.503  0.00  0.00    -0.048 C 
BRANCH  15  16
ATOM     16  C6  <0> d           1.405   1.396   2.553  0.00  0.00    -0.069 C 
ATOM     17  H9  <0> d           1.468   2.483   2.604  0.00  0.00     0.028 H 
ATOM     18  H10 <0> d           1.879   0.963   3.434  0.00  0.00     0.028 H 
ATOM     19  H11 <0> d           1.915   1.044   1.656  0.00  0.00     0.028 H 
ENDBRANCH  15  16
BRANCH  15  20
ATOM     20  C7  <0> d          -0.780   1.465   3.762  0.00  0.00    -0.069 C 
ATOM     21  H12 <0> d          -1.827   1.162   3.727  0.00  0.00     0.028 H 
ATOM     22  H13 <0> d          -0.306   1.032   4.643  0.00  0.00     0.028 H 
ATOM     23  H14 <0> d          -0.717   2.552   3.813  0.00  0.00     0.028 H 
ENDBRANCH  15  20
BRANCH  15  24
ATOM     24  C8  <0> d          -0.152  -0.554   2.432  0.00  0.00    -0.069 C 
ATOM     25  H15 <0> d           0.358  -0.906   1.535  0.00  0.00     0.028 H 
ATOM     26  H16 <0> d           0.322  -0.988   3.312  0.00  0.00     0.028 H 
ATOM     27  H17 <0> d          -1.198  -0.857   2.396  0.00  0.00     0.028 H 
ENDBRANCH  15  24
ENDBRANCH   1  15
TORSDOF 7
