REMARK  0 active torsions:
REMARK  status: ('A' for Active; 'I' for Inactive)
ROOT
ATOM      1  C1  <0> d           0.041  -2.102   1.139  0.00  0.00     0.045 A 
ATOM      2  C2  <0> d           0.023  -0.719   1.200  0.00  0.00     0.187 A 
ATOM      3  C3  <0> d           0.002  -0.004   0.002  0.00  0.00     0.220 A 
ATOM      4  N1  <0> d          -0.005  -0.672  -1.145  0.00  0.00    -0.327 N 
ATOM      5  C4  <0> d           0.017  -1.990  -1.158  0.00  0.00     0.065 A 
ATOM      6  N2  <0> d           0.037  -2.696  -0.045  0.00  0.00    -0.253 NA
ATOM      7  O1  <0> d          -0.016   1.351   0.009  0.00  0.00    -0.169 OA
ATOM      8  F1  <0> d           0.026  -0.078   2.390  0.00  0.00    -0.200 F 
ATOM      9  H1  <0> d           0.056  -2.639   1.982  0.00  0.00     0.119 H 
ATOM     10  H2  <0> d           0.019  -2.453  -2.044  0.00  0.00     0.143 H 
ATOM     11  H3  <0> d          -0.030  -0.114  -2.093  0.00  0.00     0.169 HD
ENDROOT
TORSDOF 0
