REMARK  7 active torsions:
REMARK  status: ('A' for Active; 'I' for Inactive)
REMARK    1  A    between atoms: C1_1  and  C2_2 
REMARK    2  A    between atoms: C2_2  and  C3_3 
REMARK    3  A    between atoms: C2_2  and  C7_8 
REMARK    4  A    between atoms: C3_3  and  C4_4 
REMARK    5  A    between atoms: C4_4  and  C5_5 
REMARK    6  A    between atoms: C5_5  and  O1_6 
REMARK    7  A    between atoms: O1_6  and  C6_7 
ROOT
ATOM      1  C2  <0> d           0.002  -0.004   0.002  0.00  0.00     0.034 C 
ENDROOT
BRANCH   1   2
ATOM      2  C1  <0> d          -0.018   1.503   0.010  0.00  0.00    -0.058 C 
ATOM      3  H1  <0> d           1.004   1.880   0.003  0.00  0.00     0.029 H 
ATOM      4  H2  <0> d          -0.545   1.864  -0.873  0.00  0.00     0.029 H 
ATOM      5  H3  <0> d          -0.529   1.854   0.907  0.00  0.00     0.029 H 
ENDBRANCH   1   2
BRANCH   1   6
ATOM      6  C3  <0> d           0.022  -0.664   1.130  0.00  0.00    -0.093 C 
BRANCH   6   7
ATOM      7  C4  <0> d           0.041  -1.323   2.259  0.00  0.00    -0.070 C 
BRANCH   7   8
ATOM      8  C5  <0> d           0.061  -1.983   3.387  0.00  0.00     0.131 C 
ATOM      9  H4  <0> d           0.063  -1.448   4.325  0.00  0.00     0.109 H 
BRANCH   8  10
ATOM     10  O1  <0> d           0.079  -3.335   3.379  0.00  0.00    -0.375 OA
BRANCH  10  11
ATOM     11  C6  <0> d           0.100  -3.991   4.649  0.00  0.00     0.006 C 
ATOM     12  H5  <0> d           0.992  -3.689   5.199  0.00  0.00     0.066 H 
ATOM     13  H6  <0> d          -0.788  -3.713   5.216  0.00  0.00     0.066 H 
ATOM     14  H7  <0> d           0.114  -5.071   4.500  0.00  0.00     0.066 H 
ENDBRANCH  10  11
ENDBRANCH   8  10
ENDBRANCH   7   8
ENDBRANCH   6   7
ENDBRANCH   1   6
BRANCH   1  15
ATOM     15  C7  <0> d          -0.000  -0.750  -1.307  0.00  0.00    -0.058 C 
ATOM     16  H8  <0> d           1.027  -0.916  -1.633  0.00  0.00     0.029 H 
ATOM     17  H9  <0> d          -0.500  -1.710  -1.177  0.00  0.00     0.029 H 
ATOM     18  H10 <0> d          -0.529  -0.164  -2.059  0.00  0.00     0.029 H 
ENDBRANCH   1  15
TORSDOF 7
