REMARK  3 active torsions:
REMARK  status: ('A' for Active; 'I' for Inactive)
REMARK    1  A    between atoms: C1_1  and  C2_2 
REMARK    2  A    between atoms: C4_4  and  N2_9 
REMARK    3  A    between atoms: C7_7  and  N1_8 
ROOT
ATOM      1  C2  <0> d           0.002  -0.004   0.002  0.00  0.00    -0.034 A 
ATOM      2  C3  <0> d           0.006  -0.688  -1.198  0.00  0.00    -0.050 A 
ATOM      3  C4  <0> d           0.025  -2.076  -1.206  0.00  0.00     0.026 A 
ATOM      4  C5  <0> d           0.041  -2.777  -0.007  0.00  0.00    -0.056 A 
ATOM      5  C6  <0> d           0.036  -2.093   1.193  0.00  0.00    -0.055 A 
ATOM      6  C7  <0> d           0.023  -0.705   1.200  0.00  0.00     0.031 A 
ATOM      7  H4  <0> d          -0.007  -0.143  -2.130  0.00  0.00     0.087 H 
ATOM      8  H5  <0> d           0.056  -3.857  -0.013  0.00  0.00     0.087 H 
ATOM      9  H6  <0> d           0.048  -2.638   2.125  0.00  0.00     0.087 H 
ENDROOT
BRANCH   1  10
ATOM     10  C1  <0> d          -0.018   1.503   0.010  0.00  0.00    -0.049 C 
ATOM     11  H1  <0> d           1.004   1.880   0.003  0.00  0.00     0.033 H 
ATOM     12  H2  <0> d          -0.545   1.864  -0.873  0.00  0.00     0.033 H 
ATOM     13  H3  <0> d          -0.529   1.854   0.907  0.00  0.00     0.033 H 
ENDBRANCH   1  10
BRANCH   6  14
ATOM     14  N1  <0> d           0.025  -0.011   2.417  0.00  0.00    -0.399 N 
ATOM     15  H7  <0> d           0.012   0.959   2.422  0.00  0.00     0.156 HD
ATOM     16  H8  <0> d           0.040  -0.501   3.254  0.00  0.00     0.156 HD
ENDBRANCH   6  14
BRANCH   3  17
ATOM     17  N2  <0> d           0.028  -2.770  -2.422  0.00  0.00    -0.399 N 
ATOM     18  H9  <0> d           0.017  -2.280  -3.259  0.00  0.00     0.156 HD
ATOM     19  H10 <0> d           0.042  -3.740  -2.427  0.00  0.00     0.156 HD
ENDBRANCH   3  17
TORSDOF 3
