REMARK  3 active torsions:
REMARK  status: ('A' for Active; 'I' for Inactive)
REMARK    1  A    between atoms: C1_1  and  C2_2 
REMARK    2  A    between atoms: C2_2  and  O1_3 
REMARK    3  A    between atoms: O1_3  and  C3_4 
ROOT
ATOM      1  C3  <0> d          -1.347   1.761   0.018  0.00  0.00     0.054 C 
ATOM      2  H1  <0> d          -1.780   1.725  -0.982  0.00  0.00     0.089 H 
ATOM      3  C4  <0> d          -1.185   3.221   0.453  0.00  0.00    -0.037 C 
ATOM      4  C5  <0> d          -0.061   3.850  -0.381  0.00  0.00    -0.060 C 
ATOM      5  C6  <0> d           1.262   3.192   0.017  0.00  0.00    -0.050 C 
ATOM      6  C7  <0> d           1.122   1.698   0.001  0.00  0.00    -0.104 C 
ATOM      7  C8  <0> d          -0.013   1.076   0.008  0.00  0.00    -0.079 C 
ATOM      8  H7  <0> d          -0.925   3.266   1.511  0.00  0.00     0.037 H 
ATOM      9  H8  <0> d          -2.115   3.763   0.281  0.00  0.00     0.037 H 
ATOM     10  H9  <0> d          -0.013   4.920  -0.182  0.00  0.00     0.033 H 
ATOM     11  H10 <0> d          -0.252   3.679  -1.440  0.00  0.00     0.033 H 
ATOM     12  H11 <0> d           1.541   3.518   1.019  0.00  0.00     0.038 H 
ATOM     13  H12 <0> d           2.039   3.490  -0.687  0.00  0.00     0.038 H 
ATOM     14  H13 <0> d           2.025   1.105  -0.019  0.00  0.00     0.076 H 
ATOM     15  H14 <0> d           0.002  -0.004   0.002  0.00  0.00     0.080 H 
ENDROOT
BRANCH   1  16
ATOM     16  O1  <0> d          -2.217   1.091   0.933  0.00  0.00    -0.382 OA
BRANCH  16  17
ATOM     17  C2  <0> d          -2.980   0.037   0.343  0.00  0.00     0.017 C 
ATOM     18  H5  <0> d          -3.602   0.441  -0.455  0.00  0.00     0.073 H 
ATOM     19  H6  <0> d          -2.305  -0.714  -0.068  0.00  0.00     0.073 H 
BRANCH  17  20
ATOM     20  C1  <0> d          -3.870  -0.606   1.408  0.00  0.00    -0.056 C 
ATOM     21  H2  <0> d          -4.452  -1.411   0.958  0.00  0.00     0.030 H 
ATOM     22  H3  <0> d          -3.248  -1.011   2.207  0.00  0.00     0.030 H 
ATOM     23  H4  <0> d          -4.545   0.144   1.819  0.00  0.00     0.030 H 
ENDBRANCH  17  20
ENDBRANCH  16  17
ENDBRANCH   1  16
TORSDOF 3
