REMARK  5 active torsions:
REMARK  status: ('A' for Active; 'I' for Inactive)
REMARK    1  A    between atoms: C1_1  and  C2_2 
REMARK    2  A    between atoms: C2_2  and  C3_3 
REMARK    3  A    between atoms: C3_3  and  C4_4 
REMARK    4  A    between atoms: C5_5  and  C7_10 
REMARK    5  A    between atoms: C6_6  and  N2_9 
ROOT
ATOM      1  C4  <0> d          -1.413  -2.041   0.005  0.00  0.00     0.088 A 
ATOM      2  C5  <0> d          -1.397  -2.835   1.089  0.00  0.00     0.018 A 
ATOM      3  C6  <0> d          -1.382  -4.178   0.649  0.00  0.00     0.157 A 
ATOM      4  N1  <0> d          -1.388  -4.172  -0.660  0.00  0.00    -0.110 NA
ATOM      5  O1  <0> d          -1.413  -2.822  -1.087  0.00  0.00    -0.215 OA
ENDROOT
BRANCH   1   6
ATOM      6  C3  <0> d          -1.433  -0.534   0.013  0.00  0.00    -0.018 C 
ATOM      7  H6  <0> d          -1.944  -0.182   0.910  0.00  0.00     0.043 H 
ATOM      8  H7  <0> d          -1.960  -0.173  -0.870  0.00  0.00     0.043 H 
BRANCH   6   9
ATOM      9  C2  <0> d           0.002  -0.004   0.002  0.00  0.00    -0.063 C 
ATOM     10  H4  <0> d           0.512  -0.356  -0.895  0.00  0.00     0.033 H 
ATOM     11  H5  <0> d           0.529  -0.365   0.885  0.00  0.00     0.033 H 
BRANCH   9  12
ATOM     12  C1  <0> d          -0.019   1.526   0.010  0.00  0.00    -0.076 C 
ATOM     13  H1  <0> d           1.004   1.903   0.003  0.00  0.00     0.027 H 
ATOM     14  H2  <0> d          -0.546   1.887  -0.873  0.00  0.00     0.027 H 
ATOM     15  H3  <0> d          -0.529   1.877   0.907  0.00  0.00     0.027 H 
ENDBRANCH   9  12
ENDBRANCH   6   9
ENDBRANCH   1   6
BRANCH   2  16
ATOM     16  C7  <0> d          -1.396  -2.373   2.524  0.00  0.00    -0.045 C 
ATOM     17  H10 <0> d          -2.423  -2.275   2.875  0.00  0.00     0.033 H 
ATOM     18  H11 <0> d          -0.869  -3.103   3.139  0.00  0.00     0.033 H 
ATOM     19  H12 <0> d          -0.894  -1.408   2.595  0.00  0.00     0.033 H 
ENDBRANCH   2  16
BRANCH   3  20
ATOM     20  N2  <0> d          -1.363  -5.306   1.463  0.00  0.00    -0.382 N 
ATOM     21  H8  <0> d          -1.359  -5.208   2.428  0.00  0.00     0.157 HD
ATOM     22  H9  <0> d          -1.353  -6.191   1.065  0.00  0.00     0.157 HD
ENDBRANCH   3  20
TORSDOF 5
