REMARK  2 active torsions:
REMARK  status: ('A' for Active; 'I' for Inactive)
REMARK    1  A    between atoms: C4_4  and  C9_10 
REMARK    2  A    between atoms: C5_5  and  C7_7 
ROOT
ATOM      1  C7  <0> d          -0.018   1.468   0.010  0.00  0.00     0.039 C 
ATOM      2  C8  <0> d           0.002  -0.004   0.002  0.00  0.00     0.063 C 
ATOM      3  N1  <0> d           0.018  -1.140  -0.004  0.00  0.00    -0.197 NA
ATOM      4  H5  <0> d          -0.545   1.829  -0.873  0.00  0.00     0.062 H 
ATOM      5  H6  <0> d          -0.528   1.819   0.907  0.00  0.00     0.062 H 
ENDROOT
BRANCH   1   6
ATOM      6  C5  <0> d           1.396   1.989  -0.001  0.00  0.00    -0.038 A 
ATOM      7  C4  <0> d           2.069   2.137  -1.199  0.00  0.00    -0.038 A 
ATOM      8  C3  <0> d           3.366   2.616  -1.208  0.00  0.00    -0.075 A 
ATOM      9  C2  <0> d           3.989   2.947  -0.020  0.00  0.00    -0.082 A 
ATOM     10  H3  <0> d           3.892   2.732  -2.145  0.00  0.00     0.084 H 
ATOM     11  C1  <0> d           3.316   2.799   1.178  0.00  0.00    -0.082 A 
ATOM     12  H2  <0> d           5.002   3.322  -0.028  0.00  0.00     0.083 H 
ATOM     13  C6  <0> d           2.018   2.325   1.188  0.00  0.00    -0.075 A 
ATOM     14  H1  <0> d           3.803   3.058   2.107  0.00  0.00     0.083 H 
ATOM     15  H4  <0> d           1.490   2.214   2.123  0.00  0.00     0.084 H 
BRANCH   7  16
ATOM     16  C9  <0> d           1.389   1.777  -2.494  0.00  0.00     0.039 C 
ATOM     17  C10 <0> d           0.590   2.920  -2.964  0.00  0.00     0.063 C 
ATOM     18  N2  <0> d          -0.026   3.803  -3.327  0.00  0.00    -0.197 NA
ATOM     19  H7  <0> d           2.142   1.527  -3.242  0.00  0.00     0.062 H 
ATOM     20  H8  <0> d           0.736   0.918  -2.336  0.00  0.00     0.062 H 
ENDBRANCH   7  16
ENDBRANCH   1   6
TORSDOF 2
