REMARK  0 active torsions:
REMARK  status: ('A' for Active; 'I' for Inactive)
ROOT
ATOM      1  C1  <0> d          -0.054   4.112   0.024  0.00  0.00    -0.083 A 
ATOM      2  C2  <0> d           1.153   3.438   0.009  0.00  0.00    -0.080 A 
ATOM      3  C3  <0> d           1.173   2.056   0.002  0.00  0.00    -0.046 A 
ATOM      4  C4  <0> d          -0.016   1.347   0.009  0.00  0.00     0.116 A 
ATOM      5  C5  <0> d          -1.224   2.023   0.019  0.00  0.00    -0.046 A 
ATOM      6  C6  <0> d          -1.242   3.405   0.032  0.00  0.00    -0.080 A 
ATOM      7  F1  <0> d           0.002  -0.004   0.002  0.00  0.00    -0.206 F 
ATOM      8  H1  <0> d          -0.068   5.192   0.030  0.00  0.00     0.083 H 
ATOM      9  H2  <0> d           2.080   3.991   0.003  0.00  0.00     0.083 H 
ATOM     10  H3  <0> d           2.116   1.529  -0.010  0.00  0.00     0.088 H 
ATOM     11  H4  <0> d          -2.153   1.471   0.020  0.00  0.00     0.088 H 
ATOM     12  H5  <0> d          -2.184   3.933   0.043  0.00  0.00     0.083 H 
ENDROOT
TORSDOF 0
