REMARK  2 active torsions:
REMARK  status: ('A' for Active; 'I' for Inactive)
REMARK    1  A    between atoms: C1_1  and  C2_2 
REMARK    2  A    between atoms: C2_2  and  C5_5 
ROOT
ATOM      1  C2  <0> d          -2.530   3.893   0.046  0.00  0.00    -0.017 A 
ATOM      2  C3  <0> d          -3.378   3.819   1.317  0.00  0.00    -0.053 A 
ATOM      3  C4  <0> d          -3.827   3.081   0.054  0.00  0.00    -0.053 A 
ATOM      4  H4  <0> d          -2.996   3.217   2.142  0.00  0.00     0.034 H 
ATOM      5  H5  <0> d          -3.934   4.711   1.603  0.00  0.00     0.034 H 
ATOM      6  H6  <0> d          -4.679   3.489  -0.491  0.00  0.00     0.034 H 
ATOM      7  H7  <0> d          -3.741   1.995   0.048  0.00  0.00     0.034 H 
ENDROOT
BRANCH   1   8
ATOM      8  C1  <0> d          -2.528   5.214  -0.727  0.00  0.00    -0.065 C 
ATOM      9  H1  <0> d          -2.752   5.021  -1.776  0.00  0.00     0.028 H 
ATOM     10  H2  <0> d          -3.283   5.880  -0.309  0.00  0.00     0.028 H 
ATOM     11  H3  <0> d          -1.546   5.681  -0.645  0.00  0.00     0.028 H 
ENDBRANCH   1   8
BRANCH   1  12
ATOM     12  C5  <0> d          -1.231   3.129   0.030  0.00  0.00    -0.047 A 
ATOM     13  C9  <0> d          -0.015   3.796   0.022  0.00  0.00    -0.059 A 
ATOM     14  C8  <0> d           1.155   3.061   0.007  0.00  0.00     0.002 A 
ATOM     15  H11 <0> d           0.016   4.875   0.028  0.00  0.00     0.086 H 
ATOM     16  N1  <0> d           1.125   1.743   0.001  0.00  0.00    -0.273 NA
ATOM     17  H10 <0> d           2.107   3.573   0.001  0.00  0.00     0.114 H 
ATOM     18  C7  <0> d          -0.013   1.076   0.008  0.00  0.00     0.002 A 
ATOM     19  C6  <0> d          -1.223   1.742   0.017  0.00  0.00    -0.059 A 
ATOM     20  H9  <0> d           0.002  -0.004   0.002  0.00  0.00     0.114 H 
ATOM     21  H8  <0> d          -2.151   1.190   0.018  0.00  0.00     0.086 H 
ENDBRANCH   1  12
TORSDOF 2
