REMARK  4 active torsions:
REMARK  status: ('A' for Active; 'I' for Inactive)
REMARK    1  A    between atoms: C1_1  and  C2_2 
REMARK    2  A    between atoms: C2_2  and  C3_3 
REMARK    3  A    between atoms: C2_2  and  C5_5 
REMARK    4  A    between atoms: C2_2  and  O1_8 
ROOT
ATOM      1  C3  <0> d           0.002  -0.004   0.002  0.00  0.00    -0.079 C 
ATOM      2  C4  <0> d           0.018  -1.178  -0.004  0.00  0.00    -0.151 C 
ATOM      3  H4  <0> d           0.032  -2.228  -0.010  0.00  0.00     0.166 H 
ENDROOT
BRANCH   1   4
ATOM      4  C2  <0> d          -0.018   1.468   0.010  0.00  0.00     0.120 C 
BRANCH   4   5
ATOM      5  C1  <0> d          -0.758   1.975  -1.229  0.00  0.00    -0.037 C 
ATOM      6  H1  <0> d          -1.780   1.597  -1.222  0.00  0.00     0.033 H 
ATOM      7  H2  <0> d          -0.773   3.064  -1.223  0.00  0.00     0.033 H 
ATOM      8  H3  <0> d          -0.248   1.623  -2.126  0.00  0.00     0.033 H 
ENDBRANCH   4   5
BRANCH   4   9
ATOM      9  C5  <0> d           1.417   1.997  -0.001  0.00  0.00    -0.013 A 
ATOM     10  C7  <0> d           2.360   1.506   1.099  0.00  0.00    -0.058 A 
ATOM     11  C6  <0> d           2.534   1.006  -0.336  0.00  0.00    -0.058 A 
ATOM     12  H8  <0> d           3.100   2.210   1.480  0.00  0.00     0.033 H 
ATOM     13  H9  <0> d           1.958   0.805   1.831  0.00  0.00     0.033 H 
ATOM     14  H6  <0> d           2.245  -0.023  -0.549  0.00  0.00     0.033 H 
ATOM     15  H7  <0> d           3.388   1.382  -0.900  0.00  0.00     0.033 H 
ATOM     16  H5  <0> d           1.537   3.025  -0.344  0.00  0.00     0.046 H 
ENDBRANCH   4   9
BRANCH   4  17
ATOM     17  O1  <0> d          -0.687   1.929   1.186  0.00  0.00    -0.378 OA
ATOM     18  H10 <0> d          -0.272   1.644   2.011  0.00  0.00     0.211 HD
ENDBRANCH   4  17
ENDBRANCH   1   4
TORSDOF 4
