REMARK  3 active torsions:
REMARK  status: ('A' for Active; 'I' for Inactive)
REMARK    1  A    between atoms: C1_1  and  C2_2 
REMARK    2  A    between atoms: C2_2  and  C5_6 
REMARK    3  A    between atoms: C3_3  and  C4_4 
ROOT
ATOM      1  C2  <0> d           0.312   1.726   0.291  0.00  0.00     0.028 C 
ATOM      2  C3  <0> d           0.325   1.069  -0.866  0.00  0.00     0.001 C 
ATOM      3  H4  <0> d           1.074   0.313  -1.050  0.00  0.00     0.094 H 
ENDROOT
BRANCH   1   4
ATOM      4  C1  <0> d           1.188   1.266   1.428  0.00  0.00    -0.046 C 
ATOM      5  H1  <0> d           2.156   1.764   1.365  0.00  0.00     0.033 H 
ATOM      6  H2  <0> d           0.713   1.514   2.377  0.00  0.00     0.033 H 
ATOM      7  H3  <0> d           1.330   0.187   1.364  0.00  0.00     0.033 H 
ENDBRANCH   1   4
BRANCH   1   8
ATOM      8  C5  <0> d          -0.574   2.932   0.463  0.00  0.00     0.413 C 
ATOM      9  F1  <0> d          -1.873   2.516   0.775  0.00  0.00    -0.166 F 
ATOM     10  F2  <0> d          -0.079   3.731   1.500  0.00  0.00    -0.166 F 
ATOM     11  F3  <0> d          -0.593   3.670  -0.725  0.00  0.00    -0.166 F 
ENDBRANCH   1   8
BRANCH   2  12
ATOM     12  C4  <0> d          -0.678   1.374  -1.895  0.00  0.00     0.199 C 
ATOM     13  O1  <0> d          -1.590   2.138  -1.647  0.00  0.00    -0.644 OA
ATOM     14  O2  <0> d          -0.588   0.807  -3.115  0.00  0.00    -0.644 OA
ENDBRANCH   2  12
TORSDOF 3
