REMARK  3 active torsions:
REMARK  status: ('A' for Active; 'I' for Inactive)
REMARK    1  A    between atoms: C1_1  and  C2_2 
REMARK    2  A    between atoms: C2_2  and  O3_10 
REMARK    3  A    between atoms: C6_7  and  O2_9 
ROOT
ATOM      1  C2  <0> d          -0.019   1.526   0.010  0.00  0.00     0.084 C 
ATOM      2  C3  <0> d          -0.739   2.022   1.268  0.00  0.00    -0.014 C 
ATOM      3  C4  <0> d          -0.824   3.550   1.229  0.00  0.00     0.022 C 
ATOM      4  O1  <0> d          -1.502   3.957   0.039  0.00  0.00    -0.388 OA
ATOM      5  C5  <0> d          -0.849   3.562  -1.169  0.00  0.00     0.046 C 
ATOM      6  C6  <0> d          -0.763   2.035  -1.228  0.00  0.00     0.085 C 
ATOM      7  H1  <0> d          -1.769   1.615  -1.246  0.00  0.00     0.090 H 
ATOM      8  H5  <0> d          -1.744   1.601   1.301  0.00  0.00     0.040 H 
ATOM      9  H6  <0> d          -0.184   1.710   2.153  0.00  0.00     0.040 H 
ATOM     10  H7  <0> d          -1.374   3.905   2.100  0.00  0.00     0.074 H 
ATOM     11  H8  <0> d           0.181   3.970   1.237  0.00  0.00     0.074 H 
ATOM     12  H9  <0> d          -1.417   3.928  -2.025  0.00  0.00     0.078 H 
ATOM     13  H10 <0> d           0.156   3.983  -1.193  0.00  0.00     0.078 H 
ENDROOT
BRANCH   1  14
ATOM     14  C1  <0> d           0.002  -0.004   0.002  0.00  0.00    -0.045 C 
ATOM     15  H2  <0> d           0.529  -0.365   0.885  0.00  0.00     0.031 H 
ATOM     16  H3  <0> d          -1.020  -0.381   0.010  0.00  0.00     0.031 H 
ATOM     17  H4  <0> d           0.512  -0.356  -0.895  0.00  0.00     0.031 H 
ENDBRANCH   1  14
BRANCH   1  18
ATOM     18  O3  <0> d           1.321   2.022   0.000  0.00  0.00    -0.387 OA
ATOM     19  H12 <0> d           1.851   1.740   0.759  0.00  0.00     0.210 HD
ENDBRANCH   1  18
BRANCH   6  20
ATOM     20  O2  <0> d          -0.057   1.639  -2.405  0.00  0.00    -0.390 OA
ATOM     21  H11 <0> d          -0.473   1.929  -3.229  0.00  0.00     0.210 HD
ENDBRANCH   6  20
TORSDOF 3
