REMARK  5 active torsions:
REMARK  status: ('A' for Active; 'I' for Inactive)
REMARK    1  A    between atoms: C1_1  and  C2_2 
REMARK    2  A    between atoms: C4_4  and  O1_11 
REMARK    3  A    between atoms: C7_7  and  N1_8 
REMARK    4  A    between atoms: N1_8  and  C8_9 
REMARK    5  A    between atoms: N1_8  and  C9_10 
ROOT
ATOM      1  C2  <0> d           1.161   3.175   0.008  0.00  0.00    -0.038 A 
ATOM      2  C3  <0> d          -0.046   3.848   0.023  0.00  0.00    -0.044 A 
ATOM      3  C4  <0> d          -1.237   3.137   0.030  0.00  0.00     0.066 A 
ATOM      4  C5  <0> d          -1.218   1.750   0.017  0.00  0.00    -0.049 A 
ATOM      5  C6  <0> d          -0.013   1.076   0.008  0.00  0.00    -0.059 A 
ATOM      6  C7  <0> d           1.181   1.787   0.000  0.00  0.00     0.016 A 
ATOM      7  H4  <0> d          -0.061   4.928   0.029  0.00  0.00     0.088 H 
ATOM      8  H5  <0> d          -2.146   1.198   0.019  0.00  0.00     0.087 H 
ATOM      9  H6  <0> d           0.002  -0.004   0.002  0.00  0.00     0.086 H 
ENDROOT
BRANCH   6  10
ATOM     10  N1  <0> d           2.402   1.104  -0.015  0.00  0.00    -0.291 NA
BRANCH  10  11
ATOM     11  C8  <0> d           2.539   0.242   1.166  0.00  0.00    -0.029 C 
ATOM     12  H7  <0> d           1.730  -0.489   1.178  0.00  0.00     0.048 H 
ATOM     13  H8  <0> d           3.497  -0.277   1.129  0.00  0.00     0.048 H 
ATOM     14  H9  <0> d           2.491   0.852   2.068  0.00  0.00     0.048 H 
ENDBRANCH  10  11
BRANCH  10  15
ATOM     15  C9  <0> d           2.556   0.329  -1.254  0.00  0.00    -0.029 C 
ATOM     16  H10 <0> d           2.520   1.002  -2.111  0.00  0.00     0.048 H 
ATOM     17  H11 <0> d           3.514  -0.192  -1.240  0.00  0.00     0.048 H 
ATOM     18  H12 <0> d           1.748  -0.399  -1.329  0.00  0.00     0.048 H 
ENDBRANCH  10  15
ENDBRANCH   6  10
BRANCH   1  19
ATOM     19  C1  <0> d           2.454   3.947   0.000  0.00  0.00    -0.049 C 
ATOM     20  H1  <0> d           2.757   4.139  -1.029  0.00  0.00     0.033 H 
ATOM     21  H2  <0> d           2.315   4.895   0.521  0.00  0.00     0.033 H 
ATOM     22  H3  <0> d           3.227   3.367   0.504  0.00  0.00     0.033 H 
ENDBRANCH   1  19
BRANCH   3  23
ATOM     23  O1  <0> d          -2.424   3.800   0.044  0.00  0.00    -0.361 OA
ATOM     24  H13 <0> d          -2.775   3.997  -0.835  0.00  0.00     0.217 HD
ENDBRANCH   3  23
TORSDOF 5
