REMARK  1 active torsions:
REMARK  status: ('A' for Active; 'I' for Inactive)
REMARK    1  A    between atoms: C2_2  and  N2_11 
ROOT
ATOM      1  C1  <0> d          -0.017   1.383   0.010  0.00  0.00    -0.020 A 
ATOM      2  C2  <0> d           1.200   2.062   0.002  0.00  0.00     0.046 A 
ATOM      3  C3  <0> d           2.379   1.332  -0.014  0.00  0.00     0.030 A 
ATOM      4  N1  <0> d           2.358   0.013  -0.022  0.00  0.00    -0.233 NA
ATOM      5  C4  <0> d           1.224  -0.670  -0.016  0.00  0.00     0.198 A 
ATOM      6  C5  <0> d           0.002  -0.004   0.002  0.00  0.00     0.123 A 
ATOM      7  O1  <0> d          -1.171  -0.691   0.016  0.00  0.00    -0.345 OA
ATOM      8  C6  <0> d          -1.112  -2.071  -0.364  0.00  0.00     0.046 C 
ATOM      9  C7  <0> d           0.076  -2.718   0.361  0.00  0.00     0.048 C 
ATOM     10  O2  <0> d           1.269  -2.030  -0.030  0.00  0.00    -0.330 OA
ATOM     11  H1  <0> d          -0.952   1.923   0.026  0.00  0.00     0.091 H 
ATOM     12  H2  <0> d           3.326   1.850  -0.019  0.00  0.00     0.118 H 
ATOM     13  H3  <0> d          -2.036  -2.572  -0.075  0.00  0.00     0.078 H 
ATOM     14  H4  <0> d          -0.972  -2.150  -1.442  0.00  0.00     0.078 H 
ATOM     15  H5  <0> d          -0.061  -2.633   1.439  0.00  0.00     0.078 H 
ATOM     16  H6  <0> d           0.149  -3.768   0.081  0.00  0.00     0.078 H 
ENDROOT
BRANCH   2  17
ATOM     17  N2  <0> d           1.232   3.461   0.009  0.00  0.00    -0.398 N 
ATOM     18  H7  <0> d           0.403   3.965   0.019  0.00  0.00     0.156 HD
ATOM     19  H8  <0> d           2.083   3.927   0.003  0.00  0.00     0.156 HD
ENDBRANCH   2  17
TORSDOF 1
