REMARK  4 active torsions:
REMARK  status: ('A' for Active; 'I' for Inactive)
REMARK    1  A    between atoms: C1_1  and  C2_2 
REMARK    2  A    between atoms: C3_4  and  N4_10 
REMARK    3  A    between atoms: C4_6  and  O1_8 
REMARK    4  A    between atoms: O1_8  and  C5_9 
ROOT
ATOM      1  C2  <0> d           0.002  -0.004   0.002  0.00  0.00     0.145 A 
ATOM      2  N1  <0> d           0.022  -0.669   1.144  0.00  0.00    -0.048 NA
ATOM      3  C3  <0> d           0.040  -2.000   1.139  0.00  0.00     0.725 A 
ATOM      4  N2  <0> d           0.038  -2.659  -0.015  0.00  0.00    -0.019 NA
ATOM      5  C4  <0> d           0.018  -1.986  -1.159  0.00  0.00     0.286 A 
ATOM      6  N3  <0> d          -0.005  -0.657  -1.147  0.00  0.00    -0.191 NA
ENDROOT
BRANCH   5   7
ATOM      7  O1  <0> d           0.016  -2.653  -2.336  0.00  0.00    -0.324 OA
BRANCH   7   8
ATOM      8  C5  <0> d           0.036  -4.081  -2.273  0.00  0.00     0.013 C 
ATOM      9  H4  <0> d           0.935  -4.409  -1.752  0.00  0.00     0.067 H 
ATOM     10  H5  <0> d          -0.844  -4.433  -1.736  0.00  0.00     0.067 H 
ATOM     11  H6  <0> d           0.032  -4.489  -3.284  0.00  0.00     0.067 H 
ENDBRANCH   7   8
ENDBRANCH   5   7
BRANCH   3  12
ATOM     12  N4  <0> d           0.060  -2.695   2.331  0.00  0.00    -0.231 N 
ATOM     13  H7  <0> d           0.061  -2.213   3.173  0.00  0.00     0.174 HD
ATOM     14  H8  <0> d           0.073  -3.665   2.327  0.00  0.00     0.174 HD
ENDBRANCH   3  12
BRANCH   1  15
ATOM     15  C1  <0> d          -0.018   1.503   0.010  0.00  0.00    -0.019 C 
ATOM     16  H1  <0> d           1.004   1.880   0.003  0.00  0.00     0.037 H 
ATOM     17  H2  <0> d          -0.545   1.864  -0.873  0.00  0.00     0.037 H 
ATOM     18  H3  <0> d          -0.529   1.854   0.907  0.00  0.00     0.037 H 
ENDBRANCH   1  15
TORSDOF 4
