REMARK  3 active torsions:
REMARK  status: ('A' for Active; 'I' for Inactive)
REMARK    1  A    between atoms: C1_1  and  C2_2 
REMARK    2  A    between atoms: C4_4  and  C7_8 
REMARK    3  A    between atoms: C5_5  and  C6_7 
REMARK       I    between atoms: C7_8  and  N1_10 
ROOT
ATOM      1  C2  <0> d           1.127   1.795   0.001  0.00  0.00    -0.020 A 
ATOM      2  C3  <0> d          -0.013   1.076   0.008  0.00  0.00    -0.054 A 
ATOM      3  C4  <0> d          -1.252   1.811   0.018  0.00  0.00     0.045 A 
ATOM      4  C5  <0> d          -1.164   3.188   0.029  0.00  0.00    -0.005 A 
ATOM      5  S1  <0> d           0.543   3.477   0.015  0.00  0.00    -0.099 SA
ATOM      6  H4  <0> d           0.002  -0.004   0.002  0.00  0.00     0.086 H 
ENDROOT
BRANCH   3   7
ATOM      7  C7  <0> d          -2.554   1.124   0.020  0.00  0.00     0.250 C 
ATOM      8  O1  <0> d          -3.583   1.772   0.028  0.00  0.00    -0.268 OA
ATOM      9  N1  <0> d          -2.605  -0.223   0.014  0.00  0.00    -0.366 N 
ATOM     10  H8  <0> d          -1.784  -0.739   0.008  0.00  0.00     0.159 HD
ATOM     11  H9  <0> d          -3.462  -0.675   0.016  0.00  0.00     0.159 HD
ENDBRANCH   3   7
BRANCH   4  12
ATOM     12  C6  <0> d          -2.284   4.197   0.045  0.00  0.00    -0.044 C 
ATOM     13  H5  <0> d          -1.866   5.203   0.046  0.00  0.00     0.034 H 
ATOM     14  H6  <0> d          -2.906   4.063  -0.840  0.00  0.00     0.034 H 
ATOM     15  H7  <0> d          -2.890   4.053   0.940  0.00  0.00     0.034 H 
ENDBRANCH   4  12
BRANCH   1  16
ATOM     16  C1  <0> d           2.549   1.297  -0.015  0.00  0.00    -0.045 C 
ATOM     17  H1  <0> d           2.882   1.182  -1.046  0.00  0.00     0.034 H 
ATOM     18  H2  <0> d           3.191   2.014   0.497  0.00  0.00     0.034 H 
ATOM     19  H3  <0> d           2.603   0.334   0.494  0.00  0.00     0.034 H 
ENDBRANCH   1  16
TORSDOF 3
