REMARK  1 active torsions:
REMARK  status: ('A' for Active; 'I' for Inactive)
REMARK    1  A    between atoms: C4_5  and  N2_7 
ROOT
ATOM      1  C1  <0> d           1.222  -0.667  -0.013  0.00  0.00    -0.078 A 
ATOM      2  C2  <0> d           0.002  -0.004   0.002  0.00  0.00    -0.066 A 
ATOM      3  C3  <0> d          -0.017   1.377   0.010  0.00  0.00     0.004 A 
ATOM      4  N1  <0> d           1.107   2.068   0.003  0.00  0.00    -0.241 NA
ATOM      5  C4  <0> d           2.288   1.474  -0.012  0.00  0.00     0.149 A 
ATOM      6  C5  <0> d           2.382   0.087  -0.020  0.00  0.00    -0.037 A 
ATOM      7  H1  <0> d           1.264  -1.746  -0.020  0.00  0.00     0.083 H 
ATOM      8  H2  <0> d          -0.922  -0.562   0.008  0.00  0.00     0.085 H 
ATOM      9  H3  <0> d          -0.963   1.897   0.017  0.00  0.00     0.114 H 
ATOM     10  H4  <0> d           3.348  -0.396  -0.033  0.00  0.00     0.089 H 
ENDROOT
BRANCH   5  11
ATOM     11  N2  <0> d           3.453   2.247  -0.019  0.00  0.00    -0.227 N 
ATOM     12  N3  <0> d           4.767   1.761  -0.035  0.00  0.00    -0.179 NA
ATOM     13  C8  <0> d           5.582   2.783  -0.037  0.00  0.00     0.024 A 
ATOM     14  C7  <0> d           4.819   3.956  -0.023  0.00  0.00    -0.047 A 
ATOM     15  H7  <0> d           6.661   2.732  -0.047  0.00  0.00     0.117 H 
ATOM     16  C6  <0> d           3.513   3.604  -0.018  0.00  0.00     0.007 A 
ATOM     17  H6  <0> d           5.204   4.965  -0.021  0.00  0.00     0.087 H 
ATOM     18  H5  <0> d           2.670   4.279  -0.012  0.00  0.00     0.115 H 
ENDBRANCH   5  11
TORSDOF 1
