REMARK  1 active torsions:
REMARK  status: ('A' for Active; 'I' for Inactive)
REMARK    1  A    between atoms: C7_9  and  O1_10 
ROOT
ATOM      1  C1  <0> d          -0.698  -2.255  -0.003  0.00  0.00    -0.035 A 
ATOM      2  C2  <0> d          -0.992  -0.940   0.007  0.00  0.00    -0.011 A 
ATOM      3  N1  <0> d           0.002  -0.004   0.002  0.00  0.00    -0.316 N 
ATOM      4  C3  <0> d          -0.017   1.367   0.010  0.00  0.00     0.003 A 
ATOM      5  C4  <0> d           1.267   1.783  -0.001  0.00  0.00     0.020 A 
ATOM      6  N2  <0> d           2.064   0.711  -0.014  0.00  0.00    -0.241 NA
ATOM      7  C5  <0> d           1.319  -0.386  -0.013  0.00  0.00     0.135 A 
ATOM      8  C6  <0> d           1.647  -1.754  -0.023  0.00  0.00    -0.006 A 
ATOM      9  C7  <0> d           0.645  -2.683  -0.018  0.00  0.00     0.070 A 
ATOM     10  H1  <0> d          -1.495  -2.985  -0.000  0.00  0.00     0.089 H 
ATOM     11  H2  <0> d          -2.024  -0.623   0.019  0.00  0.00     0.112 H 
ATOM     12  H3  <0> d          -0.894   1.996   0.017  0.00  0.00     0.114 H 
ATOM     13  H4  <0> d           1.596   2.812   0.001  0.00  0.00     0.117 H 
ATOM     14  H5  <0> d           2.681  -2.067  -0.034  0.00  0.00     0.093 H 
ENDROOT
BRANCH   9  15
ATOM     15  O1  <0> d           0.941  -4.008  -0.029  0.00  0.00    -0.361 OA
ATOM     16  H6  <0> d           1.035  -4.396   0.851  0.00  0.00     0.217 HD
ENDBRANCH   9  15
TORSDOF 1
