REMARK  3 active torsions:
REMARK  status: ('A' for Active; 'I' for Inactive)
REMARK    1  A    between atoms: C1_1  and  C2_2 
REMARK    2  A    between atoms: N1_5  and  C5_7 
REMARK    3  A    between atoms: C5_7  and  C6_8 
ROOT
ATOM      1  C6  <0> d           1.069   5.262  -1.162  0.00  0.00     0.031 C 
ATOM      2  C7  <0> d           1.911   6.469  -1.164  0.00  0.00     0.060 C 
ATOM      3  N3  <0> d           2.561   7.401  -1.165  0.00  0.00    -0.197 NA
ATOM      4  H8  <0> d           1.208   4.720  -2.098  0.00  0.00     0.057 H 
ATOM      5  H9  <0> d           0.022   5.549  -1.060  0.00  0.00     0.057 H 
ENDROOT
BRANCH   1   6
ATOM      6  C5  <0> d           1.468   4.364   0.011  0.00  0.00     0.028 C 
ATOM      7  H6  <0> d           1.329   4.905   0.947  0.00  0.00     0.068 H 
ATOM      8  H7  <0> d           2.514   4.077  -0.090  0.00  0.00     0.068 H 
BRANCH   6   9
ATOM      9  N1  <0> d           0.630   3.162   0.013  0.00  0.00    -0.280 N 
ATOM     10  C4  <0> d           1.071   1.887   0.002  0.00  0.00     0.000 A 
ATOM     11  C3  <0> d          -0.013   1.076   0.008  0.00  0.00    -0.041 A 
ATOM     12  H5  <0> d           2.103   1.570  -0.010  0.00  0.00     0.114 H 
ATOM     13  C2  <0> d          -1.155   1.883   0.017  0.00  0.00     0.052 A 
ATOM     14  H4  <0> d           0.002  -0.004   0.002  0.00  0.00     0.088 H 
ATOM     15  N2  <0> d          -0.771   3.134   0.026  0.00  0.00    -0.178 NA
BRANCH  13  16
ATOM     16  C1  <0> d          -2.581   1.397   0.020  0.00  0.00    -0.034 C 
ATOM     17  H1  <0> d          -2.921   1.274   1.049  0.00  0.00     0.035 H 
ATOM     18  H2  <0> d          -3.214   2.124  -0.487  0.00  0.00     0.035 H 
ATOM     19  H3  <0> d          -2.639   0.440  -0.498  0.00  0.00     0.035 H 
ENDBRANCH  13  16
ENDBRANCH   6   9
ENDBRANCH   1   6
TORSDOF 3
