REMARK  3 active torsions:
REMARK  status: ('A' for Active; 'I' for Inactive)
REMARK    1  A    between atoms: C1_1  and  C2_2 
REMARK    2  A    between atoms: C2_2  and  O2_4 
REMARK    3  A    between atoms: O2_4  and  C3_5 
ROOT
ATOM      1  C3  <0> d          -1.087   1.948   0.016  0.00  0.00     0.122 A 
ATOM      2  H1  <0> d          -1.694   1.936  -0.889  0.00  0.00     0.119 H 
ATOM      3  C4  <0> d          -0.020   3.036   0.018  0.00  0.00     0.050 A 
ATOM      4  C5  <0> d           0.952   1.895   0.003  0.00  0.00     0.223 A 
ATOM      5  O3  <0> d           2.164   1.835  -0.008  0.00  0.00    -0.273 OA
ATOM      6  N1  <0> d          -0.011   0.966   0.007  0.00  0.00    -0.334 N 
ATOM      7  H5  <0> d           0.009   3.631   0.930  0.00  0.00     0.053 H 
ATOM      8  H6  <0> d          -0.006   3.642  -0.889  0.00  0.00     0.053 H 
ATOM      9  H7  <0> d           0.002  -0.004   0.002  0.00  0.00     0.165 HD
ENDROOT
BRANCH   1  10
ATOM     10  O2  <0> d          -1.886   1.920   1.229  0.00  0.00    -0.295 OA
BRANCH  10  11
ATOM     11  C2  <0> d          -2.949   1.101   1.239  0.00  0.00     0.256 C 
ATOM     12  O1  <0> d          -3.204   0.430   0.267  0.00  0.00    -0.266 OA
BRANCH  11  13
ATOM     13  C1  <0> d          -3.825   1.019   2.462  0.00  0.00     0.004 C 
ATOM     14  H2  <0> d          -3.441   1.690   3.230  0.00  0.00     0.041 H 
ATOM     15  H3  <0> d          -4.843   1.310   2.201  0.00  0.00     0.041 H 
ATOM     16  H4  <0> d          -3.826  -0.003   2.841  0.00  0.00     0.041 H 
ENDBRANCH  11  13
ENDBRANCH  10  11
ENDBRANCH   1  10
TORSDOF 3
