REMARK  3 active torsions:
REMARK  status: ('A' for Active; 'I' for Inactive)
REMARK    1  A    between atoms: C2_2  and  C6_9 
REMARK    2  A    between atoms: C4_5  and  C5_6 
REMARK    3  A    between atoms: C6_9  and  O4_10 
ROOT
ATOM      1  C1  <0> d          -0.017   1.374   0.010  0.00  0.00    -0.034 A 
ATOM      2  C2  <0> d           1.322   1.791  -0.001  0.00  0.00    -0.010 A 
ATOM      3  C3  <0> d           2.088   0.677  -0.014  0.00  0.00     0.028 A 
ATOM      4  O1  <0> d           1.293  -0.399  -0.012  0.00  0.00    -0.315 OA
ATOM      5  C4  <0> d           0.002  -0.004   0.002  0.00  0.00     0.151 A 
ATOM      6  H1  <0> d          -0.891   2.008   0.025  0.00  0.00     0.089 H 
ATOM      7  H2  <0> d           3.168   0.659  -0.025  0.00  0.00     0.124 H 
ENDROOT
BRANCH   2   8
ATOM      8  C6  <0> d           1.814   3.216   0.002  0.00  0.00     0.042 C 
ATOM      9  H3  <0> d           2.769   3.271  -0.521  0.00  0.00     0.081 H 
ATOM     10  H4  <0> d           1.087   3.852  -0.502  0.00  0.00     0.081 H 
BRANCH   8  11
ATOM     11  O4  <0> d           1.983   3.659   1.349  0.00  0.00    -0.396 OA
ATOM     12  H5  <0> d           2.299   4.569   1.427  0.00  0.00     0.209 HD
ENDBRANCH   8  11
ENDBRANCH   2   8
BRANCH   5  13
ATOM     13  C5  <0> d          -1.167  -0.881   0.009  0.00  0.00     0.234 C 
ATOM     14  O2  <0> d          -2.293  -0.400   0.023  0.00  0.00    -0.642 OA
ATOM     15  O3  <0> d          -1.020  -2.097   0.001  0.00  0.00    -0.642 OA
ENDBRANCH   5  13
TORSDOF 3
