REMARK  2 active torsions:
REMARK  status: ('A' for Active; 'I' for Inactive)
REMARK    1  A    between atoms: C3_3  and  C7_8 
REMARK    2  A    between atoms: C7_8  and  O1_9 
ROOT
ATOM      1  C1  <0> d           1.175   1.783   0.000  0.00  0.00    -0.081 A 
ATOM      2  C2  <0> d           1.156   3.166   0.008  0.00  0.00    -0.075 A 
ATOM      3  C3  <0> d          -0.050   3.841   0.023  0.00  0.00    -0.033 A 
ATOM      4  C4  <0> d          -1.238   3.135   0.030  0.00  0.00    -0.054 A 
ATOM      5  C5  <0> d          -1.220   1.752   0.017  0.00  0.00     0.034 A 
ATOM      6  C6  <0> d          -0.013   1.076   0.008  0.00  0.00    -0.062 A 
ATOM      7 Cl1  <0> d          -2.712   0.864   0.019  0.00  0.00    -0.084 Cl
ATOM      8  H1  <0> d           2.117   1.256  -0.012  0.00  0.00     0.083 H 
ATOM      9  H2  <0> d           2.084   3.718   0.002  0.00  0.00     0.084 H 
ATOM     10  H3  <0> d          -2.180   3.663   0.041  0.00  0.00     0.087 H 
ATOM     11  H4  <0> d           0.002  -0.004   0.002  0.00  0.00     0.086 H 
ENDROOT
BRANCH   3  12
ATOM     12  C7  <0> d          -0.069   5.348   0.031  0.00  0.00     0.040 C 
ATOM     13  H5  <0> d          -0.959   5.697   0.555  0.00  0.00     0.081 H 
ATOM     14  H6  <0> d           0.821   5.720   0.538  0.00  0.00     0.081 H 
BRANCH  12  15
ATOM     15  O1  <0> d          -0.088   5.831  -1.314  0.00  0.00    -0.396 OA
ATOM     16  H7  <0> d          -0.101   6.795  -1.385  0.00  0.00     0.209 HD
ENDBRANCH  12  15
ENDBRANCH   3  12
TORSDOF 2
