REMARK  6 active torsions:
REMARK  status: ('A' for Active; 'I' for Inactive)
REMARK    1  A    between atoms: C1_1  and  C2_2 
REMARK    2  A    between atoms: C2_2  and  C3_3 
REMARK    3  A    between atoms: C3_3  and  O1_4 
REMARK    4  A    between atoms: O1_4  and  C4_5 
REMARK    5  A    between atoms: C4_5  and  C5_7 
REMARK    6  A    between atoms: C4_5  and  C6_8 
ROOT
ATOM      1  C3  <0> d           0.718  -0.497  -1.257  0.00  0.00     0.020 C 
ATOM      2  H7  <0> d           0.191  -0.136  -2.140  0.00  0.00     0.074 H 
ATOM      3  H8  <0> d           1.741  -0.120  -1.264  0.00  0.00     0.074 H 
ENDROOT
BRANCH   1   4
ATOM      4  C2  <0> d           0.002  -0.004   0.002  0.00  0.00    -0.049 C 
ATOM      5  H5  <0> d           0.529  -0.365   0.885  0.00  0.00     0.035 H 
ATOM      6  H6  <0> d          -1.020  -0.381   0.010  0.00  0.00     0.035 H 
BRANCH   4   7
ATOM      7  C1  <0> d          -0.019   1.526   0.010  0.00  0.00    -0.075 C 
ATOM      8  H2  <0> d           1.004   1.903   0.003  0.00  0.00     0.027 H 
ATOM      9  H3  <0> d          -0.546   1.887  -0.873  0.00  0.00     0.027 H 
ATOM     10  H4  <0> d          -0.529   1.877   0.907  0.00  0.00     0.027 H 
ENDBRANCH   4   7
ENDBRANCH   1   4
BRANCH   1  11
ATOM     11  O1  <0> d           0.738  -1.926  -1.265  0.00  0.00    -0.376 OA
BRANCH  11  12
ATOM     12  C4  <0> d           1.387  -2.493  -2.405  0.00  0.00     0.118 C 
ATOM     13  H1  <0> d           2.167  -1.815  -2.752  0.00  0.00     0.099 H 
BRANCH  12  14
ATOM     14  C5  <0> d           0.363  -2.708  -3.521  0.00  0.00    -0.043 C 
ATOM     15  H9  <0> d           0.859  -3.140  -4.390  0.00  0.00     0.031 H 
ATOM     16  H10 <0> d          -0.416  -3.386  -3.173  0.00  0.00     0.031 H 
ATOM     17  H11 <0> d          -0.082  -1.751  -3.794  0.00  0.00     0.031 H 
ENDBRANCH  12  14
BRANCH  12  18
ATOM     18  C6  <0> d           2.003  -3.815  -2.026  0.00  0.00     0.202 C 
ATOM     19  O2  <0> d           1.819  -4.277  -0.913  0.00  0.00    -0.646 OA
ATOM     20  O3  <0> d           2.686  -4.423  -2.833  0.00  0.00    -0.646 OA
ENDBRANCH  12  18
ENDBRANCH  11  12
ENDBRANCH   1  11
TORSDOF 6
