REMARK  1 active torsions:
REMARK  status: ('A' for Active; 'I' for Inactive)
REMARK    1  A    between atoms: C5_6  and  N4_10 
ROOT
ATOM      1  C1  <0> d          -0.016   1.352   0.009  0.00  0.00    -0.049 A 
ATOM      2  C2  <0> d           1.195   2.058   0.002  0.00  0.00     0.006 A 
ATOM      3  N1  <0> d           2.337   1.412  -0.013  0.00  0.00    -0.241 NA
ATOM      4  C3  <0> d           2.368   0.072  -0.021  0.00  0.00     0.153 A 
ATOM      5  C4  <0> d           3.413  -0.841  -0.036  0.00  0.00     0.009 A 
ATOM      6  C5  <0> d           2.856  -2.118  -0.037  0.00  0.00     0.145 A 
ATOM      7  N2  <0> d           1.543  -2.010  -0.024  0.00  0.00    -0.149 NA
ATOM      8  N3  <0> d           1.202  -0.652  -0.013  0.00  0.00    -0.225 N 
ATOM      9  C6  <0> d           0.002  -0.004   0.002  0.00  0.00     0.007 A 
ATOM     10  H1  <0> d          -0.956   1.883   0.026  0.00  0.00     0.087 H 
ATOM     11  H2  <0> d           1.188   3.138   0.008  0.00  0.00     0.114 H 
ATOM     12  H3  <0> d           4.466  -0.605  -0.045  0.00  0.00     0.095 H 
ATOM     13  H4  <0> d          -0.922  -0.564   0.008  0.00  0.00     0.115 H 
ENDROOT
BRANCH   6  14
ATOM     14  N4  <0> d           3.573  -3.318  -0.051  0.00  0.00    -0.383 N 
ATOM     15  H5  <0> d           4.543  -3.303  -0.062  0.00  0.00     0.157 HD
ATOM     16  H6  <0> d           3.101  -4.165  -0.051  0.00  0.00     0.157 HD
ENDBRANCH   6  14
TORSDOF 1
