REMARK  4 active torsions:
REMARK  status: ('A' for Active; 'I' for Inactive)
REMARK    1  A    between atoms: C1_1  and  C2_2 
REMARK    2  A    between atoms: C6_7  and  C7_8 
REMARK    3  A    between atoms: C6_7  and  C8_9 
REMARK    4  A    between atoms: C10_11  and  O1_13 
ROOT
ATOM      1  C2  <0> d           0.002  -0.004   0.002  0.00  0.00    -0.011 C 
ATOM      2  C3  <0> d          -1.389  -0.705   0.062  0.00  0.00    -0.055 C 
ATOM      3  C4  <0> d          -1.084  -2.139   0.552  0.00  0.00    -0.060 C 
ATOM      4  C5  <0> d           0.463  -2.169   0.743  0.00  0.00    -0.044 C 
ATOM      5  H1  <0> d           0.848  -2.957   1.391  0.00  0.00     0.041 H 
ATOM      6  C6  <0> d           0.727  -0.695   1.211  0.00  0.00    -0.034 C 
ATOM      7  C9  <0> d           1.035  -2.139  -0.708  0.00  0.00    -0.036 C 
ATOM      8  C10 <0> d           0.744  -0.669  -1.197  0.00  0.00     0.043 C 
ATOM      9  H2  <0> d           1.665  -0.131  -1.420  0.00  0.00     0.084 H 
ATOM     10  H6  <0> d          -2.043  -0.193   0.768  0.00  0.00     0.034 H 
ATOM     11  H7  <0> d          -1.845  -0.731  -0.928  0.00  0.00     0.034 H 
ATOM     12  H8  <0> d          -1.587  -2.332   1.500  0.00  0.00     0.033 H 
ATOM     13  H9  <0> d          -1.389  -2.870  -0.197  0.00  0.00     0.033 H 
ATOM     14  H16 <0> d           2.111  -2.318  -0.696  0.00  0.00     0.037 H 
ATOM     15  H17 <0> d           0.533  -2.880  -1.330  0.00  0.00     0.037 H 
ENDROOT
BRANCH   6  16
ATOM     16  C7  <0> d           2.220  -0.363   1.250  0.00  0.00    -0.068 C 
ATOM     17  H10 <0> d           2.351   0.715   1.345  0.00  0.00     0.028 H 
ATOM     18  H11 <0> d           2.681  -0.862   2.102  0.00  0.00     0.028 H 
ATOM     19  H12 <0> d           2.692  -0.706   0.329  0.00  0.00     0.028 H 
ENDBRANCH   6  16
BRANCH   6  20
ATOM     20  C8  <0> d           0.042  -0.385   2.543  0.00  0.00    -0.068 C 
ATOM     21  H13 <0> d          -0.987  -0.742   2.515  0.00  0.00     0.028 H 
ATOM     22  H14 <0> d           0.578  -0.883   3.352  0.00  0.00     0.028 H 
ATOM     23  H15 <0> d           0.048   0.692   2.713  0.00  0.00     0.028 H 
ENDBRANCH   6  20
BRANCH   1  24
ATOM     24  C1  <0> d          -0.019   1.526   0.010  0.00  0.00    -0.066 C 
ATOM     25  H3  <0> d           1.004   1.903   0.003  0.00  0.00     0.028 H 
ATOM     26  H4  <0> d          -0.546   1.887  -0.873  0.00  0.00     0.028 H 
ATOM     27  H5  <0> d          -0.529   1.877   0.907  0.00  0.00     0.028 H 
ENDBRANCH   1  24
BRANCH   8  28
ATOM     28  O1  <0> d          -0.102  -0.707  -2.348  0.00  0.00    -0.395 OA
ATOM     29  H18 <0> d           0.308  -1.111  -3.125  0.00  0.00     0.210 HD
ENDBRANCH   8  28
TORSDOF 4
