REMARK  1 active torsions:
REMARK  status: ('A' for Active; 'I' for Inactive)
REMARK    1  A    between atoms: C5_6  and  C6_7 
ROOT
ATOM      1  C1  <0> d          -0.017   1.395   0.010  0.00  0.00    -0.050 A 
ATOM      2  C2  <0> d           1.183   2.081   0.002  0.00  0.00     0.003 A 
ATOM      3  N1  <0> d           2.331   1.435  -0.013  0.00  0.00    -0.273 NA
ATOM      4  C3  <0> d           2.395   0.119  -0.020  0.00  0.00     0.003 A 
ATOM      5  C4  <0> d           1.245  -0.647  -0.014  0.00  0.00    -0.050 A 
ATOM      6  C5  <0> d           0.002  -0.004   0.002  0.00  0.00     0.043 A 
ATOM      7  H1  <0> d          -0.955   1.930   0.026  0.00  0.00     0.087 H 
ATOM      8  H2  <0> d           1.178   3.161   0.007  0.00  0.00     0.114 H 
ATOM      9  H3  <0> d           3.359  -0.368  -0.032  0.00  0.00     0.114 H 
ATOM     10  H4  <0> d           1.304  -1.725  -0.021  0.00  0.00     0.087 H 
ENDROOT
BRANCH   6  11
ATOM     11  C6  <0> d          -1.256  -0.782   0.010  0.00  0.00     0.209 C 
ATOM     12  O1  <0> d          -2.333  -0.203   0.024  0.00  0.00    -0.644 OA
ATOM     13  O2  <0> d          -1.220  -2.003   0.003  0.00  0.00    -0.644 OA
ENDBRANCH   6  11
TORSDOF 1
