REMARK  3 active torsions:
REMARK  status: ('A' for Active; 'I' for Inactive)
REMARK    1  A    between atoms: C1_1  and  C2_2 
REMARK    2  A    between atoms: C6_9  and  C7_10 
REMARK    3  A    between atoms: C6_9  and  C8_11 
ROOT
ATOM      1  C2  <0> d          -0.885   3.117   1.290  0.00  0.00    -0.041 C 
ATOM      2  H1  <0> d          -0.423   3.559   0.407  0.00  0.00     0.041 H 
ATOM      3  C3  <0> d          -2.426   3.356   1.273  0.00  0.00     0.008 C 
ATOM      4  H2  <0> d          -2.615   4.296   0.989  0.00  0.00     0.052 H 
ATOM      5  C4  <0> d          -2.898   2.148   0.389  0.00  0.00    -0.051 C 
ATOM      6  C5  <0> d          -2.191   1.036   1.249  0.00  0.00    -0.040 C 
ATOM      7  H3  <0> d          -2.315   0.003   0.926  0.00  0.00     0.041 H 
ATOM      8  C6  <0> d          -0.729   1.579   1.267  0.00  0.00    -0.040 C 
ATOM      9  C9  <0> d          -2.750   1.387   2.662  0.00  0.00    -0.005 C 
ATOM     10  C10 <0> d          -2.901   2.901   2.660  0.00  0.00     0.131 C 
ATOM     11  O1  <0> d          -3.309   3.597   3.559  0.00  0.00    -0.298 OA
ATOM     12  H7  <0> d          -3.983   2.039   0.390  0.00  0.00     0.034 H 
ATOM     13  H8  <0> d          -2.497   2.200  -0.623  0.00  0.00     0.034 H 
ATOM     14  H15 <0> d          -2.108   1.074   3.362  0.00  0.00     0.044 H 
ATOM     15  H16 <0> d          -3.717   0.909   2.818  0.00  0.00     0.044 H 
ENDROOT
BRANCH   8  16
ATOM     16  C7  <0> d           0.020   1.137   0.008  0.00  0.00    -0.069 C 
ATOM     17  H9  <0> d           0.073   0.049  -0.019  0.00  0.00     0.028 H 
ATOM     18  H10 <0> d           1.029   1.549   0.022  0.00  0.00     0.028 H 
ATOM     19  H11 <0> d          -0.508   1.498  -0.875  0.00  0.00     0.028 H 
ENDBRANCH   8  16
BRANCH   8  20
ATOM     20  C8  <0> d           0.004   1.098   2.521  0.00  0.00    -0.069 C 
ATOM     21  H12 <0> d           1.048   1.411   2.474  0.00  0.00     0.028 H 
ATOM     22  H13 <0> d          -0.465   1.530   3.404  0.00  0.00     0.028 H 
ATOM     23  H14 <0> d          -0.047   0.011   2.577  0.00  0.00     0.028 H 
ENDBRANCH   8  20
BRANCH   1  24
ATOM     24  C1  <0> d          -0.266   3.698   2.563  0.00  0.00    -0.071 C 
ATOM     25  H4  <0> d           0.794   3.448   2.598  0.00  0.00     0.028 H 
ATOM     26  H5  <0> d          -0.385   4.781   2.563  0.00  0.00     0.028 H 
ATOM     27  H6  <0> d          -0.767   3.277   3.435  0.00  0.00     0.028 H 
ENDBRANCH   1  24
TORSDOF 3
