REMARK  2 active torsions:
REMARK  status: ('A' for Active; 'I' for Inactive)
REMARK    1  A    between atoms: C1_1  and  C2_2 
REMARK    2  A    between atoms: C7_7  and  O1_12 
ROOT
ATOM      1  C2  <0> d           0.090  -2.777  -0.015  0.00  0.00    -0.061 A 
ATOM      2  C3  <0> d          -1.134  -2.109   0.001  0.00  0.00    -0.076 A 
ATOM      3  C4  <0> d          -1.190  -0.749   0.009  0.00  0.00    -0.072 A 
ATOM      4  C5  <0> d           0.002  -0.004   0.002  0.00  0.00    -0.023 A 
ATOM      5  C6  <0> d          -0.017   1.400   0.010  0.00  0.00    -0.040 A 
ATOM      6  C7  <0> d           1.161   2.091   0.002  0.00  0.00     0.066 A 
ATOM      7  C8  <0> d           2.387   1.419  -0.013  0.00  0.00    -0.050 A 
ATOM      8  C9  <0> d           2.439   0.060  -0.021  0.00  0.00    -0.070 A 
ATOM      9  C10 <0> d           1.246  -0.683  -0.013  0.00  0.00    -0.025 A 
ATOM     10  C11 <0> d           1.264  -2.088  -0.022  0.00  0.00    -0.067 A 
ATOM     11  H4  <0> d          -2.051  -2.679   0.006  0.00  0.00     0.084 H 
ATOM     12  H5  <0> d          -2.145  -0.246   0.021  0.00  0.00     0.084 H 
ATOM     13  H6  <0> d          -0.958   1.931   0.017  0.00  0.00     0.089 H 
ATOM     14  H7  <0> d           3.306   1.987  -0.018  0.00  0.00     0.087 H 
ATOM     15  H8  <0> d           3.393  -0.445  -0.033  0.00  0.00     0.085 H 
ATOM     16  H9  <0> d           2.204  -2.619  -0.033  0.00  0.00     0.085 H 
ENDROOT
BRANCH   1  17
ATOM     17  C1  <0> d           0.113  -4.284  -0.024  0.00  0.00    -0.051 C 
ATOM     18  H1  <0> d           0.128  -4.653   1.002  0.00  0.00     0.033 H 
ATOM     19  H2  <0> d          -0.776  -4.658  -0.531  0.00  0.00     0.033 H 
ATOM     20  H3  <0> d           1.004  -4.630  -0.548  0.00  0.00     0.033 H 
ENDBRANCH   1  17
BRANCH   6  21
ATOM     21  O1  <0> d           1.141   3.450   0.010  0.00  0.00    -0.361 OA
ATOM     22  H10 <0> d           1.144   3.839   0.895  0.00  0.00     0.217 HD
ENDBRANCH   6  21
TORSDOF 2
