REMARK  1 active torsions:
REMARK  status: ('A' for Active; 'I' for Inactive)
REMARK    1  A    between atoms: C8_9  and  O1_11 
ROOT
ATOM      1  C1  <0> d          -0.017   1.388   0.010  0.00  0.00    -0.079 A 
ATOM      2  C2  <0> d           1.142   2.104   0.003  0.00  0.00    -0.071 A 
ATOM      3  C3  <0> d           2.375   1.433  -0.013  0.00  0.00    -0.005 A 
ATOM      4  C4  <0> d           3.593   2.138  -0.020  0.00  0.00    -0.069 A 
ATOM      5  C5  <0> d           4.754   1.419  -0.035  0.00  0.00    -0.065 A 
ATOM      6  C6  <0> d           4.709   0.027  -0.042  0.00  0.00     0.003 A 
ATOM      7  N1  <0> d           3.573  -0.627  -0.036  0.00  0.00    -0.257 NA
ATOM      8  C7  <0> d           2.402   0.017  -0.021  0.00  0.00     0.099 A 
ATOM      9  C8  <0> d           1.182  -0.692  -0.013  0.00  0.00     0.095 A 
ATOM     10  C9  <0> d           0.002  -0.004   0.002  0.00  0.00    -0.049 A 
ATOM     11  H1  <0> d          -0.964   1.907   0.026  0.00  0.00     0.083 H 
ATOM     12  H2  <0> d           1.112   3.183   0.008  0.00  0.00     0.084 H 
ATOM     13  H3  <0> d           3.609   3.218  -0.015  0.00  0.00     0.085 H 
ATOM     14  H4  <0> d           5.706   1.929  -0.041  0.00  0.00     0.085 H 
ATOM     15  H5  <0> d           5.635  -0.529  -0.054  0.00  0.00     0.114 H 
ATOM     16  H6  <0> d          -0.931  -0.549   0.008  0.00  0.00     0.087 H 
ENDROOT
BRANCH   9  17
ATOM     17  O1  <0> d           1.181  -2.050  -0.021  0.00  0.00    -0.358 OA
ATOM     18  H7  <0> d           1.189  -2.448   0.860  0.00  0.00     0.217 HD
ENDBRANCH   9  17
TORSDOF 1
