REMARK  5 active torsions:
REMARK  status: ('A' for Active; 'I' for Inactive)
REMARK    1  A    between atoms: C1_1  and  C2_2 
REMARK    2  A    between atoms: C2_2  and  O1_3 
REMARK    3  A    between atoms: O1_3  and  C3_4 
REMARK       I    between atoms: C3_4  and  N1_6 
REMARK    4  A    between atoms: N1_6  and  C4_7 
REMARK    5  A    between atoms: C4_7  and  C5_8 
ROOT
ATOM      1  C3  <0> d          -0.016   1.344   0.009  0.00  0.00     0.360 C 
ATOM      2  O2  <0> d           1.028   1.965   0.003  0.00  0.00    -0.239 OA
ATOM      3  N1  <0> d           0.002  -0.004   0.002  0.00  0.00    -0.327 N 
ATOM      4  H6  <0> d          -0.831  -0.500   0.007  0.00  0.00     0.165 HD
ENDROOT
BRANCH   1   5
ATOM      5  O1  <0> d          -1.191   2.001   0.019  0.00  0.00    -0.304 OA
BRANCH   5   6
ATOM      6  C2  <0> d          -1.135   3.452   0.026  0.00  0.00     0.027 C 
ATOM      7  H4  <0> d          -0.603   3.790   0.915  0.00  0.00     0.074 H 
ATOM      8  H5  <0> d          -0.612   3.800  -0.864  0.00  0.00     0.074 H 
BRANCH   6   9
ATOM      9  C1  <0> d          -2.557   4.017   0.036  0.00  0.00    -0.056 C 
ATOM     10  H1  <0> d          -3.088   3.679  -0.853  0.00  0.00     0.030 H 
ATOM     11  H2  <0> d          -3.080   3.669   0.927  0.00  0.00     0.030 H 
ATOM     12  H3  <0> d          -2.514   5.106   0.042  0.00  0.00     0.030 H 
ENDBRANCH   6   9
ENDBRANCH   5   6
ENDBRANCH   1   5
BRANCH   3  13
ATOM     13  C4  <0> d           1.281  -0.719  -0.014  0.00  0.00     0.077 C 
ATOM     14  H7  <0> d           1.840  -0.443  -0.908  0.00  0.00     0.080 H 
ATOM     15  H8  <0> d           1.857  -0.453   0.872  0.00  0.00     0.080 H 
BRANCH  13  16
ATOM     16  C5  <0> d           1.025  -2.204  -0.020  0.00  0.00     0.191 C 
ATOM     17  O3  <0> d          -0.108  -2.623  -0.011  0.00  0.00    -0.647 OA
ATOM     18  O4  <0> d           2.057  -3.063  -0.034  0.00  0.00    -0.647 OA
ENDBRANCH  13  16
ENDBRANCH   3  13
TORSDOF 5
