REMARK  7 active torsions:
REMARK  status: ('A' for Active; 'I' for Inactive)
REMARK    1  A    between atoms: C1_1  and  C2_2 
REMARK    2  A    between atoms: C2_2  and  C3_3 
REMARK    3  A    between atoms: C4_4  and  C5_5 
REMARK    4  A    between atoms: C4_4  and  C6_6 
REMARK    5  A    between atoms: C6_6  and  C7_8 
REMARK    6  A    between atoms: C6_6  and  O1_10 
REMARK    7  A    between atoms: C7_8  and  C8_9 
ROOT
ATOM      1  C3  <0> d           2.560   2.017   2.029  0.00  0.00    -0.099 C 
ATOM      2  C4  <0> d           2.126   1.130   1.168  0.00  0.00    -0.059 C 
ATOM      3  H7  <0> d           2.301   3.058   1.908  0.00  0.00     0.077 H 
ENDROOT
BRANCH   2   4
ATOM      4  C5  <0> d           2.382  -0.336   1.403  0.00  0.00    -0.052 C 
ATOM      5  H8  <0> d           1.875  -0.921   0.636  0.00  0.00     0.033 H 
ATOM      6  H9  <0> d           3.454  -0.530   1.357  0.00  0.00     0.033 H 
ATOM      7  H10 <0> d           2.003  -0.619   2.385  0.00  0.00     0.033 H 
ENDBRANCH   2   4
BRANCH   2   8
ATOM      8  C6  <0> d           1.370   1.576  -0.057  0.00  0.00     0.056 C 
ATOM      9  H1  <0> d           1.206   2.653  -0.011  0.00  0.00     0.090 H 
BRANCH   8  10
ATOM     10  C7  <0> d           2.182   1.237  -1.309  0.00  0.00    -0.041 C 
ATOM     11  H11 <0> d           3.176   1.677  -1.227  0.00  0.00     0.036 H 
ATOM     12  H12 <0> d           2.270   0.154  -1.403  0.00  0.00     0.036 H 
BRANCH  10  13
ATOM     13  C8  <0> d           1.475   1.800  -2.543  0.00  0.00    -0.074 C 
ATOM     14  H13 <0> d           0.480   1.360  -2.625  0.00  0.00     0.027 H 
ATOM     15  H14 <0> d           1.387   2.882  -2.450  0.00  0.00     0.027 H 
ATOM     16  H15 <0> d           2.053   1.558  -3.435  0.00  0.00     0.027 H 
ENDBRANCH  10  13
ENDBRANCH   8  10
BRANCH   8  17
ATOM     17  O1  <0> d           0.110   0.904  -0.110  0.00  0.00    -0.391 OA
ATOM     18  H16 <0> d           0.179  -0.059  -0.153  0.00  0.00     0.210 HD
ENDBRANCH   8  17
ENDBRANCH   2   8
BRANCH   1  19
ATOM     19  C2  <0> d           3.421   1.584   3.188  0.00  0.00    -0.053 C 
ATOM     20  H5  <0> d           2.885   1.754   4.122  0.00  0.00     0.038 H 
ATOM     21  H6  <0> d           3.654   0.523   3.091  0.00  0.00     0.038 H 
BRANCH  19  22
ATOM     22  C1  <0> d           4.719   2.393   3.189  0.00  0.00    -0.073 C 
ATOM     23  H2  <0> d           4.486   3.453   3.286  0.00  0.00     0.027 H 
ATOM     24  H3  <0> d           5.341   2.080   4.027  0.00  0.00     0.027 H 
ATOM     25  H4  <0> d           5.255   2.222   2.255  0.00  0.00     0.027 H 
ENDBRANCH  19  22
ENDBRANCH   1  19
TORSDOF 7
