REMARK  5 active torsions:
REMARK  status: ('A' for Active; 'I' for Inactive)
REMARK    1  A    between atoms: C1_1  and  C2_2 
REMARK    2  A    between atoms: C2_2  and  C3_4 
REMARK    3  A    between atoms: C2_2  and  O3_8 
REMARK    4  A    between atoms: C3_4  and  O2_6 
REMARK    5  A    between atoms: O2_6  and  C4_7 
ROOT
ATOM      1  C2  <0> d          -1.329   1.940   0.019  0.00  0.00     0.115 C 
ATOM      2  H1  <0> d          -1.400   2.570  -0.867  0.00  0.00     0.098 H 
ENDROOT
BRANCH   1   3
ATOM      3  C1  <0> d          -1.417   2.811   1.273  0.00  0.00    -0.044 C 
ATOM      4  H2  <0> d          -0.598   3.531   1.273  0.00  0.00     0.031 H 
ATOM      5  H3  <0> d          -2.368   3.344   1.281  0.00  0.00     0.031 H 
ATOM      6  H4  <0> d          -1.346   2.181   2.160  0.00  0.00     0.031 H 
ENDBRANCH   1   3
BRANCH   1   7
ATOM      7  C3  <0> d          -0.014   1.204   0.009  0.00  0.00     0.287 C 
ATOM      8  O1  <0> d           0.002  -0.004   0.002  0.00  0.00    -0.262 OA
BRANCH   7   9
ATOM      9  O2  <0> d           1.139   1.891   0.001  0.00  0.00    -0.324 OA
BRANCH   9  10
ATOM     10  C4  <0> d           2.367   1.117  -0.015  0.00  0.00     0.013 C 
ATOM     11  H5  <0> d           2.392   0.493  -0.908  0.00  0.00     0.067 H 
ATOM     12  H6  <0> d           3.223   1.792  -0.019  0.00  0.00     0.067 H 
ATOM     13  H7  <0> d           2.409   0.484   0.872  0.00  0.00     0.067 H 
ENDBRANCH   9  10
ENDBRANCH   7   9
ENDBRANCH   1   7
BRANCH   1  14
ATOM     14  O3  <0> d          -2.403   0.997   0.019  0.00  0.00    -0.386 OA
ATOM     15  H8  <0> d          -3.281   1.400   0.025  0.00  0.00     0.210 HD
ENDBRANCH   1  14
TORSDOF 5
