REMARK  3 active torsions:
REMARK  status: ('A' for Active; 'I' for Inactive)
REMARK    1  A    between atoms: C1_1  and  C2_2 
REMARK    2  A    between atoms: C4_4  and  C7_8 
REMARK    3  A    between atoms: C5_6  and  C6_7 
ROOT
ATOM      1  C2  <0> d           1.258   1.788  -0.000  0.00  0.00    -0.030 A 
ATOM      2  C3  <0> d           2.096   0.662  -0.014  0.00  0.00    -0.035 A 
ATOM      3  C4  <0> d           1.281  -0.434  -0.013  0.00  0.00     0.152 A 
ATOM      4  O1  <0> d           0.002  -0.004   0.002  0.00  0.00    -0.308 OA
ATOM      5  C5  <0> d          -0.016   1.335   0.009  0.00  0.00     0.056 A 
ATOM      6  H4  <0> d           3.176   0.663  -0.024  0.00  0.00     0.089 H 
ENDROOT
BRANCH   1   7
ATOM      7  C1  <0> d           1.695   3.230   0.003  0.00  0.00    -0.049 C 
ATOM      8  H1  <0> d           1.810   3.572   1.031  0.00  0.00     0.033 H 
ATOM      9  H2  <0> d           2.647   3.321  -0.520  0.00  0.00     0.033 H 
ATOM     10  H3  <0> d           0.944   3.838  -0.501  0.00  0.00     0.033 H 
ENDBRANCH   1   7
BRANCH   5  11
ATOM     11  C6  <0> d          -1.253   2.196   0.020  0.00  0.00    -0.031 C 
ATOM     12  H5  <0> d          -2.138   1.560   0.022  0.00  0.00     0.036 H 
ATOM     13  H6  <0> d          -1.253   2.820   0.913  0.00  0.00     0.036 H 
ATOM     14  H7  <0> d          -1.262   2.829  -0.867  0.00  0.00     0.036 H 
ENDBRANCH   5  11
BRANCH   3  15
ATOM     15  C7  <0> d           1.719  -1.832  -0.025  0.00  0.00     0.234 C 
ATOM     16  O2  <0> d           2.905  -2.098  -0.038  0.00  0.00    -0.642 OA
ATOM     17  O3  <0> d           0.805  -2.825  -0.021  0.00  0.00    -0.642 OA
ENDBRANCH   3  15
TORSDOF 3
