REMARK  6 active torsions:
REMARK  status: ('A' for Active; 'I' for Inactive)
REMARK    1  A    between atoms: C1_1  and  C2_2 
REMARK    2  A    between atoms: C2_2  and  O1_3 
REMARK    3  A    between atoms: O1_3  and  C3_4 
REMARK    4  A    between atoms: C3_4  and  O2_5 
REMARK    5  A    between atoms: O2_5  and  C4_6 
REMARK    6  A    between atoms: C4_6  and  C5_7 
ROOT
ATOM      1  C3  <0> d          -0.114   1.152  -2.386  0.00  0.00     0.102 C 
ATOM      2  H6  <0> d          -0.521   1.754  -3.198  0.00  0.00     0.117 H 
ATOM      3  H7  <0> d           0.966   1.292  -2.336  0.00  0.00     0.117 H 
ENDROOT
BRANCH   1   4
ATOM      4  O1  <0> d          -0.704   1.559  -1.150  0.00  0.00    -0.367 OA
BRANCH   4   5
ATOM      5  C2  <0> d          -0.013   1.086   0.008  0.00  0.00     0.019 C 
ATOM      6  H4  <0> d           0.002  -0.004   0.002  0.00  0.00     0.073 H 
ATOM      7  H5  <0> d           1.010   1.463   0.000  0.00  0.00     0.073 H 
BRANCH   5   8
ATOM      8  C1  <0> d          -0.729   1.579   1.267  0.00  0.00    -0.056 C 
ATOM      9  H1  <0> d          -1.751   1.202   1.275  0.00  0.00     0.030 H 
ATOM     10  H2  <0> d          -0.202   1.218   2.150  0.00  0.00     0.030 H 
ATOM     11  H3  <0> d          -0.744   2.669   1.273  0.00  0.00     0.030 H 
ENDBRANCH   5   8
ENDBRANCH   4   5
ENDBRANCH   1   4
BRANCH   1  12
ATOM     12  O2  <0> d          -0.405  -0.227  -2.622  0.00  0.00    -0.367 OA
BRANCH  12  13
ATOM     13  C4  <0> d          -1.750  -0.474  -3.038  0.00  0.00     0.019 C 
ATOM     14  H8  <0> d          -2.438  -0.127  -2.268  0.00  0.00     0.073 H 
ATOM     15  H9  <0> d          -1.946   0.060  -3.968  0.00  0.00     0.073 H 
BRANCH  13  16
ATOM     16  C5  <0> d          -1.947  -1.975  -3.260  0.00  0.00    -0.056 C 
ATOM     17  H10 <0> d          -1.751  -2.508  -2.330  0.00  0.00     0.030 H 
ATOM     18  H11 <0> d          -2.973  -2.163  -3.578  0.00  0.00     0.030 H 
ATOM     19  H12 <0> d          -1.258  -2.321  -4.031  0.00  0.00     0.030 H 
ENDBRANCH  13  16
ENDBRANCH  12  13
ENDBRANCH   1  12
TORSDOF 6
