REMARK  1 active torsions:
REMARK  status: ('A' for Active; 'I' for Inactive)
REMARK    1  A    between atoms: C5_5  and  N1_8 
ROOT
ATOM      1  C1  <0> d           0.002  -0.004   0.002  0.00  0.00    -0.023 A 
ATOM      2  C2  <0> d          -0.017   1.394   0.010  0.00  0.00     0.050 A 
ATOM      3  C3  <0> d           1.186   2.107   0.002  0.00  0.00    -0.023 A 
ATOM      4  C4  <0> d           2.387   1.429  -0.012  0.00  0.00     0.147 A 
ATOM      5  C5  <0> d           2.402   0.037  -0.020  0.00  0.00     0.104 A 
ATOM      6  C6  <0> d           1.206  -0.676  -0.013  0.00  0.00     0.147 A 
ATOM      7  F1  <0> d           1.225  -2.027  -0.021  0.00  0.00    -0.204 F 
ATOM      8  F2  <0> d           3.549   2.118  -0.018  0.00  0.00    -0.204 F 
ATOM      9  C7  <0> d          -1.266   2.094   0.019  0.00  0.00     0.099 C 
ATOM     10  N2  <0> d          -2.257   2.650   0.027  0.00  0.00    -0.191 NA
ATOM     11  H1  <0> d          -0.925  -0.557   0.007  0.00  0.00     0.090 H 
ATOM     12  H2  <0> d           1.174   3.186   0.008  0.00  0.00     0.090 H 
ENDROOT
BRANCH   5  13
ATOM     13  N1  <0> d           3.619  -0.645  -0.035  0.00  0.00    -0.394 N 
ATOM     14  H3  <0> d           3.631  -1.615  -0.040  0.00  0.00     0.156 HD
ATOM     15  H4  <0> d           4.453  -0.150  -0.040  0.00  0.00     0.156 HD
ENDBRANCH   5  13
TORSDOF 1
