REMARK  2 active torsions:
REMARK  status: ('A' for Active; 'I' for Inactive)
REMARK    1  A    between atoms: C1_1  and  C2_2 
REMARK    2  A    between atoms: C5_6  and  N5_11 
ROOT
ATOM      1  C2  <0> d           0.002  -0.004   0.002  0.00  0.00     0.051 A 
ATOM      2  C3  <0> d          -1.208  -0.717   0.004  0.00  0.00    -0.042 A 
ATOM      3  C4  <0> d          -1.183  -2.071  -0.004  0.00  0.00     0.022 A 
ATOM      4  N1  <0> d           0.024  -2.710  -0.013  0.00  0.00     0.020 N 
ATOM      5  C5  <0> d           0.402  -4.020  -0.021  0.00  0.00     0.738 A 
ATOM      6  N2  <0> d           1.714  -4.047  -0.028  0.00  0.00     0.059 NA
ATOM      7  N3  <0> d           2.185  -2.850  -0.024  0.00  0.00     0.061 NA
ATOM      8  C6  <0> d           1.193  -1.979  -0.014  0.00  0.00     0.766 A 
ATOM      9  N4  <0> d           1.150  -0.639  -0.012  0.00  0.00    -0.065 NA
ATOM     10  H4  <0> d          -2.151  -0.190   0.012  0.00  0.00     0.088 H 
ATOM     11  H5  <0> d          -2.103  -2.637  -0.002  0.00  0.00     0.114 H 
ENDROOT
BRANCH   1  12
ATOM     12  C1  <0> d          -0.018   1.503   0.010  0.00  0.00    -0.035 C 
ATOM     13  H1  <0> d           1.004   1.880   0.003  0.00  0.00     0.035 H 
ATOM     14  H2  <0> d          -0.545   1.864  -0.873  0.00  0.00     0.035 H 
ATOM     15  H3  <0> d          -0.529   1.854   0.907  0.00  0.00     0.035 H 
ENDBRANCH   1  12
BRANCH   5  16
ATOM     16  N5  <0> d          -0.446  -5.123  -0.023  0.00  0.00    -0.230 N 
ATOM     17  H6  <0> d          -1.408  -4.996  -0.017  0.00  0.00     0.174 HD
ATOM     18  H7  <0> d          -0.076  -6.019  -0.029  0.00  0.00     0.174 HD
ENDBRANCH   5  16
TORSDOF 2
