REMARK  4 active torsions:
REMARK  status: ('A' for Active; 'I' for Inactive)
REMARK    1  A    between atoms: C1_1  and  C2_2 
REMARK    2  A    between atoms: C2_2  and  C3_4 
REMARK    3  A    between atoms: C2_2  and  O1_11 
REMARK    4  A    between atoms: C3_4  and  C4_5 
ROOT
ATOM      1  C3  <0> d           2.040   1.127  -1.261  0.00  0.00     0.000 C 
ATOM      2  H5  <0> d           3.059   1.512  -1.225  0.00  0.00     0.046 H 
ATOM      3  H6  <0> d           2.063   0.039  -1.313  0.00  0.00     0.046 H 
ENDROOT
BRANCH   1   4
ATOM      4  C2  <0> d           1.286   1.562  -0.002  0.00  0.00     0.037 C 
ATOM      5  H1  <0> d           1.186   2.647   0.005  0.00  0.00     0.082 H 
BRANCH   4   6
ATOM      6  C1  <0> d           2.064   1.114   1.238  0.00  0.00    -0.052 C 
ATOM      7  H2  <0> d           2.164   0.029   1.231  0.00  0.00     0.030 H 
ATOM      8  H3  <0> d           3.053   1.571   1.231  0.00  0.00     0.030 H 
ATOM      9  H4  <0> d           1.527   1.423   2.135  0.00  0.00     0.030 H 
ENDBRANCH   4   6
BRANCH   4  10
ATOM     10  O1  <0> d          -0.011   0.963   0.007  0.00  0.00    -0.396 OA
ATOM     11  H10 <0> d           0.002  -0.004   0.002  0.00  0.00     0.210 HD
ENDBRANCH   4  10
ENDBRANCH   1   4
BRANCH   1  12
ATOM     12  C4  <0> d           1.340   1.673  -2.478  0.00  0.00     0.054 A 
ATOM     13  N2  <0> d           0.058   1.419  -2.673  0.00  0.00    -0.263 NA
ATOM     14  C7  <0> d          -0.556   1.899  -3.741  0.00  0.00     0.019 A 
ATOM     15  C6  <0> d           0.144   2.667  -4.654  0.00  0.00     0.019 A 
ATOM     16  H9  <0> d          -1.603   1.691  -3.901  0.00  0.00     0.117 H 
ATOM     17  N1  <0> d           1.426   2.921  -4.460  0.00  0.00    -0.270 NA
ATOM     18  H8  <0> d          -0.358   3.059  -5.527  0.00  0.00     0.117 H 
ATOM     19  C5  <0> d           2.038   2.446  -3.390  0.00  0.00     0.026 A 
ATOM     20  H7  <0> d           3.085   2.658  -3.228  0.00  0.00     0.117 H 
ENDBRANCH   1  12
TORSDOF 4
