REMARK  1 active torsions:
REMARK  status: ('A' for Active; 'I' for Inactive)
REMARK    1  A    between atoms: C1_1  and  N1_2 
ROOT
ATOM      1  N1  <0> d           0.002  -0.004   0.002  0.00  0.00    -0.282 N 
ATOM      2  C2  <0> d           0.007  -0.766  -1.099  0.00  0.00     0.016 A 
ATOM      3  C3  <0> d           0.027  -2.084  -0.699  0.00  0.00     0.090 A 
ATOM      4  C4  <0> d           0.041  -3.349  -1.334  0.00  0.00     0.238 A 
ATOM      5  O1  <0> d           0.037  -3.457  -2.682  0.00  0.00    -0.167 OA
ATOM      6  N2  <0> d           0.059  -4.424  -0.559  0.00  0.00    -0.101 NA
ATOM      7  N3  <0> d           0.064  -4.358   0.719  0.00  0.00    -0.039 NA
ATOM      8  N4  <0> d           0.052  -3.268   1.400  0.00  0.00    -0.107 NA
ATOM      9  C5  <0> d           0.034  -2.076   0.776  0.00  0.00     0.208 A 
ATOM     10  N5  <0> d           0.024  -0.814   1.144  0.00  0.00    -0.150 NA
ATOM     11  H4  <0> d          -0.003  -0.411  -2.119  0.00  0.00     0.115 H 
ENDROOT
BRANCH   1  12
ATOM     12  C1  <0> d          -0.018   1.461   0.010  0.00  0.00     0.002 C 
ATOM     13  H1  <0> d           1.005   1.838   0.002  0.00  0.00     0.059 H 
ATOM     14  H2  <0> d          -0.545   1.822  -0.873  0.00  0.00     0.059 H 
ATOM     15  H3  <0> d          -0.528   1.812   0.907  0.00  0.00     0.059 H 
ENDBRANCH   1  12
TORSDOF 1
