REMARK  1 active torsions:
REMARK  status: ('A' for Active; 'I' for Inactive)
REMARK    1  A    between atoms: C3_3  and  N1_8 
REMARK       I    between atoms: N1_8  and  C7_9 
REMARK       I    between atoms: C7_9  and  N2_11 
ROOT
ATOM      1  C1  <0> d          -3.442  -1.026   0.287  0.00  0.00    -0.078 A 
ATOM      2  C2  <0> d          -2.285  -0.276   0.192  0.00  0.00    -0.057 A 
ATOM      3  C3  <0> d          -2.361   1.108   0.110  0.00  0.00     0.039 A 
ATOM      4  C4  <0> d          -3.600   1.735   0.113  0.00  0.00    -0.020 A 
ATOM      5  C5  <0> d          -4.755   0.979   0.204  0.00  0.00     0.118 A 
ATOM      6  C6  <0> d          -4.675  -0.402   0.291  0.00  0.00    -0.046 A 
ATOM      7  F1  <0> d          -5.961   1.587   0.207  0.00  0.00    -0.206 F 
ATOM      8  H1  <0> d          -3.382  -2.102   0.355  0.00  0.00     0.083 H 
ATOM      9  H2  <0> d          -1.323  -0.766   0.185  0.00  0.00     0.086 H 
ATOM     10  H3  <0> d          -3.662   2.811   0.045  0.00  0.00     0.091 H 
ATOM     11  H4  <0> d          -5.577  -0.991   0.361  0.00  0.00     0.088 H 
ENDROOT
BRANCH   3  12
ATOM     12  N1  <0> d          -1.191   1.870   0.018  0.00  0.00    -0.309 N 
ATOM     13  C7  <0> d          -1.125   3.079   0.609  0.00  0.00     0.318 C 
ATOM     14  O1  <0> d          -2.110   3.545   1.151  0.00  0.00    -0.247 OA
ATOM     15  N2  <0> d           0.032   3.769   0.606  0.00  0.00    -0.352 N 
ATOM     16  H6  <0> d           0.080   4.638   1.035  0.00  0.00     0.160 HD
ATOM     17  H7  <0> d           0.817   3.398   0.174  0.00  0.00     0.160 HD
ATOM     18  H5  <0> d          -0.426   1.527  -0.471  0.00  0.00     0.170 HD
ENDBRANCH   3  12
TORSDOF 1
