REMARK  2 active torsions:
REMARK  status: ('A' for Active; 'I' for Inactive)
REMARK    1  A    between atoms: C3_3  and  C7_10 
REMARK    2  A    between atoms: C4_5  and  C6_8 
ROOT
ATOM      1  C1  <0> d          -0.013   1.086   0.008  0.00  0.00    -0.063 C 
ATOM      2  C2  <0> d          -0.763   1.597   1.255  0.00  0.00    -0.052 C 
ATOM      3  C3  <0> d          -2.207   1.850   0.751  0.00  0.00     0.043 C 
ATOM      4  H1  <0> d          -2.770   0.918   0.707  0.00  0.00     0.058 H 
ATOM      5  C4  <0> d          -1.978   2.421  -0.670  0.00  0.00     0.043 C 
ATOM      6  H2  <0> d          -1.728   3.480  -0.621  0.00  0.00     0.058 H 
ATOM      7  C5  <0> d          -0.784   1.609  -1.216  0.00  0.00    -0.052 C 
ATOM      8  H3  <0> d           0.002  -0.004   0.002  0.00  0.00     0.033 H 
ATOM      9  H4  <0> d           1.006   1.473   0.000  0.00  0.00     0.033 H 
ATOM     10  H5  <0> d          -0.759   0.841   2.040  0.00  0.00     0.034 H 
ATOM     11  H6  <0> d          -0.317   2.524   1.615  0.00  0.00     0.034 H 
ATOM     12  H7  <0> d          -0.140   2.251  -1.817  0.00  0.00     0.034 H 
ATOM     13  H8  <0> d          -1.144   0.773  -1.816  0.00  0.00     0.034 H 
ENDROOT
BRANCH   3  14
ATOM     14  C7  <0> d          -2.908   2.858   1.625  0.00  0.00     0.177 C 
ATOM     15  O2  <0> d          -3.208   3.940   1.177  0.00  0.00    -0.648 OA
ATOM     16  O4  <0> d          -3.199   2.555   2.899  0.00  0.00    -0.648 OA
ENDBRANCH   3  14
BRANCH   5  17
ATOM     17  C6  <0> d          -3.198   2.205  -1.528  0.00  0.00     0.177 C 
ATOM     18  O1  <0> d          -4.193   1.713  -1.050  0.00  0.00    -0.648 OA
ATOM     19  O3  <0> d          -3.180   2.559  -2.823  0.00  0.00    -0.648 OA
ENDBRANCH   5  17
TORSDOF 2
