REMARK  5 active torsions:
REMARK  status: ('A' for Active; 'I' for Inactive)
REMARK    1  A    between atoms: C1_1  and  C2_2 
REMARK    2  A    between atoms: C1_1  and  C4_5 
REMARK    3  A    between atoms: C2_2  and  C3_3 
REMARK    4  A    between atoms: C4_5  and  C5_7 
REMARK    5  A    between atoms: C4_5  and  O3_9 
ROOT
ATOM      1  C1  <0> d           0.658   3.620   1.323  0.00  0.00    -0.023 C 
ATOM      2  H2  <0> d          -0.347   3.224   1.463  0.00  0.00     0.038 H 
ATOM      3  H3  <0> d           1.292   3.303   2.150  0.00  0.00     0.038 H 
ENDROOT
BRANCH   1   4
ATOM      4  C2  <0> d           0.602   5.149   1.280  0.00  0.00     0.018 C 
ATOM      5  H4  <0> d           1.608   5.545   1.140  0.00  0.00     0.049 H 
ATOM      6  H5  <0> d          -0.032   5.466   0.452  0.00  0.00     0.049 H 
BRANCH   4   7
ATOM      7  C3  <0> d           0.034   5.667   2.576  0.00  0.00     0.172 C 
ATOM      8  O1  <0> d          -0.293   4.894   3.445  0.00  0.00    -0.648 OA
ATOM      9  O4  <0> d          -0.109   6.988   2.765  0.00  0.00    -0.648 OA
ENDBRANCH   4   7
ENDBRANCH   1   4
BRANCH   1  10
ATOM     10  C4  <0> d           1.235   3.094   0.007  0.00  0.00     0.119 C 
ATOM     11  H1  <0> d           0.652   3.485  -0.827  0.00  0.00     0.100 H 
BRANCH  10  12
ATOM     12  C5  <0> d           1.177   1.588  -0.001  0.00  0.00     0.203 C 
ATOM     13  O2  <0> d           2.199   0.944  -0.014  0.00  0.00    -0.646 OA
ATOM     14  O5  <0> d          -0.011   0.963   0.007  0.00  0.00    -0.646 OA
ENDBRANCH  10  12
BRANCH  10  15
ATOM     15  O3  <0> d           2.593   3.519  -0.121  0.00  0.00    -0.385 OA
ATOM     16  H6  <0> d           3.171   3.207   0.589  0.00  0.00     0.210 HD
ENDBRANCH  10  15
ENDBRANCH   1  10
TORSDOF 5
