REMARK  7 active torsions:
REMARK  status: ('A' for Active; 'I' for Inactive)
REMARK    1  A    between atoms: C1_1  and  C2_2 
REMARK    2  A    between atoms: C3_3  and  C4_4 
REMARK    3  A    between atoms: C4_4  and  C5_5 
REMARK    4  A    between atoms: C4_4  and  C6_6 
REMARK    5  A    between atoms: C4_4  and  O1_9 
REMARK    6  A    between atoms: C6_6  and  C7_7 
REMARK    7  A    between atoms: C6_6  and  C8_8 
ROOT
ATOM      1  C4  <0> d          -0.018   1.468   0.010  0.00  0.00     0.120 C 
ENDROOT
BRANCH   1   2
ATOM      2  C3  <0> d           0.002  -0.004   0.002  0.00  0.00    -0.069 C 
ATOM      3  C2  <0> d           0.018  -1.178  -0.004  0.00  0.00    -0.108 C 
BRANCH   3   4
ATOM      4  C1  <0> d           0.038  -2.650  -0.013  0.00  0.00    -0.021 C 
ATOM      5  H1  <0> d          -0.985  -3.027  -0.005  0.00  0.00     0.044 H 
ATOM      6  H2  <0> d           0.548  -3.001  -0.909  0.00  0.00     0.044 H 
ATOM      7  H3  <0> d           0.565  -3.011   0.871  0.00  0.00     0.044 H 
ENDBRANCH   3   4
ENDBRANCH   1   2
BRANCH   1   8
ATOM      8  C5  <0> d           1.417   1.997  -0.001  0.00  0.00    -0.037 C 
ATOM      9  H4  <0> d           1.928   1.646  -0.897  0.00  0.00     0.033 H 
ATOM     10  H5  <0> d           1.403   3.087   0.005  0.00  0.00     0.033 H 
ATOM     11  H6  <0> d           1.945   1.636   0.882  0.00  0.00     0.033 H 
ENDBRANCH   1   8
BRANCH   1  12
ATOM     12  C6  <0> d          -0.734   1.961   1.269  0.00  0.00    -0.021 C 
ATOM     13  H7  <0> d          -1.757   1.584   1.277  0.00  0.00     0.044 H 
BRANCH  12  14
ATOM     14  C7  <0> d           0.006   1.454   2.508  0.00  0.00    -0.070 C 
ATOM     15  H8  <0> d          -0.504   1.806   3.405  0.00  0.00     0.028 H 
ATOM     16  H9  <0> d           0.021   0.364   2.502  0.00  0.00     0.028 H 
ATOM     17  H10 <0> d           1.029   1.832   2.501  0.00  0.00     0.028 H 
ENDBRANCH  12  14
BRANCH  12  18
ATOM     18  C8  <0> d          -0.755   3.491   1.277  0.00  0.00    -0.070 C 
ATOM     19  H11 <0> d          -1.282   3.852   0.394  0.00  0.00     0.028 H 
ATOM     20  H12 <0> d          -1.265   3.843   2.174  0.00  0.00     0.028 H 
ATOM     21  H13 <0> d           0.268   3.868   1.270  0.00  0.00     0.028 H 
ENDBRANCH  12  18
ENDBRANCH   1  12
BRANCH   1  22
ATOM     22  O1  <0> d          -0.709   1.941  -1.148  0.00  0.00    -0.378 OA
ATOM     23  H14 <0> d          -1.627   1.644  -1.206  0.00  0.00     0.211 HD
ENDBRANCH   1  22
TORSDOF 7
