REMARK  3 active torsions:
REMARK  status: ('A' for Active; 'I' for Inactive)
REMARK    1  A    between atoms: C1_1  and  O1_2 
REMARK    2  A    between atoms: O1_2  and  C2_3 
REMARK    3  A    between atoms: C6_8  and  O2_11 
ROOT
ATOM      1  C2  <0> d          -1.413  -2.063   0.004  0.00  0.00     0.040 C 
ATOM      2  H1  <0> d          -0.885  -2.425   0.887  0.00  0.00     0.083 H 
ATOM      3  C3  <0> d          -0.696  -2.557  -1.254  0.00  0.00    -0.041 C 
ATOM      4  C4  <0> d           0.739  -2.027  -1.265  0.00  0.00    -0.060 C 
ATOM      5  C5  <0> d           0.718  -0.497  -1.257  0.00  0.00    -0.041 C 
ATOM      6  C6  <0> d           0.002  -0.004   0.002  0.00  0.00     0.038 C 
ATOM      7  H2  <0> d           0.529  -0.365   0.885  0.00  0.00     0.083 H 
ATOM      8  C7  <0> d          -1.433  -0.534   0.013  0.00  0.00    -0.017 C 
ATOM      9  H6  <0> d          -1.224  -2.196  -2.137  0.00  0.00     0.036 H 
ATOM     10  H7  <0> d          -0.682  -3.647  -1.260  0.00  0.00     0.036 H 
ATOM     11  H8  <0> d           1.249  -2.379  -2.162  0.00  0.00     0.033 H 
ATOM     12  H9  <0> d           1.266  -2.388  -0.382  0.00  0.00     0.033 H 
ATOM     13  H10 <0> d           0.191  -0.136  -2.140  0.00  0.00     0.036 H 
ATOM     14  H11 <0> d           1.741  -0.120  -1.264  0.00  0.00     0.036 H 
ATOM     15  H12 <0> d          -1.944  -0.182   0.910  0.00  0.00     0.040 H 
ATOM     16  H13 <0> d          -1.960  -0.173  -0.870  0.00  0.00     0.040 H 
ENDROOT
BRANCH   1  17
ATOM     17  O1  <0> d          -2.753  -2.558   0.015  0.00  0.00    -0.391 OA
BRANCH  17  18
ATOM     18  C1  <0> d          -2.901  -3.824   0.662  0.00  0.00     0.004 C 
ATOM     19  H3  <0> d          -2.581  -3.740   1.701  0.00  0.00     0.066 H 
ATOM     20  H4  <0> d          -3.947  -4.129   0.627  0.00  0.00     0.066 H 
ATOM     21  H5  <0> d          -2.288  -4.566   0.152  0.00  0.00     0.066 H 
ENDBRANCH  17  18
ENDBRANCH   1  17
BRANCH   6  22
ATOM     22  O2  <0> d          -0.017   1.425   0.010  0.00  0.00    -0.395 OA
ATOM     23  H14 <0> d           0.861   1.830   0.004  0.00  0.00     0.210 HD
ENDBRANCH   6  22
TORSDOF 3
