REMARK  2 active torsions:
REMARK  status: ('A' for Active; 'I' for Inactive)
REMARK    1  A    between atoms: C1_1  and  C2_2 
REMARK    2  A    between atoms: C3_3  and  N3_12 
ROOT
ATOM      1  C2  <0> d          -0.718   1.572   1.248  0.00  0.00     0.050 A 
ATOM      2  C3  <0> d          -0.860   2.911   1.485  0.00  0.00     0.114 A 
ATOM      3  N1  <0> d          -1.511   3.330   2.620  0.00  0.00    -0.294 N 
ATOM      4  H1  <0> d          -1.626   4.307   2.795  0.00  0.00     0.172 HD
ATOM      5  C4  <0> d          -1.997   2.431   3.496  0.00  0.00     0.328 A 
ATOM      6  O1  <0> d          -2.566   2.820   4.498  0.00  0.00    -0.247 OA
ATOM      7  N2  <0> d          -1.862   1.110   3.281  0.00  0.00    -0.275 N 
ATOM      8  H2  <0> d          -2.230   0.460   3.945  0.00  0.00     0.173 HD
ATOM      9  C5  <0> d          -1.234   0.656   2.178  0.00  0.00     0.258 A 
ATOM     10  O2  <0> d          -1.115  -0.542   1.990  0.00  0.00    -0.267 OA
ENDROOT
BRANCH   1  11
ATOM     11  C1  <0> d          -0.013   1.086   0.008  0.00  0.00    -0.043 C 
ATOM     12  H3  <0> d           0.002  -0.004   0.002  0.00  0.00     0.034 H 
ATOM     13  H4  <0> d           1.010   1.463   0.000  0.00  0.00     0.034 H 
ATOM     14  H5  <0> d          -0.540   1.447  -0.875  0.00  0.00     0.034 H 
ENDBRANCH   1  11
BRANCH   2  15
ATOM     15  N3  <0> d          -0.360   3.828   0.596  0.00  0.00    -0.385 N 
ATOM     16  H6  <0> d           0.096   3.527  -0.205  0.00  0.00     0.157 HD
ATOM     17  H7  <0> d          -0.463   4.777   0.769  0.00  0.00     0.157 HD
ENDBRANCH   2  15
TORSDOF 2
