REMARK  4 active torsions:
REMARK  status: ('A' for Active; 'I' for Inactive)
REMARK    1  A    between atoms: C1_1  and  O1_2 
REMARK    2  A    between atoms: O1_2  and  C2_3 
REMARK    3  A    between atoms: C4_5  and  O2_9 
REMARK    4  A    between atoms: O2_9  and  C6_10 
ROOT
ATOM      1  C2  <0> d           1.184   1.790   0.000  0.00  0.00     0.091 A 
ATOM      2  C3  <0> d           1.112   3.181   0.009  0.00  0.00     0.003 A 
ATOM      3  C4  <0> d          -0.148   3.767   0.024  0.00  0.00     0.188 A 
ATOM      4  N1  <0> d          -1.229   3.001   0.030  0.00  0.00    -0.125 NA
ATOM      5  N2  <0> d          -1.161   1.720   0.017  0.00  0.00    -0.157 NA
ATOM      6  C5  <0> d          -0.013   1.076   0.008  0.00  0.00     0.056 A 
ATOM      7  H4  <0> d           2.008   3.785   0.003  0.00  0.00     0.094 H 
ATOM      8  H5  <0> d           0.002  -0.004   0.002  0.00  0.00     0.121 H 
ENDROOT
BRANCH   1   9
ATOM      9  O1  <0> d           2.381   1.151  -0.014  0.00  0.00    -0.354 OA
BRANCH   9  10
ATOM     10  C1  <0> d           2.354  -0.278  -0.021  0.00  0.00     0.010 C 
ATOM     11  H1  <0> d           1.825  -0.627  -0.908  0.00  0.00     0.066 H 
ATOM     12  H2  <0> d           3.374  -0.661  -0.033  0.00  0.00     0.066 H 
ATOM     13  H3  <0> d           1.841  -0.636   0.872  0.00  0.00     0.066 H 
ENDBRANCH   9  10
ENDBRANCH   1   9
BRANCH   3  14
ATOM     14  O2  <0> d          -0.271   5.118   0.033  0.00  0.00    -0.338 OA
BRANCH  14  15
ATOM     15  C6  <0> d          -1.597   5.649   0.048  0.00  0.00     0.012 C 
ATOM     16  H6  <0> d          -1.552   6.738   0.054  0.00  0.00     0.067 H 
ATOM     17  H7  <0> d          -2.134   5.312  -0.839  0.00  0.00     0.067 H 
ATOM     18  H8  <0> d          -2.117   5.302   0.941  0.00  0.00     0.067 H 
ENDBRANCH  14  15
ENDBRANCH   3  14
TORSDOF 4
