REMARK  6 active torsions:
REMARK  status: ('A' for Active; 'I' for Inactive)
REMARK    1  A    between atoms: C1_1  and  C2_2 
REMARK    2  A    between atoms: C2_2  and  C3_4 
REMARK    3  A    between atoms: C2_2  and  C5_7 
REMARK    4  A    between atoms: C3_4  and  C4_5 
REMARK    5  A    between atoms: C4_5  and  O1_6 
REMARK    6  A    between atoms: C5_7  and  O2_8 
ROOT
ATOM      1  C2  <0> d           2.534   3.726  -0.002  0.00  0.00    -0.035 C 
ATOM      2  H1  <0> d           3.119   3.339   0.832  0.00  0.00     0.042 H 
ENDROOT
BRANCH   1   3
ATOM      3  C1  <0> d           3.240   3.394  -1.318  0.00  0.00    -0.071 C 
ATOM      4  H2  <0> d           3.338   2.312  -1.414  0.00  0.00     0.028 H 
ATOM      5  H3  <0> d           2.655   3.781  -2.152  0.00  0.00     0.028 H 
ATOM      6  H4  <0> d           4.230   3.851  -1.325  0.00  0.00     0.028 H 
ENDBRANCH   1   3
BRANCH   1   7
ATOM      7  C3  <0> d           1.145   3.085   0.008  0.00  0.00    -0.041 C 
ATOM      8  H5  <0> d           0.591   3.404  -0.875  0.00  0.00     0.036 H 
ATOM      9  H6  <0> d           0.608   3.395   0.904  0.00  0.00     0.036 H 
BRANCH   7  10
ATOM     10  C4  <0> d           1.286   1.562  -0.002  0.00  0.00     0.017 C 
ATOM     11  H7  <0> d           1.840   1.243   0.881  0.00  0.00     0.073 H 
ATOM     12  H8  <0> d           1.823   1.252  -0.899  0.00  0.00     0.073 H 
BRANCH  10  13
ATOM     13  O1  <0> d          -0.011   0.963   0.007  0.00  0.00    -0.401 OA
ATOM     14  H9  <0> d           0.002  -0.004   0.002  0.00  0.00     0.209 HD
ENDBRANCH  10  13
ENDBRANCH   7  10
ENDBRANCH   1   7
BRANCH   1  15
ATOM     15  C5  <0> d           2.396   5.244   0.133  0.00  0.00     0.020 C 
ATOM     16  H10 <0> d           1.888   5.643  -0.745  0.00  0.00     0.074 H 
ATOM     17  H11 <0> d           1.816   5.478   1.026  0.00  0.00     0.074 H 
BRANCH  15  18
ATOM     18  O2  <0> d           3.694   5.833   0.241  0.00  0.00    -0.400 OA
ATOM     19  H12 <0> d           3.683   6.796   0.330  0.00  0.00     0.209 HD
ENDBRANCH  15  18
ENDBRANCH   1  15
TORSDOF 6
