REMARK  3 active torsions:
REMARK  status: ('A' for Active; 'I' for Inactive)
REMARK    1  A    between atoms: C1_1  and  C2_2 
REMARK    2  A    between atoms: C5_5  and  C7_8 
REMARK    3  A    between atoms: C7_8  and  C8_10 
ROOT
ATOM      1  C2  <0> d           0.826   0.516   5.005  0.00  0.00     0.030 A 
ATOM      2  C3  <0> d          -0.314   1.299   4.965  0.00  0.00    -0.059 A 
ATOM      3  C4  <0> d          -0.845   1.662   3.740  0.00  0.00    -0.066 A 
ATOM      4  C5  <0> d          -0.198   1.216   2.578  0.00  0.00     0.027 A 
ATOM      5  C6  <0> d           0.947   0.423   2.705  0.00  0.00     0.016 A 
ATOM      6  N1  <0> d           1.415   0.111   3.895  0.00  0.00    -0.265 NA
ATOM      7  H4  <0> d          -0.786   1.623   5.881  0.00  0.00     0.086 H 
ATOM      8  H5  <0> d          -1.734   2.272   3.680  0.00  0.00     0.085 H 
ATOM      9  H6  <0> d           1.454   0.068   1.820  0.00  0.00     0.116 H 
ENDROOT
BRANCH   4  10
ATOM     10  C7  <0> d          -0.718   1.572   1.248  0.00  0.00     0.157 C 
ATOM     11  O1  <0> d          -1.714   2.256   1.150  0.00  0.00    -0.293 OA
BRANCH  10  12
ATOM     12  C8  <0> d          -0.013   1.086   0.008  0.00  0.00    -0.017 C 
ATOM     13  H7  <0> d           0.001   0.086   0.003  0.00  0.00     0.038 H 
ATOM     14  H8  <0> d           1.010   1.463   0.000  0.00  0.00     0.038 H 
ATOM     15  H9  <0> d          -0.540   1.447  -0.875  0.00  0.00     0.038 H 
ENDBRANCH  10  12
ENDBRANCH   4  10
BRANCH   1  16
ATOM     16  C1  <0> d           1.406   0.119   6.338  0.00  0.00    -0.035 C 
ATOM     17  H1  <0> d           0.964  -0.824   6.660  0.00  0.00     0.035 H 
ATOM     18  H2  <0> d           2.485   0.001   6.244  0.00  0.00     0.035 H 
ATOM     19  H3  <0> d           1.188   0.893   7.074  0.00  0.00     0.035 H 
ENDBRANCH   1  16
TORSDOF 3
