REMARK  7 active torsions:
REMARK  status: ('A' for Active; 'I' for Inactive)
REMARK    1  A    between atoms: C1_1  and  C2_2 
REMARK    2  A    between atoms: C2_2  and  O1_3 
REMARK    3  A    between atoms: O1_3  and  C3_4 
REMARK    4  A    between atoms: C3_4  and  C4_5 
REMARK    5  A    between atoms: C3_4  and  O2_7 
REMARK    6  A    between atoms: O2_7  and  C6_8 
REMARK    7  A    between atoms: C6_8  and  C7_9 
ROOT
ATOM      1  C4  <0> d           0.550   0.079   0.388  0.00  0.00    -0.057 C 
ATOM      2  C5  <0> d           0.861  -1.046   0.520  0.00  0.00    -0.149 C 
ATOM      3  H7  <0> d           1.138  -2.051   0.639  0.00  0.00     0.166 H 
ENDROOT
BRANCH   1   4
ATOM      4  C3  <0> d           0.161   1.489   0.221  0.00  0.00     0.190 C 
ATOM      5  H6  <0> d           1.038   2.125   0.344  0.00  0.00     0.151 H 
BRANCH   4   6
ATOM      6  O1  <0> d          -0.387   1.680  -1.085  0.00  0.00    -0.351 OA
BRANCH   6   7
ATOM      7  C2  <0> d          -0.178   2.990  -1.617  0.00  0.00     0.020 C 
ATOM      8  H4  <0> d          -0.553   3.733  -0.912  0.00  0.00     0.073 H 
ATOM      9  H5  <0> d           0.888   3.150  -1.780  0.00  0.00     0.073 H 
BRANCH   7  10
ATOM     10  C1  <0> d          -0.924   3.126  -2.945  0.00  0.00    -0.056 C 
ATOM     11  H1  <0> d          -0.765   4.125  -3.351  0.00  0.00     0.030 H 
ATOM     12  H2  <0> d          -0.550   2.384  -3.650  0.00  0.00     0.030 H 
ATOM     13  H3  <0> d          -1.990   2.967  -2.781  0.00  0.00     0.030 H 
ENDBRANCH   7  10
ENDBRANCH   6   7
ENDBRANCH   4   6
BRANCH   4  14
ATOM     14  O2  <0> d          -0.818   1.832   1.204  0.00  0.00    -0.351 OA
BRANCH  14  15
ATOM     15  C6  <0> d          -1.038   3.238   1.338  0.00  0.00     0.020 C 
ATOM     16  H8  <0> d          -0.087   3.740   1.510  0.00  0.00     0.073 H 
ATOM     17  H9  <0> d          -1.493   3.623   0.425  0.00  0.00     0.073 H 
BRANCH  15  18
ATOM     18  C7  <0> d          -1.973   3.496   2.521  0.00  0.00    -0.056 C 
ATOM     19  H10 <0> d          -1.519   3.111   3.434  0.00  0.00     0.030 H 
ATOM     20  H11 <0> d          -2.141   4.568   2.624  0.00  0.00     0.030 H 
ATOM     21  H12 <0> d          -2.925   2.994   2.349  0.00  0.00     0.030 H 
ENDBRANCH  15  18
ENDBRANCH  14  15
ENDBRANCH   4  14
ENDBRANCH   1   4
TORSDOF 7
