REMARK  4 active torsions:
REMARK  status: ('A' for Active; 'I' for Inactive)
REMARK    1  A    between atoms: C1_1  and  C2_2 
REMARK    2  A    between atoms: C2_2  and  C3_3 
REMARK    3  A    between atoms: C3_3  and  N1_4 
REMARK    4  A    between atoms: C6_7  and  N2_8 
ROOT
ATOM      1  N1  <0> d          -0.698   1.558   1.213  0.00  0.00    -0.366 N 
ATOM      2  C4  <0> d          -0.324   2.749   1.751  0.00  0.00    -0.019 A 
ATOM      3  C5  <0> d          -0.921   3.237   2.855  0.00  0.00    -0.041 A 
ATOM      4  C6  <0> d          -1.988   2.447   3.482  0.00  0.00     0.050 A 
ATOM      5  C7  <0> d          -2.344   1.167   2.857  0.00  0.00    -0.041 A 
ATOM      6  C8  <0> d          -1.679   0.784   1.750  0.00  0.00    -0.019 A 
ATOM      7  H8  <0> d           0.466   3.317   1.281  0.00  0.00     0.111 H 
ATOM      8  H9  <0> d          -0.619   4.186   3.272  0.00  0.00     0.089 H 
ATOM      9  H11 <0> d          -3.121   0.545   3.275  0.00  0.00     0.089 H 
ATOM     10  H12 <0> d          -1.929  -0.155   1.279  0.00  0.00     0.111 H 
ENDROOT
BRANCH   1  11
ATOM     11  C3  <0> d          -0.013   1.086   0.008  0.00  0.00    -0.002 C 
ATOM     12  H6  <0> d           0.002  -0.004   0.002  0.00  0.00     0.064 H 
ATOM     13  H7  <0> d           1.010   1.463   0.000  0.00  0.00     0.064 H 
BRANCH  11  14
ATOM     14  C2  <0> d          -0.753   1.593  -1.232  0.00  0.00    -0.053 C 
ATOM     15  H4  <0> d          -1.775   1.215  -1.224  0.00  0.00     0.034 H 
ATOM     16  H5  <0> d          -0.767   2.683  -1.226  0.00  0.00     0.034 H 
BRANCH  14  17
ATOM     17  C1  <0> d          -0.037   1.099  -2.490  0.00  0.00    -0.075 C 
ATOM     18  H1  <0> d           0.986   1.476  -2.498  0.00  0.00     0.027 H 
ATOM     19  H2  <0> d          -0.022   0.009  -2.496  0.00  0.00     0.027 H 
ATOM     20  H3  <0> d          -0.564   1.460  -3.373  0.00  0.00     0.027 H 
ENDBRANCH  14  17
ENDBRANCH  11  14
ENDBRANCH   1  11
BRANCH   4  21
ATOM     21  N2  <0> d          -2.607   2.874   4.569  0.00  0.00    -0.300 NA
ATOM     22  H10 <0> d          -2.359   3.722   4.968  0.00  0.00     0.187 HD
ENDBRANCH   4  21
TORSDOF 4
