REMARK  5 active torsions:
REMARK  status: ('A' for Active; 'I' for Inactive)
REMARK    1  A    between atoms: C1_1  and  N1_2 
REMARK    2  A    between atoms: N1_2  and  C2_3 
REMARK    3  A    between atoms: N1_2  and  C4_6 
REMARK    4  A    between atoms: C2_3  and  C3_4 
REMARK    5  A    between atoms: C3_4  and  O1_5 
ROOT
ATOM      1  N1  <0> d          -0.698   1.558   1.213  0.00  0.00    -0.383 N 
ENDROOT
BRANCH   1   2
ATOM      2  C1  <0> d          -0.323   2.840   1.815  0.00  0.00    -0.018 C 
ATOM      3  H1  <0> d          -0.927   3.636   1.380  0.00  0.00     0.056 H 
ATOM      4  H2  <0> d          -0.494   2.801   2.890  0.00  0.00     0.056 H 
ATOM      5  H3  <0> d           0.732   3.037   1.621  0.00  0.00     0.056 H 
ENDBRANCH   1   2
BRANCH   1   6
ATOM      6  C2  <0> d          -0.013   1.086   0.008  0.00  0.00     0.014 C 
ATOM      7  H4  <0> d           0.002  -0.004   0.002  0.00  0.00     0.067 H 
ATOM      8  H5  <0> d           1.010   1.463   0.000  0.00  0.00     0.067 H 
BRANCH   6   9
ATOM      9  C3  <0> d          -0.753   1.593  -1.232  0.00  0.00     0.031 C 
ATOM     10  H6  <0> d          -0.296   1.169  -2.126  0.00  0.00     0.076 H 
ATOM     11  H7  <0> d          -1.798   1.290  -1.179  0.00  0.00     0.076 H 
BRANCH   9  12
ATOM     12  O1  <0> d          -0.672   3.018  -1.285  0.00  0.00    -0.399 OA
ATOM     13  H8  <0> d          -1.120   3.410  -2.047  0.00  0.00     0.209 HD
ENDBRANCH   9  12
ENDBRANCH   6   9
ENDBRANCH   1   6
BRANCH   1  14
ATOM     14  C4  <0> d          -1.710   0.786   1.789  0.00  0.00     0.029 A 
ATOM     15  C9  <0> d          -2.361   1.233   2.932  0.00  0.00    -0.057 A 
ATOM     16  C8  <0> d          -3.362   0.468   3.498  0.00  0.00    -0.081 A 
ATOM     17  H13 <0> d          -2.086   2.178   3.377  0.00  0.00     0.086 H 
ATOM     18  C7  <0> d          -3.715  -0.742   2.929  0.00  0.00    -0.083 A 
ATOM     19  H12 <0> d          -3.868   0.814   4.387  0.00  0.00     0.083 H 
ATOM     20  C6  <0> d          -3.069  -1.190   1.791  0.00  0.00    -0.081 A 
ATOM     21  H11 <0> d          -4.498  -1.339   3.374  0.00  0.00     0.083 H 
ATOM     22  C5  <0> d          -2.071  -0.427   1.217  0.00  0.00    -0.057 A 
ATOM     23  H10 <0> d          -3.348  -2.135   1.349  0.00  0.00     0.083 H 
ATOM     24  H9  <0> d          -1.570  -0.775   0.326  0.00  0.00     0.086 H 
ENDBRANCH   1  14
TORSDOF 5
