REMARK  2 active torsions:
REMARK  status: ('A' for Active; 'I' for Inactive)
REMARK    1  A    between atoms: C3_3  and  C8_10 
REMARK    2  A    between atoms: C8_10  and  O1_11 
ROOT
ATOM      1  C1  <0> d          -0.017   1.392   0.010  0.00  0.00    -0.062 A 
ATOM      2  C2  <0> d           1.170   2.096   0.002  0.00  0.00    -0.070 A 
ATOM      3  C3  <0> d           2.378   1.422  -0.013  0.00  0.00     0.004 A 
ATOM      4  C4  <0> d           2.405   0.037  -0.022  0.00  0.00     0.126 A 
ATOM      5  C5  <0> d           1.224  -0.680  -0.014  0.00  0.00    -0.025 A 
ATOM      6  C6  <0> d           0.002  -0.004   0.002  0.00  0.00     0.047 A 
ATOM      7  C7  <0> d          -1.226  -0.740   0.010  0.00  0.00     0.099 C 
ATOM      8  N1  <0> d          -2.201  -1.323   0.017  0.00  0.00    -0.191 NA
ATOM      9  F1  <0> d           3.589  -0.614  -0.038  0.00  0.00    -0.205 F 
ATOM     10  H1  <0> d          -0.959   1.920   0.026  0.00  0.00     0.085 H 
ATOM     11  H2  <0> d           1.155   3.176   0.008  0.00  0.00     0.084 H 
ATOM     12  H3  <0> d           1.245  -1.760  -0.020  0.00  0.00     0.090 H 
ENDROOT
BRANCH   3  13
ATOM     13  C8  <0> d           3.669   2.199  -0.022  0.00  0.00     0.043 C 
ATOM     14  H4  <0> d           4.254   1.940   0.861  0.00  0.00     0.081 H 
ATOM     15  H5  <0> d           4.237   1.950  -0.919  0.00  0.00     0.081 H 
BRANCH  13  16
ATOM     16  O1  <0> d           3.384   3.599  -0.012  0.00  0.00    -0.396 OA
ATOM     17  H6  <0> d           4.171   4.160  -0.017  0.00  0.00     0.209 HD
ENDBRANCH  13  16
ENDBRANCH   3  13
TORSDOF 2
