REMARK  7 active torsions:
REMARK  status: ('A' for Active; 'I' for Inactive)
REMARK    1  A    between atoms: C1_1  and  C2_2 
REMARK    2  A    between atoms: C2_2  and  C3_4 
REMARK    3  A    between atoms: C2_2  and  O2_6 
REMARK    4  A    between atoms: C3_4  and  O1_5 
REMARK    5  A    between atoms: O2_6  and  C4_7 
REMARK    6  A    between atoms: C4_7  and  O3_8 
REMARK    7  A    between atoms: O3_8  and  C5_9 
ROOT
ATOM      1  C2  <0> d           0.002  -0.004   0.002  0.00  0.00     0.058 C 
ATOM      2  H1  <0> d           0.512  -0.356  -0.895  0.00  0.00     0.086 H 
ENDROOT
BRANCH   1   3
ATOM      3  C1  <0> d          -0.019   1.526   0.010  0.00  0.00    -0.050 C 
ATOM      4  H2  <0> d           1.004   1.903   0.003  0.00  0.00     0.031 H 
ATOM      5  H3  <0> d          -0.546   1.887  -0.873  0.00  0.00     0.031 H 
ATOM      6  H4  <0> d          -0.529   1.877   0.907  0.00  0.00     0.031 H 
ENDBRANCH   1   3
BRANCH   1   7
ATOM      7  C3  <0> d           0.742  -0.511   1.242  0.00  0.00     0.040 C 
ATOM      8  H5  <0> d           0.680  -1.598   1.282  0.00  0.00     0.077 H 
ATOM      9  H6  <0> d           1.788  -0.208   1.190  0.00  0.00     0.077 H 
BRANCH   7  10
ATOM     10  O1  <0> d           0.143   0.044   2.414  0.00  0.00    -0.398 OA
ATOM     11  H7  <0> d           0.562  -0.234   3.240  0.00  0.00     0.209 HD
ENDBRANCH   7  10
ENDBRANCH   1   7
BRANCH   1  12
ATOM     12  O2  <0> d          -1.339  -0.499   0.012  0.00  0.00    -0.360 OA
BRANCH  12  13
ATOM     13  C4  <0> d          -1.896  -0.693  -1.289  0.00  0.00     0.103 C 
ATOM     14  H8  <0> d          -2.977  -0.809  -1.208  0.00  0.00     0.117 H 
ATOM     15  H9  <0> d          -1.670   0.171  -1.914  0.00  0.00     0.117 H 
BRANCH  13  16
ATOM     16  O3  <0> d          -1.334  -1.867  -1.878  0.00  0.00    -0.372 OA
BRANCH  16  17
ATOM     17  C5  <0> d          -1.845  -3.089  -1.339  0.00  0.00     0.006 C 
ATOM     18  H10 <0> d          -1.633  -3.132  -0.271  0.00  0.00     0.066 H 
ATOM     19  H11 <0> d          -2.923  -3.133  -1.498  0.00  0.00     0.066 H 
ATOM     20  H12 <0> d          -1.369  -3.933  -1.838  0.00  0.00     0.066 H 
ENDBRANCH  16  17
ENDBRANCH  13  16
ENDBRANCH  12  13
ENDBRANCH   1  12
TORSDOF 7
