REMARK  2 active torsions:
REMARK  status: ('A' for Active; 'I' for Inactive)
REMARK    1  A    between atoms: C4_4  and  N1_10 
REMARK    2  A    between atoms: C5_5  and  C7_7 
ROOT
ATOM      1  C1  <0> d          -0.076   1.248   0.041  0.00  0.00    -0.082 A 
ATOM      2  C2  <0> d           1.033   2.080   0.020  0.00  0.00    -0.081 A 
ATOM      3  C3  <0> d           2.305   1.549  -0.027  0.00  0.00    -0.057 A 
ATOM      4  C4  <0> d           2.484   0.171  -0.053  0.00  0.00     0.042 A 
ATOM      5  C5  <0> d           1.363  -0.675  -0.031  0.00  0.00     0.067 A 
ATOM      6  C6  <0> d           0.080  -0.120   0.016  0.00  0.00    -0.064 A 
ATOM      7  H1  <0> d          -1.067   1.675   0.082  0.00  0.00     0.083 H 
ATOM      8  H2  <0> d           0.900   3.152   0.039  0.00  0.00     0.083 H 
ATOM      9  H3  <0> d           3.163   2.205  -0.043  0.00  0.00     0.086 H 
ATOM     10  H4  <0> d          -0.788  -0.763   0.033  0.00  0.00     0.085 H 
ENDROOT
BRANCH   4  11
ATOM     11  N1  <0> d           3.763  -0.365  -0.100  0.00  0.00    -0.398 N 
ATOM     12  H5  <0> d           4.530   0.219  -0.200  0.00  0.00     0.156 HD
ATOM     13  H6  <0> d           3.889  -1.325  -0.033  0.00  0.00     0.156 HD
ENDBRANCH   4  11
BRANCH   5  14
ATOM     14  C7  <0> d           1.537  -2.135  -0.058  0.00  0.00     0.211 C 
ATOM     15  O1  <0> d           0.560  -2.866  -0.155  0.00  0.00    -0.644 OA
ATOM     16  O2  <0> d           2.658  -2.619   0.016  0.00  0.00    -0.644 OA
ENDBRANCH   5  14
TORSDOF 2
