REMARK  7 active torsions:
REMARK  status: ('A' for Active; 'I' for Inactive)
REMARK    1  A    between atoms: C1_1  and  O1_2 
REMARK    2  A    between atoms: O1_2  and  C2_3 
REMARK    3  A    between atoms: C2_3  and  C3_4 
REMARK    4  A    between atoms: C3_4  and  O2_5 
REMARK    5  A    between atoms: C3_4  and  O3_7 
REMARK    6  A    between atoms: O2_5  and  C4_6 
REMARK    7  A    between atoms: O3_7  and  C5_8 
ROOT
ATOM      1  C3  <0> d          -1.332  -0.828  -0.346  0.00  0.00     0.150 C 
ATOM      2  H6  <0> d          -1.513  -1.868  -0.618  0.00  0.00     0.132 H 
ENDROOT
BRANCH   1   3
ATOM      3  C2  <0> d           0.142  -0.489  -0.576  0.00  0.00     0.064 C 
ATOM      4  H4  <0> d           0.389  -0.637  -1.627  0.00  0.00     0.081 H 
ATOM      5  H5  <0> d           0.764  -1.139   0.039  0.00  0.00     0.081 H 
BRANCH   3   6
ATOM      6  O1  <0> d           0.378   0.874  -0.219  0.00  0.00    -0.391 OA
BRANCH   6   7
ATOM      7  C1  <0> d           1.732   1.295  -0.397  0.00  0.00     0.004 C 
ATOM      8  H1  <0> d           1.829   2.341  -0.104  0.00  0.00     0.066 H 
ATOM      9  H2  <0> d           2.388   0.682   0.221  0.00  0.00     0.066 H 
ATOM     10  H3  <0> d           2.012   1.184  -1.445  0.00  0.00     0.066 H 
ENDBRANCH   6   7
ENDBRANCH   3   6
ENDBRANCH   1   3
BRANCH   1  11
ATOM     11  O2  <0> d          -1.656  -0.634   1.032  0.00  0.00    -0.364 OA
BRANCH  11  12
ATOM     12  C4  <0> d          -2.754  -1.426   1.489  0.00  0.00     0.007 C 
ATOM     13  H7  <0> d          -3.012  -1.138   2.508  0.00  0.00     0.066 H 
ATOM     14  H8  <0> d          -3.614  -1.266   0.838  0.00  0.00     0.066 H 
ATOM     15  H9  <0> d          -2.475  -2.480   1.469  0.00  0.00     0.066 H 
ENDBRANCH  11  12
ENDBRANCH   1  11
BRANCH   1  16
ATOM     16  O3  <0> d          -2.149   0.024  -1.152  0.00  0.00    -0.364 OA
BRANCH  16  17
ATOM     17  C5  <0> d          -3.508  -0.404  -1.258  0.00  0.00     0.007 C 
ATOM     18  H10 <0> d          -4.038  -0.163  -0.336  0.00  0.00     0.066 H 
ATOM     19  H11 <0> d          -3.985   0.106  -2.095  0.00  0.00     0.066 H 
ATOM     20  H12 <0> d          -3.538  -1.481  -1.424  0.00  0.00     0.066 H 
ENDBRANCH  16  17
ENDBRANCH   1  16
TORSDOF 7
