REMARK  1 active torsions:
REMARK  status: ('A' for Active; 'I' for Inactive)
REMARK    1  A    between atoms: C5_7  and  N2_12 
ROOT
ATOM      1  C1  <0> d          -2.296   4.158   0.046  0.00  0.00    -0.054 A 
ATOM      2  C2  <0> d          -1.698   5.359   0.047  0.00  0.00    -0.022 A 
ATOM      3  N1  <0> d          -0.337   5.202   0.033  0.00  0.00    -0.365 N 
ATOM      4  H1  <0> d           0.308   5.926   0.031  0.00  0.00     0.165 HD
ATOM      5  C3  <0> d          -0.021   3.861   0.023  0.00  0.00     0.047 A 
ATOM      6  C4  <0> d          -1.233   3.150   0.031  0.00  0.00     0.018 A 
ATOM      7  C5  <0> d          -1.222   1.748   0.017  0.00  0.00     0.041 A 
ATOM      8  C6  <0> d          -0.013   1.076   0.008  0.00  0.00    -0.019 A 
ATOM      9  C7  <0> d           1.182   1.784   0.000  0.00  0.00     0.120 A 
ATOM     10  C8  <0> d           1.183   3.164   0.008  0.00  0.00    -0.019 A 
ATOM     11  F1  <0> d           2.356   1.114  -0.015  0.00  0.00    -0.206 F 
ATOM     12  H2  <0> d          -3.360   3.970   0.056  0.00  0.00     0.087 H 
ATOM     13  H3  <0> d          -2.212   6.309   0.057  0.00  0.00     0.111 H 
ATOM     14  H4  <0> d           0.002  -0.004   0.002  0.00  0.00     0.091 H 
ATOM     15  H5  <0> d           2.119   3.703   0.002  0.00  0.00     0.091 H 
ENDROOT
BRANCH   7  16
ATOM     16  N2  <0> d          -2.421   1.036   0.019  0.00  0.00    -0.398 N 
ATOM     17  H6  <0> d          -2.410   0.066   0.014  0.00  0.00     0.156 HD
ATOM     18  H7  <0> d          -3.267   1.511   0.026  0.00  0.00     0.156 HD
ENDBRANCH   7  16
TORSDOF 1
