REMARK  4 active torsions:
REMARK  status: ('A' for Active; 'I' for Inactive)
REMARK    1  A    between atoms: C1_1  and  C2_2 
REMARK    2  A    between atoms: C3_4  and  C7_11 
REMARK    3  A    between atoms: N2_5  and  C4_7 
REMARK    4  A    between atoms: C4_7  and  C5_8 
ROOT
ATOM      1  C5  <0> d           1.502  -3.712   1.705  0.00  0.00     0.031 C 
ATOM      2  C6  <0> d           1.522  -4.930   2.531  0.00  0.00     0.060 C 
ATOM      3  N4  <0> d           1.537  -5.870   3.168  0.00  0.00    -0.197 NA
ATOM      4  H6  <0> d           2.015  -3.904   0.763  0.00  0.00     0.057 H 
ATOM      5  H7  <0> d           2.007  -2.905   2.236  0.00  0.00     0.057 H 
ENDROOT
BRANCH   1   6
ATOM      6  C4  <0> d           0.053  -3.309   1.425  0.00  0.00     0.030 C 
ATOM      7  H4  <0> d          -0.460  -3.118   2.368  0.00  0.00     0.068 H 
ATOM      8  H5  <0> d          -0.452  -4.116   0.894  0.00  0.00     0.068 H 
BRANCH   6   9
ATOM      9  N2  <0> d           0.033  -2.097   0.603  0.00  0.00    -0.254 N 
ATOM     10  C3  <0> d           0.027  -2.034  -0.740  0.00  0.00     0.120 A 
ATOM     11  N1  <0> d           0.008  -0.772  -1.087  0.00  0.00    -0.218 NA
ATOM     12  C2  <0> d           0.002  -0.004   0.002  0.00  0.00     0.144 A 
ATOM     13  N3  <0> d           0.022  -0.769   1.062  0.00  0.00    -0.156 NA
BRANCH  10  14
ATOM     14  C7  <0> d           0.038  -3.210  -1.681  0.00  0.00    -0.020 C 
ATOM     15  H8  <0> d           1.069  -3.481  -1.912  0.00  0.00     0.037 H 
ATOM     16  H9  <0> d          -0.463  -4.057  -1.211  0.00  0.00     0.037 H 
ATOM     17  H10 <0> d          -0.483  -2.945  -2.601  0.00  0.00     0.037 H 
ENDBRANCH  10  14
BRANCH  12  18
ATOM     18  C1  <0> d          -0.018   1.503   0.010  0.00  0.00    -0.018 C 
ATOM     19  H1  <0> d           1.004   1.880   0.003  0.00  0.00     0.038 H 
ATOM     20  H2  <0> d          -0.545   1.864  -0.873  0.00  0.00     0.038 H 
ATOM     21  H3  <0> d          -0.529   1.854   0.907  0.00  0.00     0.038 H 
ENDBRANCH  12  18
ENDBRANCH   6   9
ENDBRANCH   1   6
TORSDOF 4
