REMARK  2 active torsions:
REMARK  status: ('A' for Active; 'I' for Inactive)
REMARK    1  A    between atoms: C1_1  and  C2_2 
REMARK    2  A    between atoms: C5_5  and  C7_8 
ROOT
ATOM      1  C2  <0> d           0.002  -0.004   0.002  0.00  0.00    -0.044 A 
ATOM      2  C3  <0> d          -0.017   1.383   0.010  0.00  0.00    -0.074 A 
ATOM      3  C4  <0> d           1.193   2.059   0.002  0.00  0.00    -0.059 A 
ATOM      4  C5  <0> d           2.370   1.334  -0.013  0.00  0.00     0.030 A 
ATOM      5  N1  <0> d           2.350   0.015  -0.020  0.00  0.00    -0.265 NA
ATOM      6  C6  <0> d           1.218  -0.661  -0.013  0.00  0.00     0.008 A 
ATOM      7  H4  <0> d          -0.952   1.923   0.017  0.00  0.00     0.084 H 
ATOM      8  H5  <0> d           1.216   3.139   0.007  0.00  0.00     0.086 H 
ATOM      9  H6  <0> d           1.241  -1.741  -0.019  0.00  0.00     0.115 H 
ENDROOT
BRANCH   1  10
ATOM     10  C1  <0> d          -1.287  -0.785   0.010  0.00  0.00    -0.050 C 
ATOM     11  H1  <0> d          -1.607  -0.967  -1.016  0.00  0.00     0.033 H 
ATOM     12  H2  <0> d          -1.132  -1.737   0.517  0.00  0.00     0.033 H 
ATOM     13  H3  <0> d          -2.054  -0.214   0.534  0.00  0.00     0.033 H 
ENDBRANCH   1  10
BRANCH   4  14
ATOM     14  C7  <0> d           3.691   2.058  -0.021  0.00  0.00    -0.035 C 
ATOM     15  H7  <0> d           4.000   2.239  -1.051  0.00  0.00     0.035 H 
ATOM     16  H8  <0> d           3.587   3.011   0.499  0.00  0.00     0.035 H 
ATOM     17  H9  <0> d           4.443   1.450   0.482  0.00  0.00     0.035 H 
ENDBRANCH   4  14
TORSDOF 2
