REMARK  1 active torsions:
REMARK  status: ('A' for Active; 'I' for Inactive)
REMARK    1  A    between atoms: C5_7  and  N3_10 
ROOT
ATOM      1  C1  <0> d           0.770  -2.546  -0.020  0.00  0.00     0.020 A 
ATOM      2  C2  <0> d          -0.576  -2.208  -0.005  0.00  0.00     0.020 A 
ATOM      3  N1  <0> d          -0.927  -0.933   0.005  0.00  0.00    -0.250 NA
ATOM      4  C3  <0> d           0.002  -0.004   0.002  0.00  0.00     0.128 A 
ATOM      5  C4  <0> d           1.383  -0.317  -0.013  0.00  0.00     0.118 A 
ATOM      6  N2  <0> d           1.706  -1.626  -0.023  0.00  0.00    -0.254 NA
ATOM      7  C5  <0> d           2.268   0.840  -0.015  0.00  0.00     0.064 A 
ATOM      8  C6  <0> d           1.734   2.074  -0.003  0.00  0.00    -0.015 A 
ATOM      9  S1  <0> d          -0.022   1.770   0.012  0.00  0.00    -0.078 SA
ATOM     10  H1  <0> d           1.054  -3.588  -0.028  0.00  0.00     0.117 H 
ATOM     11  H2  <0> d          -1.331  -2.981  -0.002  0.00  0.00     0.117 H 
ATOM     12  H3  <0> d           2.248   3.024  -0.004  0.00  0.00     0.098 H 
ENDROOT
BRANCH   7  13
ATOM     13  N3  <0> d           3.665   0.667  -0.029  0.00  0.00    -0.397 N 
ATOM     14  H4  <0> d           4.044  -0.226  -0.037  0.00  0.00     0.156 HD
ATOM     15  H5  <0> d           4.250   1.442  -0.030  0.00  0.00     0.156 HD
ENDBRANCH   7  13
TORSDOF 1
