REMARK  4 active torsions:
REMARK  status: ('A' for Active; 'I' for Inactive)
REMARK    1  A    between atoms: C1_1  and  C2_2 
REMARK    2  A    between atoms: C3_3  and  C7_12 
REMARK    3  A    between atoms: C4_6  and  O2_10 
REMARK    4  A    between atoms: O2_10  and  C6_11 
ROOT
ATOM      1  C2  <0> d          -0.742   1.585  -1.213  0.00  0.00     0.030 A 
ATOM      2  C3  <0> d          -0.888   2.923  -1.435  0.00  0.00     0.046 A 
ATOM      3  N1  <0> d          -1.534   3.353  -2.518  0.00  0.00    -0.213 NA
ATOM      4  H1  <0> d          -2.308   0.562  -3.880  0.00  0.00     0.172 HD
ATOM      5  C4  <0> d          -2.042   2.511  -3.392  0.00  0.00     0.248 A 
ATOM      6  N2  <0> d          -1.927   1.168  -3.225  0.00  0.00    -0.287 N 
ATOM      7  C5  <0> d          -1.278   0.679  -2.147  0.00  0.00     0.256 A 
ATOM      8  O1  <0> d          -1.161  -0.524  -1.984  0.00  0.00    -0.267 OA
ENDROOT
BRANCH   5   9
ATOM      9  O2  <0> d          -2.688   2.991  -4.474  0.00  0.00    -0.326 OA
BRANCH   9  10
ATOM     10  C6  <0> d          -2.779   4.412  -4.599  0.00  0.00     0.013 C 
ATOM     11  H5  <0> d          -3.322   4.662  -5.510  0.00  0.00     0.067 H 
ATOM     12  H6  <0> d          -3.308   4.819  -3.737  0.00  0.00     0.067 H 
ATOM     13  H7  <0> d          -1.776   4.837  -4.644  0.00  0.00     0.067 H 
ENDBRANCH   9  10
ENDBRANCH   5   9
BRANCH   2  14
ATOM     14  C7  <0> d          -0.320   3.915  -0.454  0.00  0.00    -0.035 C 
ATOM     15  H8  <0> d           0.702   4.165  -0.740  0.00  0.00     0.035 H 
ATOM     16  H9  <0> d          -0.929   4.819  -0.457  0.00  0.00     0.035 H 
ATOM     17  H10 <0> d          -0.321   3.480   0.546  0.00  0.00     0.035 H 
ENDBRANCH   2  14
BRANCH   1  18
ATOM     18  C1  <0> d          -0.013   1.086   0.008  0.00  0.00    -0.044 C 
ATOM     19  H2  <0> d           0.002  -0.004   0.002  0.00  0.00     0.033 H 
ATOM     20  H3  <0> d           1.010   1.463   0.000  0.00  0.00     0.033 H 
ATOM     21  H4  <0> d          -0.523   1.437   0.905  0.00  0.00     0.033 H 
ENDBRANCH   1  18
TORSDOF 4
