REMARK  0 active torsions:
REMARK  status: ('A' for Active; 'I' for Inactive)
ROOT
ATOM      1  C1  <0> d          -0.016   1.356   0.009  0.00  0.00    -0.064 A 
ATOM      2  C2  <0> d           1.304   1.804  -0.001  0.00  0.00    -0.051 A 
ATOM      3  C3  <0> d           2.109   0.679  -0.014  0.00  0.00     0.098 A 
ATOM      4  C4  <0> d           3.501   0.477  -0.029  0.00  0.00     0.156 A 
ATOM      5  N1  <0> d           3.974  -0.751  -0.041  0.00  0.00    -0.226 NA
ATOM      6  C5  <0> d           3.168  -1.813  -0.039  0.00  0.00     0.108 A 
ATOM      7  N2  <0> d           1.869  -1.700  -0.026  0.00  0.00    -0.161 NA
ATOM      8  N3  <0> d           1.279  -0.428  -0.013  0.00  0.00    -0.241 N 
ATOM      9  C6  <0> d           0.002  -0.004   0.002  0.00  0.00     0.004 A 
ATOM     10 Cl1  <0> d           4.584   1.833  -0.033  0.00  0.00    -0.060 Cl
ATOM     11  H1  <0> d          -0.898   1.979   0.025  0.00  0.00     0.085 H 
ATOM     12  H2  <0> d           1.635   2.833   0.002  0.00  0.00     0.087 H 
ATOM     13  H3  <0> d           3.606  -2.800  -0.049  0.00  0.00     0.149 H 
ATOM     14  H4  <0> d          -0.869  -0.642   0.007  0.00  0.00     0.114 H 
ENDROOT
TORSDOF 0
