REMARK  4 active torsions:
REMARK  status: ('A' for Active; 'I' for Inactive)
REMARK    1  A    between atoms: C1_1  and  C2_2 
REMARK    2  A    between atoms: C2_2  and  C4_4 
REMARK    3  A    between atoms: C4_4  and  C8_10 
REMARK    4  A    between atoms: C6_6  and  C7_8 
ROOT
ATOM      1  C4  <0> d           0.066   1.827   2.510  0.00  0.00    -0.007 A 
ATOM      2  C5  <0> d          -0.174   0.886   3.692  0.00  0.00    -0.040 A 
ATOM      3  C6  <0> d          -0.708   2.319   3.734  0.00  0.00     0.042 A 
ATOM      4  H1  <0> d          -1.784   2.459   3.627  0.00  0.00     0.058 H 
ATOM      5  H7  <0> d          -0.899   0.083   3.558  0.00  0.00     0.035 H 
ATOM      6  H8  <0> d           0.679   0.648   4.327  0.00  0.00     0.035 H 
ENDROOT
BRANCH   1   7
ATOM      7  C2  <0> d          -0.718   1.572   1.248  0.00  0.00    -0.084 C 
ATOM      8  C3  <0> d          -2.012   1.773   1.229  0.00  0.00    -0.119 C 
ATOM      9  H5  <0> d          -2.518   2.121   2.118  0.00  0.00     0.067 H 
ATOM     10  H6  <0> d          -2.574   1.590   0.325  0.00  0.00     0.067 H 
BRANCH   7  11
ATOM     11  C1  <0> d          -0.013   1.086   0.008  0.00  0.00    -0.054 C 
ATOM     12  H2  <0> d           0.002  -0.004   0.002  0.00  0.00     0.033 H 
ATOM     13  H3  <0> d           1.010   1.463   0.000  0.00  0.00     0.033 H 
ATOM     14  H4  <0> d          -0.540   1.447  -0.875  0.00  0.00     0.033 H 
ENDBRANCH   7  11
ENDBRANCH   1   7
BRANCH   1  15
ATOM     15  C8  <0> d           1.485   2.361   2.308  0.00  0.00    -0.064 C 
ATOM     16  H9  <0> d           1.454   3.446   2.210  0.00  0.00     0.028 H 
ATOM     17  H10 <0> d           2.100   2.091   3.167  0.00  0.00     0.028 H 
ATOM     18  H11 <0> d           1.912   1.926   1.405  0.00  0.00     0.028 H 
ENDBRANCH   1  15
BRANCH   3  19
ATOM     19  C7  <0> d          -0.013   3.294   4.650  0.00  0.00     0.178 C 
ATOM     20  O1  <0> d           1.112   3.657   4.404  0.00  0.00    -0.648 OA
ATOM     21  O2  <0> d          -0.646   3.759   5.739  0.00  0.00    -0.648 OA
ENDBRANCH   3  19
TORSDOF 4
