REMARK  2 active torsions:
REMARK  status: ('A' for Active; 'I' for Inactive)
REMARK    1  A    between atoms: C1_1  and  C2_2 
REMARK    2  A    between atoms: C2_2  and  C6_8 
ROOT
ATOM      1  C2  <0> d          -0.019   1.526   0.010  0.00  0.00    -0.030 A 
ATOM      2  C3  <0> d           1.317   0.779  -0.006  0.00  0.00    -0.042 A 
ATOM      3  C4  <0> d           0.002  -0.004   0.002  0.00  0.00     0.037 A 
ATOM      4  H1  <0> d          -0.273  -0.516   0.924  0.00  0.00     0.064 H 
ATOM      5  C5  <0> d          -0.393  -0.682  -1.243  0.00  0.00     0.064 C 
ATOM      6  N1  <0> d          -0.698  -1.206  -2.204  0.00  0.00    -0.197 NA
ATOM      7  H5  <0> d           1.889   0.792  -0.934  0.00  0.00     0.036 H 
ATOM      8  H6  <0> d           1.906   0.782   0.910  0.00  0.00     0.036 H 
ENDROOT
BRANCH   1   9
ATOM      9  C1  <0> d          -0.448   2.233  -1.276  0.00  0.00    -0.068 C 
ATOM     10  H2  <0> d          -1.464   1.933  -1.534  0.00  0.00     0.028 H 
ATOM     11  H3  <0> d          -0.416   3.313  -1.125  0.00  0.00     0.028 H 
ATOM     12  H4  <0> d           0.228   1.959  -2.085  0.00  0.00     0.028 H 
ENDBRANCH   1   9
BRANCH   1  13
ATOM     13  C6  <0> d          -0.424   2.220   1.312  0.00  0.00    -0.068 C 
ATOM     14  H7  <0> d           0.268   1.937   2.106  0.00  0.00     0.028 H 
ATOM     15  H8  <0> d          -0.394   3.300   1.173  0.00  0.00     0.028 H 
ATOM     16  H9  <0> d          -1.434   1.916   1.587  0.00  0.00     0.028 H 
ENDBRANCH   1  13
TORSDOF 2
