REMARK  2 active torsions:
REMARK  status: ('A' for Active; 'I' for Inactive)
REMARK    1  A    between atoms: C2_3  and  N4_9 
REMARK    2  A    between atoms: C3_4  and  N3_8 
ROOT
ATOM      1  C1  <0> d           1.113   3.353   0.009  0.00  0.00     0.092 A 
ATOM      2  N1  <0> d          -0.007   4.047   0.024  0.00  0.00    -0.222 NA
ATOM      3  C2  <0> d          -1.187   3.434   0.032  0.00  0.00     0.153 A 
ATOM      4  C3  <0> d          -1.224   2.035   0.019  0.00  0.00     0.130 A 
ATOM      5  C4  <0> d          -0.016   1.347   0.009  0.00  0.00     0.241 A 
ATOM      6  N2  <0> d           1.119   2.035   0.002  0.00  0.00    -0.211 NA
ATOM      7  F1  <0> d           0.002  -0.004   0.002  0.00  0.00    -0.181 F 
ATOM      8  H1  <0> d           2.056   3.880   0.004  0.00  0.00     0.146 H 
ENDROOT
BRANCH   3   9
ATOM      9  N4  <0> d          -2.364   4.171   0.047  0.00  0.00    -0.382 N 
ATOM     10  H4  <0> d          -2.330   5.140   0.052  0.00  0.00     0.157 HD
ATOM     11  H5  <0> d          -3.221   3.716   0.053  0.00  0.00     0.157 HD
ENDBRANCH   3   9
BRANCH   4  12
ATOM     12  N3  <0> d          -2.445   1.346   0.021  0.00  0.00    -0.392 N 
ATOM     13  H2  <0> d          -2.455   0.376   0.015  0.00  0.00     0.156 HD
ATOM     14  H3  <0> d          -3.280   1.840   0.027  0.00  0.00     0.156 HD
ENDBRANCH   4  12
TORSDOF 2
