REMARK  2 active torsions:
REMARK  status: ('A' for Active; 'I' for Inactive)
REMARK    1  A    between atoms: C1_1  and  C2_2 
REMARK    2  A    between atoms: C3_3  and  C9_12 
ROOT
ATOM      1  C2  <0> d           0.002  -0.004   0.002  0.00  0.00     0.056 A 
ATOM      2  C3  <0> d           0.006  -0.690  -1.215  0.00  0.00     0.057 A 
ATOM      3  N1  <0> d           0.023  -2.002  -1.247  0.00  0.00    -0.230 NA
ATOM      4  C4  <0> d           0.039  -2.695  -0.102  0.00  0.00     0.178 A 
ATOM      5  C5  <0> d           0.035  -1.997   1.131  0.00  0.00     0.105 A 
ATOM      6  N2  <0> d           0.022  -0.661   1.139  0.00  0.00    -0.248 NA
ATOM      7  C6  <0> d           0.051  -2.733   2.332  0.00  0.00    -0.050 A 
ATOM      8  C7  <0> d           0.070  -4.097   2.253  0.00  0.00    -0.064 A 
ATOM      9  C8  <0> d           0.072  -4.720   1.007  0.00  0.00     0.005 A 
ATOM     10  N3  <0> d           0.057  -4.031  -0.109  0.00  0.00    -0.239 NA
ATOM     11  H4  <0> d           0.050  -2.234   3.290  0.00  0.00     0.087 H 
ATOM     12  H5  <0> d           0.083  -4.691   3.155  0.00  0.00     0.085 H 
ATOM     13  H6  <0> d           0.087  -5.799   0.958  0.00  0.00     0.114 H 
ENDROOT
BRANCH   1  14
ATOM     14  C1  <0> d          -0.018   1.503   0.010  0.00  0.00    -0.034 C 
ATOM     15  H1  <0> d           1.004   1.880   0.003  0.00  0.00     0.035 H 
ATOM     16  H2  <0> d          -0.545   1.864  -0.873  0.00  0.00     0.035 H 
ATOM     17  H3  <0> d          -0.529   1.854   0.907  0.00  0.00     0.035 H 
ENDBRANCH   1  14
BRANCH   2  18
ATOM     18  C9  <0> d          -0.011   0.086  -2.507  0.00  0.00    -0.034 C 
ATOM     19  H7  <0> d           1.012   0.288  -2.823  0.00  0.00     0.035 H 
ATOM     20  H8  <0> d          -0.521  -0.496  -3.274  0.00  0.00     0.035 H 
ATOM     21  H9  <0> d          -0.538   1.029  -2.357  0.00  0.00     0.035 H 
ENDBRANCH   2  18
TORSDOF 2
