REMARK  2 active torsions:
REMARK  status: ('A' for Active; 'I' for Inactive)
REMARK    1  A    between atoms: C1_1  and  C2_2 
REMARK    2  A    between atoms: C2_2  and  C3_3 
ROOT
ATOM      1  C3  <0> d          -2.212   1.865  -0.715  0.00  0.00     0.004 C 
ATOM      2  H1  <0> d          -2.451   2.828  -0.839  0.00  0.00     0.051 H 
ATOM      3  C4  <0> d          -2.264   1.488   0.780  0.00  0.00    -0.055 C 
ATOM      4  C5  <0> d          -0.786   1.609   1.243  0.00  0.00    -0.058 C 
ATOM      5  C6  <0> d          -0.013   1.086   0.008  0.00  0.00    -0.009 C 
ATOM      6  C7  <0> d          -0.794   1.612  -1.183  0.00  0.00     0.131 C 
ATOM      7  O1  <0> d          -0.364   1.796  -2.296  0.00  0.00    -0.298 OA
ATOM      8  H7  <0> d          -2.896   2.187   1.329  0.00  0.00     0.034 H 
ATOM      9  H8  <0> d          -2.622   0.467   0.906  0.00  0.00     0.034 H 
ATOM     10  H9  <0> d          -0.598   0.981   2.114  0.00  0.00     0.033 H 
ATOM     11  H10 <0> d          -0.529   2.648   1.450  0.00  0.00     0.033 H 
ATOM     12  H11 <0> d           0.017   0.086   0.032  0.00  0.00     0.044 H 
ATOM     13  H12 <0> d           1.004   1.480   0.000  0.00  0.00     0.044 H 
ENDROOT
BRANCH   1  14
ATOM     14  C2  <0> d          -3.188   0.992  -1.508  0.00  0.00    -0.059 C 
ATOM     15  H5  <0> d          -2.873  -0.050  -1.448  0.00  0.00     0.033 H 
ATOM     16  H6  <0> d          -4.189   1.094  -1.089  0.00  0.00     0.033 H 
BRANCH  14  17
ATOM     17  C1  <0> d          -3.198   1.439  -2.971  0.00  0.00    -0.076 C 
ATOM     18  H2  <0> d          -3.893   0.817  -3.536  0.00  0.00     0.027 H 
ATOM     19  H3  <0> d          -3.512   2.481  -3.030  0.00  0.00     0.027 H 
ATOM     20  H4  <0> d          -2.197   1.337  -3.389  0.00  0.00     0.027 H 
ENDBRANCH  14  17
ENDBRANCH   1  14
TORSDOF 2
