REMARK  5 active torsions:
REMARK  status: ('A' for Active; 'I' for Inactive)
REMARK    1  A    between atoms: C1_1  and  C2_2 
REMARK    2  A    between atoms: C2_2  and  C3_4 
REMARK    3  A    between atoms: C2_2  and  O1_7 
REMARK    4  A    between atoms: O1_7  and  C6_8 
REMARK    5  A    between atoms: C6_8  and  C7_10 
ROOT
ATOM      1  C2  <0> d          -2.657   2.246   2.459  0.00  0.00     0.048 C 
ATOM      2  H1  <0> d          -1.937   2.843   3.019  0.00  0.00     0.084 H 
ENDROOT
BRANCH   1   3
ATOM      3  C1  <0> d          -3.090   1.045   3.302  0.00  0.00    -0.051 C 
ATOM      4  H2  <0> d          -2.219   0.435   3.539  0.00  0.00     0.030 H 
ATOM      5  H3  <0> d          -3.550   1.397   4.226  0.00  0.00     0.030 H 
ATOM      6  H4  <0> d          -3.810   0.449   2.742  0.00  0.00     0.030 H 
ENDBRANCH   1   3
BRANCH   1   7
ATOM      7  C3  <0> d          -3.880   3.103   2.126  0.00  0.00    -0.029 A 
ATOM      8  C5  <0> d          -3.654   4.360   1.283  0.00  0.00    -0.059 A 
ATOM      9  C4  <0> d          -4.341   3.139   0.667  0.00  0.00    -0.059 A 
ATOM     10  H8  <0> d          -4.273   5.230   1.500  0.00  0.00     0.033 H 
ATOM     11  H9  <0> d          -2.633   4.576   0.966  0.00  0.00     0.033 H 
ATOM     12  H6  <0> d          -3.773   2.553  -0.055  0.00  0.00     0.033 H 
ATOM     13  H7  <0> d          -5.412   3.207   0.480  0.00  0.00     0.033 H 
ATOM     14  H5  <0> d          -4.648   3.146   2.898  0.00  0.00     0.043 H 
ENDBRANCH   1   7
BRANCH   1  15
ATOM     15  O1  <0> d          -2.044   1.778   1.228  0.00  0.00    -0.316 OA
BRANCH  15  16
ATOM     16  C6  <0> d          -0.718   1.572   1.248  0.00  0.00     0.255 C 
ATOM     17  O2  <0> d          -0.090   1.776   2.260  0.00  0.00    -0.266 OA
BRANCH  16  18
ATOM     18  C7  <0> d          -0.013   1.086   0.008  0.00  0.00     0.004 C 
ATOM     19  H10 <0> d           0.002  -0.004   0.002  0.00  0.00     0.041 H 
ATOM     20  H11 <0> d           1.010   1.463   0.000  0.00  0.00     0.041 H 
ATOM     21  H12 <0> d          -0.540   1.447  -0.875  0.00  0.00     0.041 H 
ENDBRANCH  16  18
ENDBRANCH  15  16
ENDBRANCH   1  15
TORSDOF 5
