REMARK  2 active torsions:
REMARK  status: ('A' for Active; 'I' for Inactive)
REMARK    1  A    between atoms: C6_6  and  C7_7 
REMARK    2  A    between atoms: C7_7  and  O1_8 
ROOT
ATOM      1  C1  <0> d           0.002  -0.004   0.002  0.00  0.00    -0.073 A 
ATOM      2  C2  <0> d          -0.017   1.375   0.010  0.00  0.00    -0.062 A 
ATOM      3  C3  <0> d           1.185   2.087   0.002  0.00  0.00     0.044 A 
ATOM      4  C4  <0> d           2.398   1.395  -0.013  0.00  0.00    -0.062 A 
ATOM      5  C5  <0> d           2.402   0.016  -0.020  0.00  0.00    -0.073 A 
ATOM      6  C6  <0> d           1.208  -0.683  -0.013  0.00  0.00    -0.035 A 
ATOM      7  C8  <0> d           1.173   3.518   0.009  0.00  0.00     0.099 C 
ATOM      8  N1  <0> d           1.164   4.654   0.015  0.00  0.00    -0.191 NA
ATOM      9  H1  <0> d          -0.926  -0.555   0.008  0.00  0.00     0.084 H 
ATOM     10  H2  <0> d          -0.959   1.904   0.017  0.00  0.00     0.085 H 
ATOM     11  H3  <0> d           3.331   1.939  -0.020  0.00  0.00     0.085 H 
ATOM     12  H4  <0> d           3.340  -0.520  -0.031  0.00  0.00     0.084 H 
ENDROOT
BRANCH   6  13
ATOM     13  C7  <0> d           1.220  -2.190  -0.020  0.00  0.00     0.040 C 
ATOM     14  H5  <0> d           2.118  -2.548   0.484  0.00  0.00     0.081 H 
ATOM     15  H6  <0> d           0.338  -2.563   0.501  0.00  0.00     0.081 H 
BRANCH  13  16
ATOM     16  O1  <0> d           1.211  -2.660  -1.369  0.00  0.00    -0.396 OA
ATOM     17  H7  <0> d           1.218  -3.623  -1.450  0.00  0.00     0.209 HD
ENDBRANCH  13  16
ENDBRANCH   6  13
TORSDOF 2
