REMARK  3 active torsions:
REMARK  status: ('A' for Active; 'I' for Inactive)
REMARK    1  A    between atoms: C1_1  and  C2_2 
REMARK    2  A    between atoms: C2_2  and  O1_3 
REMARK    3  A    between atoms: O1_3  and  C3_4 
ROOT
ATOM      1  C3  <0> d          -1.432  -1.925   0.005  0.00  0.00     0.038 C 
ATOM      2  C4  <0> d          -1.552  -2.439  -1.444  0.00  0.00    -0.041 C 
ATOM      3  C5  <0> d          -2.533  -3.634  -1.343  0.00  0.00    -0.063 C 
ATOM      4  C6  <0> d          -3.560  -3.144  -0.292  0.00  0.00    -0.063 C 
ATOM      5  C7  <0> d          -2.709  -2.373   0.738  0.00  0.00    -0.041 C 
ATOM      6  H6  <0> d          -0.555  -2.358   0.485  0.00  0.00     0.083 H 
ATOM      7  H7  <0> d          -1.960  -1.664  -2.092  0.00  0.00     0.036 H 
ATOM      8  H8  <0> d          -0.582  -2.773  -1.812  0.00  0.00     0.036 H 
ATOM      9  H9  <0> d          -3.019  -3.816  -2.301  0.00  0.00     0.033 H 
ATOM     10  H10 <0> d          -2.018  -4.528  -0.993  0.00  0.00     0.033 H 
ATOM     11  H11 <0> d          -4.293  -2.482  -0.753  0.00  0.00     0.033 H 
ATOM     12  H12 <0> d          -4.055  -3.992   0.182  0.00  0.00     0.033 H 
ATOM     13  H13 <0> d          -2.451  -3.024   1.573  0.00  0.00     0.036 H 
ATOM     14  H14 <0> d          -3.257  -1.502   1.099  0.00  0.00     0.036 H 
ENDROOT
BRANCH   1  15
ATOM     15  O1  <0> d          -1.339  -0.499   0.012  0.00  0.00    -0.386 OA
BRANCH  15  16
ATOM     16  C2  <0> d           0.002  -0.004   0.002  0.00  0.00     0.017 C 
ATOM     17  H4  <0> d           0.512  -0.356  -0.895  0.00  0.00     0.073 H 
ATOM     18  H5  <0> d           0.529  -0.365   0.885  0.00  0.00     0.073 H 
BRANCH  16  19
ATOM     19  C1  <0> d          -0.019   1.526   0.010  0.00  0.00    -0.056 C 
ATOM     20  H1  <0> d           1.004   1.903   0.003  0.00  0.00     0.030 H 
ATOM     21  H2  <0> d          -0.546   1.887  -0.873  0.00  0.00     0.030 H 
ATOM     22  H3  <0> d          -0.529   1.877   0.907  0.00  0.00     0.030 H 
ENDBRANCH  16  19
ENDBRANCH  15  16
ENDBRANCH   1  15
TORSDOF 3
