REMARK  0 active torsions:
REMARK  status: ('A' for Active; 'I' for Inactive)
ROOT
ATOM      1  C1  <0> d          -0.018   1.466   0.010  0.00  0.00     0.131 C 
ATOM      2  C2  <0> d           1.420   1.990  -0.001  0.00  0.00     0.046 C 
ATOM      3  O1  <0> d           2.106   1.465  -1.141  0.00  0.00    -0.368 OA
ATOM      4  C3  <0> d           2.145   0.035  -1.180  0.00  0.00     0.146 C 
ATOM      5  H1  <0> d           2.676  -0.339  -0.305  0.00  0.00     0.109 H 
ATOM      6  C4  <0> d           0.714  -0.509  -1.181  0.00  0.00     0.147 C 
ATOM      7  N1  <0> d           0.002  -0.004   0.002  0.00  0.00     0.088 N 
ATOM      8  C5  <0> d           2.840  -0.404  -2.401  0.00  0.00     0.093 C 
ATOM      9  N2  <0> d           3.376  -0.743  -3.344  0.00  0.00    -0.194 NA
ATOM     10  H2  <0> d          -0.527   1.818   0.907  0.00  0.00     0.082 H 
ATOM     11  H3  <0> d          -0.544   1.828  -0.873  0.00  0.00     0.082 H 
ATOM     12  H4  <0> d           1.410   3.079  -0.052  0.00  0.00     0.077 H 
ATOM     13  H5  <0> d           1.930   1.673   0.909  0.00  0.00     0.077 H 
ATOM     14  H6  <0> d           0.199  -0.179  -2.084  0.00  0.00     0.085 H 
ATOM     15  H7  <0> d           0.739  -1.598  -1.154  0.00  0.00     0.085 H 
ATOM     16  H8  <0> d           0.411  -0.365   0.851  0.00  0.00     0.316 HD
ENDROOT
TORSDOF 0
