REMARK  4 active torsions:
REMARK  status: ('A' for Active; 'I' for Inactive)
REMARK    1  A    between atoms: C1_1  and  C2_2 
REMARK    2  A    between atoms: C2_2  and  C3_3 
REMARK    3  A    between atoms: C2_2  and  C4_4 
REMARK    4  A    between atoms: C2_2  and  N1_6 
REMARK       I    between atoms: N1_6  and  C6_7 
REMARK       I    between atoms: C6_7  and  N2_9 
ROOT
ATOM      1  C4  <0> d           0.002  -0.004   0.002  0.00  0.00    -0.086 C 
ATOM      2  C5  <0> d           0.018  -1.178  -0.004  0.00  0.00    -0.151 C 
ATOM      3  H7  <0> d           0.032  -2.228  -0.010  0.00  0.00     0.166 H 
ENDROOT
BRANCH   1   4
ATOM      4  C2  <0> d          -0.018   1.468   0.010  0.00  0.00     0.090 C 
BRANCH   4   5
ATOM      5  C1  <0> d          -0.758   1.975  -1.229  0.00  0.00    -0.043 C 
ATOM      6  H1  <0> d          -1.780   1.597  -1.222  0.00  0.00     0.032 H 
ATOM      7  H2  <0> d          -0.773   3.064  -1.223  0.00  0.00     0.032 H 
ATOM      8  H3  <0> d          -0.248   1.623  -2.126  0.00  0.00     0.032 H 
ENDBRANCH   4   5
BRANCH   4   9
ATOM      9  C3  <0> d          -0.734   1.961   1.269  0.00  0.00    -0.043 C 
ATOM     10  H4  <0> d          -0.207   1.600   2.152  0.00  0.00     0.032 H 
ATOM     11  H5  <0> d          -0.749   3.051   1.275  0.00  0.00     0.032 H 
ATOM     12  H6  <0> d          -1.757   1.584   1.277  0.00  0.00     0.032 H 
ENDBRANCH   4   9
BRANCH   4  13
ATOM     13  N1  <0> d           1.357   1.975  -0.000  0.00  0.00    -0.324 N 
ATOM     14  C6  <0> d           1.585   3.303   0.005  0.00  0.00     0.315 C 
ATOM     15  O1  <0> d           0.650   4.081   0.018  0.00  0.00    -0.248 OA
ATOM     16  N2  <0> d           2.849   3.770  -0.005  0.00  0.00    -0.352 N 
ATOM     17  H9  <0> d           3.595   3.149  -0.015  0.00  0.00     0.160 HD
ATOM     18  H10 <0> d           3.014   4.726  -0.001  0.00  0.00     0.160 HD
ATOM     19  H8  <0> d           2.102   1.355  -0.011  0.00  0.00     0.166 HD
ENDBRANCH   4  13
ENDBRANCH   1   4
TORSDOF 4
