REMARK  1 active torsions:
REMARK  status: ('A' for Active; 'I' for Inactive)
REMARK    1  A    between atoms: C1_1  and  C2_2 
ROOT
ATOM      1  C2  <0> d           1.485  -0.426   0.044  0.00  0.00    -0.028 C 
ATOM      2  H1  <0> d           1.644  -1.212   0.782  0.00  0.00     0.043 H 
ATOM      3  C3  <0> d           2.188   0.886   0.469  0.00  0.00     0.021 C 
ATOM      4  C4  <0> d           1.222   1.957   0.001  0.00  0.00     0.259 C 
ATOM      5  O1  <0> d           1.522   3.081  -0.327  0.00  0.00    -0.265 OA
ATOM      6  O2  <0> d          -0.018   1.450   0.010  0.00  0.00    -0.321 OA
ATOM      7  C5  <0> d           0.002  -0.004   0.002  0.00  0.00     0.032 C 
ATOM      8  H5  <0> d           2.310   0.924   1.552  0.00  0.00     0.048 H 
ATOM      9  H6  <0> d           3.151   0.986  -0.030  0.00  0.00     0.048 H 
ATOM     10  H7  <0> d          -0.520  -0.389   0.878  0.00  0.00     0.075 H 
ATOM     11  H8  <0> d          -0.467  -0.379  -0.908  0.00  0.00     0.075 H 
ENDROOT
BRANCH   1  12
ATOM     12  C1  <0> d           1.963  -0.876  -1.338  0.00  0.00    -0.070 C 
ATOM     13  H2  <0> d           1.828  -0.063  -2.052  0.00  0.00     0.028 H 
ATOM     14  H3  <0> d           3.018  -1.143  -1.288  0.00  0.00     0.028 H 
ATOM     15  H4  <0> d           1.383  -1.741  -1.659  0.00  0.00     0.028 H 
ENDBRANCH   1  12
TORSDOF 1
