REMARK  8 active torsions:
REMARK  status: ('A' for Active; 'I' for Inactive)
REMARK    1  A    between atoms: C1_1  and  C2_2 
REMARK    2  A    between atoms: C2_2  and  C3_3 
REMARK    3  A    between atoms: C2_2  and  C4_4 
REMARK    4  A    between atoms: C4_4  and  C5_5 
REMARK    5  A    between atoms: C5_5  and  C6_6 
REMARK    6  A    between atoms: C5_5  and  C7_7 
REMARK    7  A    between atoms: C5_5  and  O1_10 
REMARK    8  A    between atoms: C7_7  and  C8_8 
ROOT
ATOM      1  C5  <0> d          -0.132  -0.533   2.519  0.00  0.00     0.058 C 
ENDROOT
BRANCH   1   2
ATOM      2  C4  <0> d           0.714  -0.687   1.254  0.00  0.00    -0.034 C 
ATOM      3  H8  <0> d           0.771  -1.740   0.981  0.00  0.00     0.037 H 
ATOM      4  H9  <0> d           1.718  -0.305   1.440  0.00  0.00     0.037 H 
BRANCH   2   5
ATOM      5  C2  <0> d           0.072   0.103   0.112  0.00  0.00    -0.059 C 
ATOM      6  H4  <0> d          -0.088   1.134   0.428  0.00  0.00     0.039 H 
BRANCH   5   7
ATOM      7  C1  <0> d           0.998   0.082  -1.106  0.00  0.00    -0.073 C 
ATOM      8  H1  <0> d           1.230  -0.950  -1.369  0.00  0.00     0.028 H 
ATOM      9  H2  <0> d           0.504   0.569  -1.947  0.00  0.00     0.028 H 
ATOM     10  H3  <0> d           1.921   0.612  -0.871  0.00  0.00     0.028 H 
ENDBRANCH   5   7
BRANCH   5  11
ATOM     11  C3  <0> d          -1.270  -0.533  -0.257  0.00  0.00    -0.073 C 
ATOM     12  H5  <0> d          -1.131  -1.600  -0.427  0.00  0.00     0.028 H 
ATOM     13  H6  <0> d          -1.978  -0.384   0.558  0.00  0.00     0.028 H 
ATOM     14  H7  <0> d          -1.656  -0.067  -1.163  0.00  0.00     0.028 H 
ENDBRANCH   5  11
ENDBRANCH   2   5
ENDBRANCH   1   2
BRANCH   1  15
ATOM     15  C6  <0> d          -0.335   0.953   2.820  0.00  0.00    -0.048 C 
ATOM     16  H10 <0> d          -0.926   1.407   2.025  0.00  0.00     0.031 H 
ATOM     17  H11 <0> d          -0.857   1.064   3.771  0.00  0.00     0.031 H 
ATOM     18  H12 <0> d           0.635   1.447   2.879  0.00  0.00     0.031 H 
ENDBRANCH   1  15
BRANCH   1  19
ATOM     19  C7  <0> d           0.584  -1.199   3.696  0.00  0.00    -0.022 C 
ATOM     20  H13 <0> d           0.728  -2.258   3.482  0.00  0.00     0.043 H 
ATOM     21  H14 <0> d           1.553  -0.724   3.848  0.00  0.00     0.043 H 
BRANCH  19  22
ATOM     22  C8  <0> d          -0.250  -1.048   4.942  0.00  0.00    -0.109 C 
ATOM     23  C9  <0> d          -0.593  -2.107   5.633  0.00  0.00    -0.125 C 
ATOM     24  H16 <0> d          -0.278  -3.088   5.310  0.00  0.00     0.066 H 
ATOM     25  H17 <0> d          -1.191  -1.998   6.526  0.00  0.00     0.066 H 
ATOM     26  H15 <0> d          -0.566  -0.067   5.265  0.00  0.00     0.075 H 
ENDBRANCH  19  22
ENDBRANCH   1  19
BRANCH   1  27
ATOM     27  O1  <0> d          -1.403  -1.156   2.320  0.00  0.00    -0.390 OA
ATOM     28  H18 <0> d          -1.351  -2.102   2.125  0.00  0.00     0.210 HD
ENDBRANCH   1  27
TORSDOF 8
