REMARK  6 active torsions:
REMARK  status: ('A' for Active; 'I' for Inactive)
REMARK    1  A    between atoms: C1_1  and  C2_2 
REMARK    2  A    between atoms: C2_2  and  C3_3 
REMARK    3  A    between atoms: C3_3  and  C4_4 
REMARK    4  A    between atoms: C4_4  and  O1_5 
REMARK    5  A    between atoms: O1_5  and  C5_6 
REMARK    6  A    between atoms: C7_9  and  C8_11 
ROOT
ATOM      1  C4  <0> d          -0.753   1.593  -1.232  0.00  0.00     0.020 C 
ATOM      2  H10 <0> d          -1.785   1.212  -1.224  0.00  0.00     0.074 H 
ATOM      3  H11 <0> d          -0.768   2.693  -1.225  0.00  0.00     0.074 H 
ENDROOT
BRANCH   1   4
ATOM      4  C3  <0> d          -0.013   1.086   0.008  0.00  0.00    -0.045 C 
ATOM      5  H8  <0> d           1.019   1.466   0.000  0.00  0.00     0.036 H 
ATOM      6  H9  <0> d           0.002  -0.014   0.002  0.00  0.00     0.036 H 
BRANCH   4   7
ATOM      7  C2  <0> d          -0.729   1.579   1.267  0.00  0.00    -0.067 C 
ATOM      8  H6  <0> d          -1.761   1.198   1.275  0.00  0.00     0.032 H 
ATOM      9  H7  <0> d          -0.744   2.679   1.273  0.00  0.00     0.032 H 
BRANCH   7  10
ATOM     10  C1  <0> d           0.011   1.072   2.506  0.00  0.00    -0.076 C 
ATOM     11  H3  <0> d          -0.504   1.427   3.411  0.00  0.00     0.027 H 
ATOM     12  H4  <0> d           1.043   1.453   2.498  0.00  0.00     0.027 H 
ATOM     13  H5  <0> d           0.026  -0.028   2.500  0.00  0.00     0.027 H 
ENDBRANCH   7  10
ENDBRANCH   4   7
ENDBRANCH   1   4
BRANCH   1  14
ATOM     14  O1  <0> d          -0.084   1.132  -2.407  0.00  0.00    -0.385 OA
BRANCH  14  15
ATOM     15  C5  <0> d          -0.698   1.552  -3.627  0.00  0.00     0.052 A 
ATOM     16  H1  <0> d          -1.426   2.153  -3.064  0.00  0.00     0.084 H 
ATOM     17  C7  <0> d           0.210   1.750  -4.843  0.00  0.00     0.058 A 
ATOM     18  C6  <0> d          -0.735   0.548  -4.782  0.00  0.00    -0.025 A 
ATOM     19  H2  <0> d           1.290   1.892  -5.001  0.00  0.00     0.060 H 
ATOM     20  H12 <0> d          -0.464  -0.450  -4.408  0.00  0.00     0.038 H 
ATOM     21  H13 <0> d          -1.748   0.518  -5.209  0.00  0.00     0.038 H 
BRANCH  17  22
ATOM     22  C8  <0> d          -0.139   2.862  -5.798  0.00  0.00     0.179 C 
ATOM     23  O2  <0> d          -1.105   3.557  -5.589  0.00  0.00    -0.648 OA
ATOM     24  O3  <0> d           0.623   3.081  -6.881  0.00  0.00    -0.648 OA
ENDBRANCH  17  22
ENDBRANCH  14  15
ENDBRANCH   1  14
TORSDOF 6
