REMARK  0 active torsions:
REMARK  status: ('A' for Active; 'I' for Inactive)
ROOT
ATOM      1  C1  <0> d          -0.880   3.187   0.804  0.00  0.00    -0.052 C 
ATOM      2  C2  <0> d          -0.904   3.194  -0.746  0.00  0.00    -0.045 C 
ATOM      3  C3  <0> d          -0.922   1.680  -1.127  0.00  0.00     0.013 C 
ATOM      4  H1  <0> d          -0.645   1.430  -2.151  0.00  0.00     0.072 H 
ATOM      5  C4  <0> d          -0.013   1.086   0.008  0.00  0.00    -0.035 C 
ATOM      6  C5  <0> d          -0.901   1.668   1.168  0.00  0.00     0.025 C 
ATOM      7  H2  <0> d          -0.621   1.397   2.186  0.00  0.00     0.054 H 
ATOM      8  C6  <0> d          -2.281   1.194   0.681  0.00  0.00     0.222 C 
ATOM      9  O1  <0> d          -3.216   0.870   1.382  0.00  0.00    -0.273 OA
ATOM     10  N1  <0> d          -2.260   1.203  -0.675  0.00  0.00    -0.356 N 
ATOM     11  H3  <0> d          -1.761   3.689   1.204  0.00  0.00     0.034 H 
ATOM     12  H4  <0> d           0.029   3.658   1.176  0.00  0.00     0.034 H 
ATOM     13  H5  <0> d          -0.010   3.677  -1.139  0.00  0.00     0.036 H 
ATOM     14  H6  <0> d          -1.802   3.691  -1.113  0.00  0.00     0.036 H 
ATOM     15  H7  <0> d           0.002  -0.004   0.002  0.00  0.00     0.037 H 
ATOM     16  H8  <0> d           0.992   1.508   0.001  0.00  0.00     0.037 H 
ATOM     17  H9  <0> d          -2.994   0.943  -1.254  0.00  0.00     0.162 HD
ENDROOT
TORSDOF 0
