REMARK  2 active torsions:
REMARK  status: ('A' for Active; 'I' for Inactive)
REMARK    1  A    between atoms: C1_1  and  C2_2 
REMARK    2  A    between atoms: C9_11  and  C10_13 
ROOT
ATOM      1  C2  <0> d          -0.000   1.080   2.525  0.00  0.00    -0.011 A 
ATOM      2  H1  <0> d          -0.677   0.498   3.151  0.00  0.00     0.050 H 
ATOM      3  C3  <0> d           0.428   2.341   3.241  0.00  0.00    -0.026 A 
ATOM      4  C4  <0> d           1.119   2.522   4.424  0.00  0.00    -0.074 A 
ATOM      5  C5  <0> d           1.395   3.798   4.879  0.00  0.00    -0.082 A 
ATOM      6  C6  <0> d           0.978   4.895   4.147  0.00  0.00    -0.081 A 
ATOM      7  C7  <0> d           0.289   4.720   2.967  0.00  0.00    -0.057 A 
ATOM      8  C8  <0> d           0.005   3.434   2.500  0.00  0.00     0.035 A 
ATOM      9  N1  <0> d          -0.671   3.041   1.344  0.00  0.00    -0.385 N 
ATOM     10  C9  <0> d          -0.729   1.579   1.267  0.00  0.00     0.013 A 
ATOM     11  H2  <0> d          -1.764   1.239   1.270  0.00  0.00     0.072 H 
ATOM     12  H6  <0> d           1.444   1.664   4.995  0.00  0.00     0.084 H 
ATOM     13  H7  <0> d           1.935   3.938   5.804  0.00  0.00     0.083 H 
ATOM     14  H8  <0> d           1.193   5.892   4.502  0.00  0.00     0.083 H 
ATOM     15  H9  <0> d          -0.034   5.580   2.400  0.00  0.00     0.086 H 
ATOM     16  H10 <0> d          -1.048   3.648   0.688  0.00  0.00     0.160 HD
ENDROOT
BRANCH   1  17
ATOM     17  C1  <0> d           1.222   0.245   2.139  0.00  0.00    -0.067 C 
ATOM     18  H3  <0> d           1.908   0.855   1.550  0.00  0.00     0.028 H 
ATOM     19  H4  <0> d           1.726  -0.100   3.041  0.00  0.00     0.028 H 
ATOM     20  H5  <0> d           0.903  -0.615   1.549  0.00  0.00     0.028 H 
ENDBRANCH   1  17
BRANCH  10  21
ATOM     21  C10 <0> d          -0.013   1.086   0.008  0.00  0.00    -0.057 C 
ATOM     22  H11 <0> d           0.002  -0.004   0.002  0.00  0.00     0.030 H 
ATOM     23  H12 <0> d           1.010   1.463   0.000  0.00  0.00     0.030 H 
ATOM     24  H13 <0> d          -0.540   1.447  -0.875  0.00  0.00     0.030 H 
ENDBRANCH  10  21
TORSDOF 2
