REMARK  4 active torsions:
REMARK  status: ('A' for Active; 'I' for Inactive)
REMARK    1  A    between atoms: C1_1  and  C2_2 
REMARK    2  A    between atoms: C3_3  and  C7_10 
REMARK    3  A    between atoms: C4_5  and  C5_8 
REMARK    4  A    between atoms: C7_10  and  C8_12 
ROOT
ATOM      1  C2  <0> d          -4.583   0.505   0.028  0.00  0.00     0.039 A 
ATOM      2  C3  <0> d          -3.856  -0.668   0.018  0.00  0.00     0.126 A 
ATOM      3  N1  <0> d          -2.546  -0.337   0.013  0.00  0.00    -0.226 NA
ATOM      4  C4  <0> d          -2.437   0.971   0.019  0.00  0.00     0.127 A 
ATOM      5  N2  <0> d          -3.691   1.521   0.033  0.00  0.00    -0.343 N 
ATOM      6  H1  <0> d          -4.043   2.562   0.047  0.00  0.00     0.167 HD
ENDROOT
BRANCH   2   7
ATOM      7  C7  <0> d          -4.405  -2.026   0.014  0.00  0.00     0.176 C 
ATOM      8  O1  <0> d          -5.606  -2.195   0.020  0.00  0.00    -0.291 OA
BRANCH   7   9
ATOM      9  C8  <0> d          -3.477  -3.214   0.003  0.00  0.00    -0.015 C 
ATOM     10  H8  <0> d          -4.069  -4.141   0.002  0.00  0.00     0.038 H 
ATOM     11  H9  <0> d          -2.838  -3.188   0.898  0.00  0.00     0.038 H 
ATOM     12  H10 <0> d          -2.848  -3.179  -0.898  0.00  0.00     0.038 H 
ENDBRANCH   7   9
ENDBRANCH   2   7
BRANCH   1  13
ATOM     13  C1  <0> d          -6.085   0.630   0.036  0.00  0.00    -0.035 C 
ATOM     14  H2  <0> d          -6.537  -0.373   0.028  0.00  0.00     0.035 H 
ATOM     15  H3  <0> d          -6.412   1.186  -0.855  0.00  0.00     0.035 H 
ATOM     16  H4  <0> d          -6.403   1.168   0.941  0.00  0.00     0.035 H 
ENDBRANCH   1  13
BRANCH   4  17
ATOM     17  C5  <0> d          -1.172   1.724   0.017  0.00  0.00    -0.048 C 
ATOM     18  C6  <0> d          -0.013   1.076   0.008  0.00  0.00    -0.118 C 
ATOM     19  H6  <0> d           0.932   1.639   0.007  0.00  0.00     0.066 H 
ATOM     20  H7  <0> d           0.002  -0.024   0.002  0.00  0.00     0.066 H 
ATOM     21  H5  <0> d          -1.187   2.824   0.023  0.00  0.00     0.088 H 
ENDBRANCH   4  17
TORSDOF 4
