REMARK  2 active torsions:
REMARK  status: ('A' for Active; 'I' for Inactive)
REMARK    1  A    between atoms: C1_1  and  C2_2 
REMARK    2  A    between atoms: C6_6  and  C8_8 
ROOT
ATOM      1  C2  <0> d           0.002  -0.004   0.002  0.00  0.00    -0.061 A 
ATOM      2  C3  <0> d           0.006  -0.688  -1.201  0.00  0.00    -0.077 A 
ATOM      3  C4  <0> d           0.024  -2.071  -1.219  0.00  0.00    -0.081 A 
ATOM      4  C5  <0> d           0.039  -2.779  -0.035  0.00  0.00    -0.066 A 
ATOM      5  C6  <0> d           0.036  -2.096   1.184  0.00  0.00     0.041 A 
ATOM      6  C7  <0> d           0.023  -0.698   1.193  0.00  0.00    -0.061 A 
ATOM      7  H4  <0> d          -0.006  -0.139  -2.131  0.00  0.00     0.084 H 
ATOM      8  H5  <0> d           0.027  -2.598  -2.161  0.00  0.00     0.083 H 
ATOM      9  H6  <0> d           0.053  -3.859  -0.050  0.00  0.00     0.085 H 
ATOM     10  H7  <0> d           0.025  -0.163   2.132  0.00  0.00     0.086 H 
ENDROOT
BRANCH   1  11
ATOM     11  C1  <0> d          -0.018   1.503   0.010  0.00  0.00    -0.051 C 
ATOM     12  H1  <0> d           1.004   1.880   0.003  0.00  0.00     0.033 H 
ATOM     13  H2  <0> d          -0.545   1.864  -0.873  0.00  0.00     0.033 H 
ATOM     14  H3  <0> d          -0.529   1.854   0.907  0.00  0.00     0.033 H 
ENDBRANCH   1  11
BRANCH   5  15
ATOM     15  C8  <0> d           0.051  -2.845   2.454  0.00  0.00     0.209 C 
ATOM     16  O1  <0> d           0.068  -4.068   2.442  0.00  0.00    -0.644 OA
ATOM     17  O2  <0> d           0.048  -2.244   3.519  0.00  0.00    -0.644 OA
ENDBRANCH   5  15
TORSDOF 2
