REMARK  1 active torsions:
REMARK  status: ('A' for Active; 'I' for Inactive)
REMARK    1  A    between atoms: C3_3  and  C8_12 
ROOT
ATOM      1  C1  <0> d          -0.019   1.543   0.011  0.00  0.00    -0.060 C 
ATOM      2  C2  <0> d           1.487   1.906  -0.002  0.00  0.00    -0.051 C 
ATOM      3  C3  <0> d           2.122   0.855  -0.935  0.00  0.00     0.041 C 
ATOM      4  H1  <0> d           2.214   1.259  -1.944  0.00  0.00     0.057 H 
ATOM      5  C4  <0> d           1.178  -0.361  -0.938  0.00  0.00     0.021 C 
ATOM      6  H2  <0> d           1.667  -1.316  -0.750  0.00  0.00     0.053 H 
ATOM      7  C5  <0> d           0.002  -0.004   0.002  0.00  0.00    -0.037 C 
ATOM      8  H3  <0> d          -0.007  -0.475   0.985  0.00  0.00     0.041 H 
ATOM      9  C6  <0> d          -0.904  -0.623  -1.069  0.00  0.00    -0.005 C 
ATOM     10  C7  <0> d           0.198  -0.344  -2.093  0.00  0.00     0.132 C 
ATOM     11  O1  <0> d           0.265  -0.178  -3.287  0.00  0.00    -0.298 OA
ATOM     12  H4  <0> d          -0.499   1.917   0.914  0.00  0.00     0.033 H 
ATOM     13  H5  <0> d          -0.516   1.927  -0.880  0.00  0.00     0.033 H 
ATOM     14  H6  <0> d           1.634   2.909  -0.401  0.00  0.00     0.034 H 
ATOM     15  H7  <0> d           1.906   1.828   1.001  0.00  0.00     0.034 H 
ATOM     16  H8  <0> d          -1.086  -1.688  -0.922  0.00  0.00     0.044 H 
ATOM     17  H9  <0> d          -1.820  -0.059  -1.242  0.00  0.00     0.044 H 
ENDROOT
BRANCH   3  18
ATOM     18  C8  <0> d           3.478   0.455  -0.415  0.00  0.00     0.177 C 
ATOM     19  O2  <0> d           3.922   0.976   0.594  0.00  0.00    -0.648 OA
ATOM     20  O3  <0> d           4.132  -0.389  -1.003  0.00  0.00    -0.648 OA
ENDBRANCH   3  18
TORSDOF 1
