REMARK  6 active torsions:
REMARK  status: ('A' for Active; 'I' for Inactive)
REMARK    1  A    between atoms: C1_1  and  C2_2 
REMARK    2  A    between atoms: C2_2  and  N1_3 
REMARK    3  A    between atoms: C3_4  and  N4_11 
REMARK    4  A    between atoms: C4_5  and  N3_10 
REMARK    5  A    between atoms: C5_6  and  C6_8 
REMARK    6  A    between atoms: C6_8  and  O1_9 
ROOT
ATOM      1  N1  <0> d          -2.124   1.748  -2.917  0.00  0.00    -0.252 N 
ATOM      2  C3  <0> d          -1.360   2.875  -2.928  0.00  0.00     0.146 A 
ATOM      3  C4  <0> d          -0.494   2.792  -1.877  0.00  0.00     0.100 A 
ATOM      4  C5  <0> d          -0.742   1.585  -1.213  0.00  0.00     0.108 A 
ATOM      5  N2  <0> d          -1.710   0.960  -1.835  0.00  0.00    -0.171 NA
ENDROOT
BRANCH   1   6
ATOM      6  C2  <0> d          -3.187   1.417  -3.869  0.00  0.00     0.015 C 
ATOM      7  H4  <0> d          -3.650   2.344  -4.238  0.00  0.00     0.066 H 
ATOM      8  H5  <0> d          -3.948   0.801  -3.369  0.00  0.00     0.066 H 
BRANCH   6   9
ATOM      9  C1  <0> d          -2.593   0.640  -5.046  0.00  0.00    -0.059 C 
ATOM     10  H1  <0> d          -3.391   0.391  -5.761  0.00  0.00     0.029 H 
ATOM     11  H2  <0> d          -2.130  -0.287  -4.676  0.00  0.00     0.029 H 
ATOM     12  H3  <0> d          -1.832   1.256  -5.546  0.00  0.00     0.029 H 
ENDBRANCH   6   9
ENDBRANCH   1   6
BRANCH   2  13
ATOM     13  N4  <0> d          -1.446   3.923  -3.848  0.00  0.00    -0.382 N 
ATOM     14  H11 <0> d          -0.773   4.789  -3.759  0.00  0.00     0.157 HD
ATOM     15  H12 <0> d          -2.186   3.882  -4.660  0.00  0.00     0.157 HD
ENDBRANCH   2  13
BRANCH   4  16
ATOM     16  C6  <0> d          -0.013   1.086   0.008  0.00  0.00     0.060 C 
ATOM     17  H6  <0> d           0.002  -0.014   0.002  0.00  0.00     0.084 H 
ATOM     18  H7  <0> d           1.019   1.466   0.000  0.00  0.00     0.084 H 
BRANCH  16  19
ATOM     19  O1  <0> d          -0.682   1.547   1.184  0.00  0.00    -0.395 OA
ATOM     20  H8  <0> d          -0.293   1.281   2.178  0.00  0.00     0.209 HD
ENDBRANCH  16  19
ENDBRANCH   4  16
BRANCH   3  21
ATOM     21  N3  <0> d           0.478   3.755  -1.521  0.00  0.00    -0.394 N 
ATOM     22  H9  <0> d           1.127   3.585  -0.649  0.00  0.00     0.156 HD
ATOM     23  H10 <0> d           0.587   4.673  -2.116  0.00  0.00     0.156 HD
ENDBRANCH   3  21
TORSDOF 6
