REMARK  4 active torsions:
REMARK  status: ('A' for Active; 'I' for Inactive)
REMARK    1  A    between atoms: C1_1  and  C2_2 
REMARK    2  A    between atoms: C2_2  and  O1_3 
REMARK    3  A    between atoms: O1_3  and  C3_4 
REMARK    4  A    between atoms: C3_4  and  C4_6 
ROOT
ATOM      1  C4  <0> d           1.317   0.779  -0.006  0.00  0.00     0.137 A 
ATOM      2  C5  <0> d          -0.019   1.526   0.010  0.00  0.00    -0.035 A 
ATOM      3  C6  <0> d           0.002  -0.004   0.002  0.00  0.00    -0.035 A 
ATOM      4  C7  <0> d           2.089   0.796  -1.259  0.00  0.00     0.079 C 
ATOM      5  N1  <0> d           2.686   0.810  -2.226  0.00  0.00    -0.196 NA
ATOM      6  H6  <0> d          -0.325   2.030  -0.906  0.00  0.00     0.036 H 
ATOM      7  H7  <0> d          -0.307   2.020   0.938  0.00  0.00     0.036 H 
ATOM      8  H8  <0> d          -0.273  -0.516   0.924  0.00  0.00     0.036 H 
ATOM      9  H9  <0> d          -0.290  -0.506  -0.920  0.00  0.00     0.036 H 
ENDROOT
BRANCH   1  10
ATOM     10  C3  <0> d           2.132   0.783   1.261  0.00  0.00     0.281 C 
ATOM     11  O2  <0> d           1.724   1.362   2.240  0.00  0.00    -0.263 OA
BRANCH  10  12
ATOM     12  O1  <0> d           3.312   0.143   1.302  0.00  0.00    -0.320 OA
BRANCH  12  13
ATOM     13  C2  <0> d           4.043   0.189   2.556  0.00  0.00     0.025 C 
ATOM     14  H4  <0> d           4.263   1.226   2.810  0.00  0.00     0.074 H 
ATOM     15  H5  <0> d           3.439  -0.258   3.345  0.00  0.00     0.074 H 
BRANCH  13  16
ATOM     16  C1  <0> d           5.352  -0.589   2.411  0.00  0.00    -0.056 C 
ATOM     17  H1  <0> d           5.132  -1.626   2.156  0.00  0.00     0.030 H 
ATOM     18  H2  <0> d           5.956  -0.141   1.622  0.00  0.00     0.030 H 
ATOM     19  H3  <0> d           5.901  -0.555   3.352  0.00  0.00     0.030 H 
ENDBRANCH  13  16
ENDBRANCH  12  13
ENDBRANCH  10  12
ENDBRANCH   1  10
TORSDOF 4
