REMARK  3 active torsions:
REMARK  status: ('A' for Active; 'I' for Inactive)
REMARK    1  A    between atoms: C1_1  and  N1_2 
REMARK       I    between atoms: N1_2  and  C2_3 
REMARK    2  A    between atoms: C2_3  and  C3_5 
REMARK    3  A    between atoms: C4_8  and  N5_11 
ROOT
ATOM      1  C3  <0> d           1.285  -0.722  -0.014  0.00  0.00     0.255 A 
ATOM      2  N2  <0> d           1.459  -2.090  -0.023  0.00  0.00    -0.036 NA
ATOM      3  H1  <0> d           4.444  -0.840  -0.040  0.00  0.00     0.208 HD
ATOM      4  C4  <0> d           2.798  -2.292  -0.037  0.00  0.00     0.716 A 
ATOM      5  N3  <0> d           3.377  -1.105  -0.035  0.00  0.00    -0.106 N 
ATOM      6  N4  <0> d           2.484  -0.180  -0.027  0.00  0.00    -0.133 NA
ENDROOT
BRANCH   1   7
ATOM      7  C2  <0> d           0.002  -0.004   0.006  0.00  0.00     0.291 C 
ATOM      8  N1  <0> d          -0.016   1.344   0.018  0.00  0.00    -0.359 N 
ATOM      9  H5  <0> d           0.929   1.907   0.017  0.00  0.00     0.162 HD
ATOM     10  O1  <0> d          -1.043  -0.627   0.012  0.00  0.00    -0.264 OA
BRANCH   8  11
ATOM     11  C1  <0> d          -1.295   2.059   0.032  0.00  0.00    -0.018 C 
ATOM     12  H2  <0> d          -1.108   3.143   0.040  0.00  0.00     0.056 H 
ATOM     13  H3  <0> d          -1.862   1.778   0.931  0.00  0.00     0.056 H 
ATOM     14  H4  <0> d          -1.873   1.793  -0.865  0.00  0.00     0.056 H 
ENDBRANCH   8  11
ENDBRANCH   1   7
BRANCH   4  15
ATOM     15  N5  <0> d           3.438  -3.511  -0.050  0.00  0.00    -0.231 N 
ATOM     16  H6  <0> d           4.537  -3.555  -0.061  0.00  0.00     0.174 HD
ATOM     17  H7  <0> d           2.851  -4.441  -0.050  0.00  0.00     0.174 HD
ENDBRANCH   4  15
TORSDOF 3
