REMARK  1 active torsions:
REMARK  status: ('A' for Active; 'I' for Inactive)
REMARK    1  A    between atoms: C4_4  and  O1_11 
ROOT
ATOM      1  C1  <0> d          -0.017   1.388   0.010  0.00  0.00    -0.018 A 
ATOM      2  C2  <0> d           1.168   2.093   0.002  0.00  0.00     0.121 A 
ATOM      3  C3  <0> d           2.388   1.426  -0.013  0.00  0.00    -0.013 A 
ATOM      4  C4  <0> d           2.432   0.047  -0.021  0.00  0.00     0.082 A 
ATOM      5  C5  <0> d           1.233  -0.686  -0.013  0.00  0.00     0.044 A 
ATOM      6  C6  <0> d           0.002  -0.004   0.002  0.00  0.00     0.067 A 
ATOM      7  N1  <0> d          -0.977  -0.965   0.006  0.00  0.00    -0.278 N 
ATOM      8  H1  <0> d          -1.963  -0.798   0.017  0.00  0.00     0.189 HD
ATOM      9  N2  <0> d          -0.356  -2.219  -0.006  0.00  0.00    -0.186 NA
ATOM     10  C7  <0> d           0.937  -2.070  -0.018  0.00  0.00     0.036 A 
ATOM     11  F1  <0> d           1.144   3.444   0.010  0.00  0.00    -0.206 F 
ATOM     12  H2  <0> d          -0.959   1.916   0.017  0.00  0.00     0.091 H 
ATOM     13  H3  <0> d           3.308   1.991  -0.019  0.00  0.00     0.092 H 
ATOM     14  H4  <0> d           1.663  -2.869  -0.029  0.00  0.00     0.118 H 
ENDROOT
BRANCH   4  15
ATOM     15  O1  <0> d           3.627  -0.598  -0.036  0.00  0.00    -0.360 OA
ATOM     16  H5  <0> d           3.964  -0.780  -0.924  0.00  0.00     0.217 HD
ENDBRANCH   4  15
TORSDOF 1
