REMARK  5 active torsions:
REMARK  status: ('A' for Active; 'I' for Inactive)
REMARK    1  A    between atoms: C1_1  and  O1_2 
REMARK    2  A    between atoms: O1_2  and  C2_3 
REMARK    3  A    between atoms: C2_3  and  C3_5 
REMARK    4  A    between atoms: C3_5  and  C4_6 
REMARK    5  A    between atoms: C4_6  and  C5_7 
ROOT
ATOM      1  C4  <0> d           1.810  -1.793  -0.025  0.00  0.00    -0.015 C 
ATOM      2  H7  <0> d           2.352  -1.991   0.900  0.00  0.00     0.043 H 
ATOM      3  H8  <0> d           0.971  -2.483  -0.110  0.00  0.00     0.043 H 
ENDROOT
BRANCH   1   4
ATOM      4  C3  <0> d           2.751  -1.983  -1.217  0.00  0.00     0.021 C 
ATOM      5  H5  <0> d           2.210  -1.785  -2.142  0.00  0.00     0.048 H 
ATOM      6  H6  <0> d           3.590  -1.293  -1.131  0.00  0.00     0.048 H 
BRANCH   4   7
ATOM      7  C2  <0> d           3.265  -3.400  -1.229  0.00  0.00     0.258 C 
ATOM      8  O2  <0> d           2.915  -4.177  -0.373  0.00  0.00    -0.265 OA
BRANCH   7   9
ATOM      9  O1  <0> d           4.112  -3.798  -2.192  0.00  0.00    -0.326 OA
BRANCH   9  10
ATOM     10  C1  <0> d           4.566  -5.176  -2.141  0.00  0.00     0.013 C 
ATOM     11  H2  <0> d           5.088  -5.353  -1.201  0.00  0.00     0.067 H 
ATOM     12  H3  <0> d           3.708  -5.845  -2.211  0.00  0.00     0.067 H 
ATOM     13  H4  <0> d           5.243  -5.366  -2.974  0.00  0.00     0.067 H 
ENDBRANCH   9  10
ENDBRANCH   7   9
ENDBRANCH   4   7
ENDBRANCH   1   4
BRANCH   1  14
ATOM     14  C5  <0> d           1.296  -0.376  -0.012  0.00  0.00     0.051 A 
ATOM     15  N2  <0> d           2.047   0.735  -0.013  0.00  0.00    -0.247 NA
ATOM     16  C7  <0> d           1.268   1.782  -0.001  0.00  0.00     0.064 A 
ATOM     17  N1  <0> d          -0.017   1.365   0.009  0.00  0.00    -0.359 N 
ATOM     18  H10 <0> d           1.596   2.811   0.002  0.00  0.00     0.143 H 
ATOM     19  C6  <0> d           0.002  -0.004   0.002  0.00  0.00     0.002 A 
ATOM     20  H1  <0> d          -0.829   1.947   0.020  0.00  0.00     0.166 HD
ATOM     21  H9  <0> d          -0.856  -0.660   0.007  0.00  0.00     0.114 H 
ENDBRANCH   1  14
TORSDOF 5
