REMARK  2 active torsions:
REMARK  status: ('A' for Active; 'I' for Inactive)
REMARK    1  A    between atoms: C1_1  and  C2_2 
REMARK    2  A    between atoms: C4_5  and  C5_7 
ROOT
ATOM      1  C2  <0> d           2.151   1.092  -0.013  0.00  0.00     0.038 A 
ATOM      2  C3  <0> d           1.728  -0.205  -0.015  0.00  0.00    -0.019 A 
ATOM      3  S1  <0> d           0.002  -0.004   0.002  0.00  0.00    -0.073 SA
ATOM      4  C4  <0> d          -0.022   1.782   0.012  0.00  0.00     0.174 A 
ATOM      5  N1  <0> d           1.276   2.061   0.001  0.00  0.00    -0.239 NA
ATOM      6  H4  <0> d           2.310  -1.114  -0.026  0.00  0.00     0.098 H 
ENDROOT
BRANCH   1   7
ATOM      7  C1  <0> d           3.625   1.405  -0.025  0.00  0.00    -0.035 C 
ATOM      8  H1  <0> d           3.971   1.486  -1.055  0.00  0.00     0.035 H 
ATOM      9  H2  <0> d           3.800   2.349   0.493  0.00  0.00     0.035 H 
ATOM     10  H3  <0> d           4.170   0.608   0.480  0.00  0.00     0.035 H 
ENDBRANCH   1   7
BRANCH   4  11
ATOM     11  C5  <0> d          -1.172   2.699   0.023  0.00  0.00     0.236 C 
ATOM     12  O1  <0> d          -0.992   3.901   0.028  0.00  0.00    -0.642 OA
ATOM     13  O2  <0> d          -2.427   2.206   0.027  0.00  0.00    -0.642 OA
ENDBRANCH   4  11
TORSDOF 2
