REMARK  3 active torsions:
REMARK  status: ('A' for Active; 'I' for Inactive)
REMARK    1  A    between atoms: C1_1  and  O2_10 
REMARK    2  A    between atoms: C2_2  and  N4_9 
REMARK    3  A    between atoms: C3_4  and  N3_8 
ROOT
ATOM      1  C1  <0> d          -0.017   1.397   0.010  0.00  0.00     0.181 A 
ATOM      2  C2  <0> d           1.192   2.079   0.002  0.00  0.00     0.179 A 
ATOM      3  N1  <0> d           2.342   1.393  -0.013  0.00  0.00    -0.045 NA
ATOM      4  C3  <0> d           2.350   0.078  -0.020  0.00  0.00     0.703 A 
ATOM      5  N2  <0> d           1.193  -0.639  -0.013  0.00  0.00    -0.152 N 
ATOM      6  C4  <0> d           0.002  -0.004   0.002  0.00  0.00     0.296 A 
ATOM      7  O1  <0> d          -1.041  -0.640   0.009  0.00  0.00    -0.264 OA
ATOM      8  H6  <0> d           1.224  -1.608  -0.018  0.00  0.00     0.187 HD
ENDROOT
BRANCH   2   9
ATOM      9  N4  <0> d           1.209   3.463   0.009  0.00  0.00    -0.381 N 
ATOM     10  H3  <0> d           0.375   3.958   0.019  0.00  0.00     0.157 HD
ATOM     11  H4  <0> d           2.054   3.938   0.003  0.00  0.00     0.157 HD
ENDBRANCH   2   9
BRANCH   1  12
ATOM     12  O2  <0> d          -1.199   2.076   0.030  0.00  0.00    -0.353 OA
ATOM     13  H5  <0> d          -1.980   1.506   0.038  0.00  0.00     0.218 HD
ENDBRANCH   1  12
BRANCH   4  14
ATOM     14  N3  <0> d           3.550  -0.586  -0.035  0.00  0.00    -0.233 N 
ATOM     15  H1  <0> d           4.381  -0.085  -0.041  0.00  0.00     0.174 HD
ATOM     16  H2  <0> d           3.568  -1.556  -0.041  0.00  0.00     0.174 HD
ENDBRANCH   4  14
TORSDOF 3
