REMARK  1 active torsions:
REMARK  status: ('A' for Active; 'I' for Inactive)
REMARK    1  A    between atoms: C1_1  and  N1_2 
ROOT
ATOM      1  N1  <0> d          -0.698   1.558   1.213  0.00  0.00    -0.254 N 
ATOM      2  C2  <0> d          -0.125   1.832   2.426  0.00  0.00     0.087 A 
ATOM      3  C3  <0> d           1.168   1.780   2.941  0.00  0.00    -0.036 A 
ATOM      4  C4  <0> d           1.375   2.139   4.243  0.00  0.00     0.004 A 
ATOM      5  N2  <0> d           0.377   2.533   5.018  0.00  0.00    -0.271 NA
ATOM      6  C5  <0> d          -0.864   2.602   4.589  0.00  0.00     0.034 A 
ATOM      7  C6  <0> d          -1.172   2.254   3.270  0.00  0.00     0.126 A 
ATOM      8  N3  <0> d          -2.315   2.219   2.548  0.00  0.00    -0.128 NA
ATOM      9  N4  <0> d          -2.070   1.824   1.348  0.00  0.00    -0.065 NA
ATOM     10  H4  <0> d           1.993   1.462   2.322  0.00  0.00     0.089 H 
ATOM     11  H5  <0> d           2.375   2.102   4.649  0.00  0.00     0.114 H 
ATOM     12  H6  <0> d          -1.647   2.929   5.257  0.00  0.00     0.118 H 
ENDROOT
BRANCH   1  13
ATOM     13  C1  <0> d          -0.013   1.086   0.008  0.00  0.00     0.004 C 
ATOM     14  H1  <0> d           0.002  -0.004   0.002  0.00  0.00     0.059 H 
ATOM     15  H2  <0> d           1.010   1.463   0.000  0.00  0.00     0.059 H 
ATOM     16  H3  <0> d          -0.540   1.447  -0.875  0.00  0.00     0.059 H 
ENDBRANCH   1  13
TORSDOF 1
