REMARK  3 active torsions:
REMARK  status: ('A' for Active; 'I' for Inactive)
REMARK    1  A    between atoms: C1_1  and  C2_2 
REMARK    2  A    between atoms: C6_6  and  C8_8 
REMARK    3  A    between atoms: C8_8  and  C9_10 
ROOT
ATOM      1  C2  <0> d          -1.223   1.748   0.017  0.00  0.00    -0.061 A 
ATOM      2  C3  <0> d          -0.013   1.076   0.008  0.00  0.00    -0.077 A 
ATOM      3  C4  <0> d           1.179   1.780   0.000  0.00  0.00    -0.082 A 
ATOM      4  C5  <0> d           1.168   3.159   0.007  0.00  0.00    -0.070 A 
ATOM      5  C6  <0> d          -0.050   3.846   0.022  0.00  0.00     0.010 A 
ATOM      6  C7  <0> d          -1.250   3.126   0.030  0.00  0.00    -0.064 A 
ATOM      7  H4  <0> d           0.002  -0.004   0.002  0.00  0.00     0.084 H 
ATOM      8  H5  <0> d           2.119   1.249  -0.011  0.00  0.00     0.083 H 
ATOM      9  H6  <0> d           2.098   3.708   0.000  0.00  0.00     0.085 H 
ATOM     10  H7  <0> d          -2.195   3.649   0.042  0.00  0.00     0.085 H 
ENDROOT
BRANCH   5  11
ATOM     11  C8  <0> d          -0.070   5.317   0.029  0.00  0.00     0.155 C 
ATOM     12  O1  <0> d          -1.128   5.909   0.042  0.00  0.00    -0.293 OA
BRANCH  11  13
ATOM     13  C9  <0> d           1.225   6.088   0.021  0.00  0.00    -0.017 C 
ATOM     14  H8  <0> d           1.502   6.264  -0.923  0.00  0.00     0.038 H 
ATOM     15  H9  <0> d           1.086   7.036   0.541  0.00  0.00     0.038 H 
ATOM     16  H10 <0> d           1.997   5.507   0.525  0.00  0.00     0.038 H 
ENDBRANCH  11  13
ENDBRANCH   5  11
BRANCH   1  17
ATOM     17  C1  <0> d          -2.514   0.971   0.019  0.00  0.00    -0.051 C 
ATOM     18  H1  <0> d          -2.820   0.778   1.047  0.00  0.00     0.033 H 
ATOM     19  H2  <0> d          -3.287   1.549  -0.488  0.00  0.00     0.033 H 
ATOM     20  H3  <0> d          -2.369   0.024  -0.500  0.00  0.00     0.033 H 
ENDBRANCH   1  17
TORSDOF 3
