REMARK  2 active torsions:
REMARK  status: ('A' for Active; 'I' for Inactive)
REMARK    1  A    between atoms: C1_1  and  C2_2 
REMARK    2  A    between atoms: C1_1  and  O1_6 
ROOT
ATOM      1  C1  <0> d          -0.733   1.888   1.268  0.00  0.00     0.077 C 
ATOM      2  H1  <0> d          -0.206   1.527   2.152  0.00  0.00     0.082 H 
ATOM      3  H2  <0> d          -0.748   2.978   1.274  0.00  0.00     0.082 H 
ENDROOT
BRANCH   1   4
ATOM      4  C2  <0> d          -0.017   1.395   0.010  0.00  0.00     0.276 C 
ATOM      5  F1  <0> d           0.002  -0.004   0.002  0.00  0.00    -0.205 F 
ATOM      6 Cl1  <0> d           1.675   2.019  -0.003  0.00  0.00    -0.064 Cl
ATOM      7 Cl2  <0> d          -0.889   1.992  -1.451  0.00  0.00    -0.064 Cl
ENDBRANCH   1   4
BRANCH   1   8
ATOM      8  O1  <0> d          -2.074   1.394   1.279  0.00  0.00    -0.395 OA
ATOM      9  H3  <0> d          -2.588   1.668   2.050  0.00  0.00     0.209 HD
ENDBRANCH   1   8
TORSDOF 2
