REMARK  4 active torsions:
REMARK  status: ('A' for Active; 'I' for Inactive)
REMARK    1  A    between atoms: C1_1  and  C2_2 
REMARK    2  A    between atoms: C4_4  and  C9_10 
REMARK    3  A    between atoms: C5_6  and  C8_9 
REMARK    4  A    between atoms: C6_7  and  C7_8 
ROOT
ATOM      1  C2  <0> d          -2.093   1.799   1.254  0.00  0.00    -0.051 A 
ATOM      2  C3  <0> d          -2.631   2.243   2.462  0.00  0.00    -0.048 A 
ATOM      3  C4  <0> d          -1.763   2.423   3.522  0.00  0.00     0.050 A 
ATOM      4  O1  <0> d          -0.578   2.203   3.420  0.00  0.00    -0.320 OA
ATOM      5  C5  <0> d          -0.024   1.813   2.419  0.00  0.00     0.056 A 
ATOM      6  C6  <0> d          -0.718   1.572   1.248  0.00  0.00    -0.027 A 
ATOM      7  H4  <0> d          -3.687   2.443   2.564  0.00  0.00     0.088 H 
ENDROOT
BRANCH   1   8
ATOM      8  C1  <0> d          -2.947   1.575   0.032  0.00  0.00    -0.051 C 
ATOM      9  H1  <0> d          -3.312   0.548   0.028  0.00  0.00     0.033 H 
ATOM     10  H2  <0> d          -3.793   2.262   0.049  0.00  0.00     0.033 H 
ATOM     11  H3  <0> d          -2.352   1.753  -0.864  0.00  0.00     0.033 H 
ENDBRANCH   1   8
BRANCH   6  12
ATOM     12  C7  <0> d          -0.013   1.086   0.008  0.00  0.00    -0.048 C 
ATOM     13  H5  <0> d           0.002  -0.004   0.002  0.00  0.00     0.033 H 
ATOM     14  H6  <0> d           1.010   1.463   0.000  0.00  0.00     0.033 H 
ATOM     15  H7  <0> d          -0.540   1.447  -0.875  0.00  0.00     0.033 H 
ENDBRANCH   6  12
BRANCH   5  16
ATOM     16  C8  <0> d           1.466   1.585   2.448  0.00  0.00    -0.031 C 
ATOM     17  H8  <0> d           1.937   2.426   2.186  0.00  0.00     0.036 H 
ATOM     18  H9  <0> d           1.769   1.296   3.454  0.00  0.00     0.036 H 
ATOM     19  H10 <0> d           1.725   0.790   1.748  0.00  0.00     0.036 H 
ENDBRANCH   5  16
BRANCH   3  20
ATOM     20  C9  <0> d          -2.307   2.906   4.841  0.00  0.00    -0.031 C 
ATOM     21  H11 <0> d          -1.493   2.993   5.560  0.00  0.00     0.036 H 
ATOM     22  H12 <0> d          -2.777   3.881   4.705  0.00  0.00     0.036 H 
ATOM     23  H13 <0> d          -3.046   2.196   5.212  0.00  0.00     0.036 H 
ENDBRANCH   3  20
TORSDOF 4
