REMARK  2 active torsions:
REMARK  status: ('A' for Active; 'I' for Inactive)
REMARK    1  A    between atoms: C4_4  and  C6_7 
REMARK    2  A    between atoms: C6_7  and  O1_8 
ROOT
ATOM      1  C1  <0> d          -0.017   1.378   0.010  0.00  0.00    -0.064 A 
ATOM      2  C2  <0> d           1.185   2.070   0.002  0.00  0.00    -0.059 A 
ATOM      3  C3  <0> d           2.366   1.342  -0.013  0.00  0.00     0.060 A 
ATOM      4  C4  <0> d           2.305  -0.040  -0.020  0.00  0.00     0.079 A 
ATOM      5  N1  <0> d           1.144  -0.664  -0.013  0.00  0.00    -0.262 NA
ATOM      6  C5  <0> d           0.002  -0.004   0.002  0.00  0.00     0.003 A 
ATOM      7 Cl1  <0> d           3.899   2.156  -0.024  0.00  0.00    -0.082 Cl
ATOM      8  H1  <0> d          -0.955   1.912   0.026  0.00  0.00     0.085 H 
ATOM      9  H2  <0> d           1.200   3.150   0.007  0.00  0.00     0.086 H 
ATOM     10  H3  <0> d          -0.930  -0.550   0.008  0.00  0.00     0.114 H 
ENDROOT
BRANCH   4  11
ATOM     11  C6  <0> d           3.582  -0.841  -0.037  0.00  0.00     0.058 C 
ATOM     12  H4  <0> d           3.411  -1.785  -0.554  0.00  0.00     0.083 H 
ATOM     13  H5  <0> d           4.358  -0.278  -0.555  0.00  0.00     0.083 H 
BRANCH  11  14
ATOM     14  O1  <0> d           3.998  -1.102   1.305  0.00  0.00    -0.395 OA
ATOM     15  H6  <0> d           4.815  -1.615   1.371  0.00  0.00     0.209 HD
ENDBRANCH  11  14
ENDBRANCH   4  11
TORSDOF 2
