REMARK  1 active torsions:
REMARK  status: ('A' for Active; 'I' for Inactive)
REMARK    1  A    between atoms: C2_2  and  C3_3 
ROOT
ATOM      1  C3  <0> d          -0.050   3.845   0.023  0.00  0.00    -0.037 A 
ATOM      2  C4  <0> d           1.166   3.160   0.007  0.00  0.00    -0.073 A 
ATOM      3  C5  <0> d           1.178   1.781   0.000  0.00  0.00    -0.082 A 
ATOM      4  C6  <0> d          -0.013   1.076   0.008  0.00  0.00    -0.083 A 
ATOM      5  C7  <0> d          -1.222   1.748   0.017  0.00  0.00    -0.082 A 
ATOM      6  C8  <0> d          -1.247   3.128   0.031  0.00  0.00    -0.073 A 
ATOM      7  H4  <0> d           2.096   3.710   0.002  0.00  0.00     0.084 H 
ATOM      8  H5  <0> d           2.118   1.250  -0.011  0.00  0.00     0.083 H 
ATOM      9  H6  <0> d           0.002  -0.004   0.002  0.00  0.00     0.083 H 
ATOM     10  H7  <0> d          -2.147   1.192   0.019  0.00  0.00     0.083 H 
ATOM     11  H8  <0> d          -2.192   3.651   0.042  0.00  0.00     0.084 H 
ENDROOT
BRANCH   1  12
ATOM     12  C2  <0> d          -0.070   5.323   0.030  0.00  0.00    -0.082 C 
ATOM     13  C1  <0> d          -1.227   5.970   0.044  0.00  0.00    -0.120 C 
ATOM     14  H1  <0> d          -2.155   5.417   0.051  0.00  0.00     0.066 H 
ATOM     15  H2  <0> d          -1.242   7.050   0.050  0.00  0.00     0.066 H 
ATOM     16  H3  <0> d           0.858   5.875   0.023  0.00  0.00     0.083 H 
ENDBRANCH   1  12
TORSDOF 1
