REMARK  2 active torsions:
REMARK  status: ('A' for Active; 'I' for Inactive)
REMARK    1  A    between atoms: C3_3  and  O2_9 
REMARK    2  A    between atoms: C5_6  and  C6_7 
ROOT
ATOM      1  C1  <0> d           2.474   3.729  -0.002  0.00  0.00    -0.061 A 
ATOM      2  C2  <0> d           2.475   5.109   0.006  0.00  0.00    -0.031 A 
ATOM      3  C3  <0> d           1.263   5.791   0.021  0.00  0.00     0.161 A 
ATOM      4  N1  <0> d           0.112   5.135   0.029  0.00  0.00    -0.236 NA
ATOM      5  C4  <0> d           0.064   3.819   0.016  0.00  0.00     0.021 A 
ATOM      6  C5  <0> d           1.238   3.064   0.007  0.00  0.00     0.058 A 
ATOM      7  H1  <0> d           3.401   3.175  -0.014  0.00  0.00     0.085 H 
ATOM      8  H2  <0> d           3.408   5.654  -0.000  0.00  0.00     0.090 H 
ATOM      9  H3  <0> d          -0.893   3.319   0.018  0.00  0.00     0.116 H 
ENDROOT
BRANCH   6  10
ATOM     10  C6  <0> d           1.181   1.591  -0.001  0.00  0.00     0.210 C 
ATOM     11  O1  <0> d           2.209   0.943  -0.014  0.00  0.00    -0.644 OA
ATOM     12  O3  <0> d          -0.011   0.963   0.007  0.00  0.00    -0.644 OA
ENDBRANCH   6  10
BRANCH   3  13
ATOM     13  O2  <0> d           1.258   7.146   0.029  0.00  0.00    -0.345 OA
ATOM     14  H4  <0> d           1.249   7.544  -0.852  0.00  0.00     0.219 HD
ENDBRANCH   3  13
TORSDOF 2
