REMARK  4 active torsions:
REMARK  status: ('A' for Active; 'I' for Inactive)
REMARK    1  A    between atoms: C1_1  and  C2_2 
REMARK    2  A    between atoms: C2_2  and  C3_3 
REMARK    3  A    between atoms: C2_2  and  C4_4 
REMARK    4  A    between atoms: C2_2  and  C5_5 
ROOT
ATOM      1  C2  <0> d           0.077   5.302   0.028  0.00  0.00    -0.007 C 
ENDROOT
BRANCH   1   2
ATOM      2  C1  <0> d          -0.268   5.815   1.427  0.00  0.00    -0.064 C 
ATOM      3  H1  <0> d           0.454   5.427   2.145  0.00  0.00     0.028 H 
ATOM      4  H2  <0> d          -0.236   6.905   1.432  0.00  0.00     0.028 H 
ATOM      5  H3  <0> d          -1.269   5.480   1.701  0.00  0.00     0.028 H 
ENDBRANCH   1   2
BRANCH   1   6
ATOM      6  C3  <0> d           1.481   5.772  -0.356  0.00  0.00    -0.064 C 
ATOM      7  H4  <0> d           1.727   5.407  -1.353  0.00  0.00     0.028 H 
ATOM      8  H5  <0> d           1.513   6.862  -0.351  0.00  0.00     0.028 H 
ATOM      9  H6  <0> d           2.204   5.384   0.362  0.00  0.00     0.028 H 
ENDBRANCH   1   6
BRANCH   1  10
ATOM     10  C4  <0> d          -0.937   5.846  -0.980  0.00  0.00    -0.064 C 
ATOM     11  H7  <0> d          -1.938   5.511  -0.706  0.00  0.00     0.028 H 
ATOM     12  H8  <0> d          -0.905   6.936  -0.975  0.00  0.00     0.028 H 
ATOM     13  H9  <0> d          -0.691   5.480  -1.977  0.00  0.00     0.028 H 
ENDBRANCH   1  10
BRANCH   1  14
ATOM     14  C5  <0> d           0.033   3.795   0.021  0.00  0.00     0.041 A 
ATOM     15  N1  <0> d           1.159   3.110   0.007  0.00  0.00    -0.265 NA
ATOM     16  C9  <0> d           1.169   1.792   0.001  0.00  0.00     0.003 A 
ATOM     17  C8  <0> d          -0.013   1.076   0.008  0.00  0.00    -0.066 A 
ATOM     18  H13 <0> d           2.112   1.265  -0.011  0.00  0.00     0.114 H 
ATOM     19  C7  <0> d          -1.218   1.762   0.017  0.00  0.00    -0.080 A 
ATOM     20  H12 <0> d           0.002  -0.004   0.002  0.00  0.00     0.085 H 
ATOM     21  C6  <0> d          -1.188   3.147   0.029  0.00  0.00    -0.058 A 
ATOM     22  H11 <0> d          -2.157   1.229   0.019  0.00  0.00     0.083 H 
ATOM     23  H10 <0> d          -2.108   3.714   0.040  0.00  0.00     0.086 H 
ENDBRANCH   1  14
TORSDOF 4
