REMARK  4 active torsions:
REMARK  status: ('A' for Active; 'I' for Inactive)
REMARK    1  A    between atoms: C1_1  and  C2_2 
REMARK    2  A    between atoms: C2_2  and  C3_3 
REMARK    3  A    between atoms: C2_2  and  C4_4 
REMARK    4  A    between atoms: C2_2  and  O1_10 
ROOT
ATOM      1  C4  <0> d          -0.018   1.503   0.010  0.00  0.00    -0.025 A 
ATOM      2  C5  <0> d          -1.225   2.178   0.020  0.00  0.00    -0.074 A 
ATOM      3  C6  <0> d          -1.244   3.560   0.032  0.00  0.00    -0.082 A 
ATOM      4  C7  <0> d          -0.056   4.267   0.025  0.00  0.00    -0.083 A 
ATOM      5  C8  <0> d           1.151   3.592   0.010  0.00  0.00    -0.082 A 
ATOM      6  C9  <0> d           1.169   2.210   0.003  0.00  0.00    -0.074 A 
ATOM      7  H7  <0> d          -2.153   1.625   0.021  0.00  0.00     0.084 H 
ATOM      8  H8  <0> d          -2.186   4.087   0.044  0.00  0.00     0.083 H 
ATOM      9  H9  <0> d          -0.070   5.347   0.031  0.00  0.00     0.083 H 
ATOM     10  H10 <0> d           2.078   4.145   0.004  0.00  0.00     0.083 H 
ATOM     11  H11 <0> d           2.112   1.683  -0.009  0.00  0.00     0.084 H 
ENDROOT
BRANCH   1  12
ATOM     12  C2  <0> d           0.002  -0.004   0.002  0.00  0.00     0.077 C 
BRANCH  12  13
ATOM     13  C1  <0> d          -1.233  -0.535   0.732  0.00  0.00    -0.044 C 
ATOM     14  H1  <0> d          -2.133  -0.181   0.229  0.00  0.00     0.032 H 
ATOM     15  H2  <0> d          -1.218  -1.625   0.726  0.00  0.00     0.032 H 
ATOM     16  H3  <0> d          -1.228  -0.177   1.762  0.00  0.00     0.032 H 
ENDBRANCH  12  13
BRANCH  12  17
ATOM     17  C3  <0> d          -0.005  -0.506  -1.443  0.00  0.00    -0.044 C 
ATOM     18  H4  <0> d           0.875  -0.128  -1.963  0.00  0.00     0.032 H 
ATOM     19  H5  <0> d           0.010  -1.596  -1.449  0.00  0.00     0.032 H 
ATOM     20  H6  <0> d          -0.904  -0.152  -1.947  0.00  0.00     0.032 H 
ENDBRANCH  12  17
BRANCH  12  21
ATOM     21  O1  <0> d           1.182  -0.468   0.662  0.00  0.00    -0.386 OA
ATOM     22  H12 <0> d           2.005  -0.169   0.252  0.00  0.00     0.211 HD
ENDBRANCH  12  21
ENDBRANCH   1  12
TORSDOF 4
