REMARK  1 active torsions:
REMARK  status: ('A' for Active; 'I' for Inactive)
REMARK    1  A    between atoms: C8_10  and  O1_12 
ROOT
ATOM      1  C1  <0> d          -3.078   1.448   0.445  0.00  0.00    -0.064 C 
ATOM      2  C2  <0> d          -2.066   0.959   1.467  0.00  0.00    -0.062 C 
ATOM      3  C3  <0> d          -0.687   1.575   1.284  0.00  0.00    -0.051 C 
ATOM      4  H1  <0> d          -0.065   1.246   2.130  0.00  0.00     0.040 H 
ATOM      5  C4  <0> d          -0.787   3.100   1.283  0.00  0.00    -0.058 C 
ATOM      6  C5  <0> d          -1.653   3.518   0.095  0.00  0.00    -0.051 C 
ATOM      7  H2  <0> d          -1.741   4.615   0.068  0.00  0.00     0.040 H 
ATOM      8  C6  <0> d          -3.057   2.954   0.244  0.00  0.00    -0.062 C 
ATOM      9  C7  <0> d          -0.999   3.082  -1.208  0.00  0.00    -0.038 C 
ATOM     10  C8  <0> d          -0.710   1.588  -1.251  0.00  0.00     0.036 C 
ATOM     11  C9  <0> d          -0.013   1.093   0.008  0.00  0.00    -0.038 C 
ATOM     12  H3  <0> d          -4.074   1.139   0.795  0.00  0.00     0.033 H 
ATOM     13  H4  <0> d          -2.852   0.947  -0.508  0.00  0.00     0.033 H 
ATOM     14  H5  <0> d          -2.413   1.214   2.479  0.00  0.00     0.033 H 
ATOM     15  H6  <0> d          -1.956  -0.132   1.381  0.00  0.00     0.033 H 
ATOM     16  H7  <0> d          -1.247   3.438   2.224  0.00  0.00     0.034 H 
ATOM     17  H8  <0> d           0.219   3.534   1.190  0.00  0.00     0.034 H 
ATOM     18  H9  <0> d          -3.617   3.209  -0.668  0.00  0.00     0.033 H 
ATOM     19  H10 <0> d          -3.523   3.446   1.110  0.00  0.00     0.033 H 
ATOM     20  H11 <0> d          -1.666   3.319  -2.050  0.00  0.00     0.037 H 
ATOM     21  H12 <0> d          -0.044   3.613  -1.336  0.00  0.00     0.037 H 
ATOM     22  H13 <0> d          -1.655   1.040  -1.381  0.00  0.00     0.082 H 
ATOM     23  H14 <0> d           1.025   1.455  -0.018  0.00  0.00     0.037 H 
ATOM     24  H15 <0> d          -0.018  -0.007  -0.016  0.00  0.00     0.037 H 
ENDROOT
BRANCH  10  25
ATOM     25  O1  <0> d           0.151   1.327  -2.377  0.00  0.00    -0.396 OA
ATOM     26  H16 <0> d           0.482   0.300  -2.588  0.00  0.00     0.210 HD
ENDBRANCH  10  25
TORSDOF 1
