REMARK  5 active torsions:
REMARK  status: ('A' for Active; 'I' for Inactive)
REMARK    1  A    between atoms: C1_1  and  C2_2 
REMARK       I    between atoms: C2_2  and  N1_4 
REMARK    2  A    between atoms: N1_4  and  C3_5 
REMARK    3  A    between atoms: C3_5  and  C4_6 
REMARK    4  A    between atoms: C4_6  and  O2_7 
REMARK    5  A    between atoms: O2_7  and  C5_8 
ROOT
ATOM      1  C3  <0> d           2.422   1.183  -0.015  0.00  0.00     0.015 C 
ATOM      2  H5  <0> d           2.497   0.553   0.871  0.00  0.00     0.067 H 
ATOM      3  H6  <0> d           2.480   0.562  -0.909  0.00  0.00     0.067 H 
ENDROOT
BRANCH   1   4
ATOM      4  N1  <0> d           1.143   1.898   0.001  0.00  0.00    -0.359 N 
ATOM      5  C2  <0> d          -0.014   1.209   0.009  0.00  0.00     0.213 C 
ATOM      6  O1  <0> d           0.002  -0.004   0.002  0.00  0.00    -0.274 OA
ATOM      7  H4  <0> d           1.130   2.868   0.007  0.00  0.00     0.162 HD
BRANCH   5   8
ATOM      8  C1  <0> d          -1.330   1.944   0.019  0.00  0.00    -0.003 C 
ATOM      9  H1  <0> d          -2.148   1.225   0.019  0.00  0.00     0.040 H 
ATOM     10  H2  <0> d          -1.392   2.565   0.913  0.00  0.00     0.040 H 
ATOM     11  H3  <0> d          -1.400   2.575  -0.867  0.00  0.00     0.040 H 
ENDBRANCH   5   8
ENDBRANCH   1   4
BRANCH   1  12
ATOM     12  C4  <0> d           3.571   2.193  -0.020  0.00  0.00     0.034 C 
ATOM     13  H7  <0> d           4.519   1.665  -0.122  0.00  0.00     0.076 H 
ATOM     14  H8  <0> d           3.447   2.880  -0.857  0.00  0.00     0.076 H 
BRANCH  12  15
ATOM     15  O2  <0> d           3.565   2.929   1.205  0.00  0.00    -0.394 OA
BRANCH  15  16
ATOM     16  C5  <0> d           4.604   3.904   1.302  0.00  0.00     0.004 C 
ATOM     17  H9  <0> d           4.502   4.627   0.493  0.00  0.00     0.066 H 
ATOM     18  H10 <0> d           4.531   4.419   2.260  0.00  0.00     0.066 H 
ATOM     19  H11 <0> d           5.574   3.411   1.228  0.00  0.00     0.066 H 
ENDBRANCH  15  16
ENDBRANCH  12  15
ENDBRANCH   1  12
TORSDOF 5
