REMARK  3 active torsions:
REMARK  status: ('A' for Active; 'I' for Inactive)
REMARK    1  A    between atoms: C2_2  and  C3_3 
REMARK    2  A    between atoms: C3_3  and  C4_4 
REMARK    3  A    between atoms: C4_4  and  C5_5 
ROOT
ATOM      1  C1  <0> d          -1.993   4.344   3.454  0.00  0.00    -0.154 C 
ATOM      2  C2  <0> d          -1.444   3.966   2.488  0.00  0.00    -0.117 C 
ATOM      3  H1  <0> d          -2.485   4.683   4.318  0.00  0.00     0.166 H 
ENDROOT
BRANCH   2   4
ATOM      4  C3  <0> d          -0.755   3.491   1.277  0.00  0.00    -0.009 C 
ATOM      5  H2  <0> d           0.268   3.868   1.270  0.00  0.00     0.051 H 
ATOM      6  H3  <0> d          -1.282   3.852   0.394  0.00  0.00     0.051 H 
BRANCH   4   7
ATOM      7  C4  <0> d          -0.734   1.961   1.269  0.00  0.00    -0.044 C 
ATOM      8  H4  <0> d          -1.757   1.584   1.277  0.00  0.00     0.035 H 
ATOM      9  H5  <0> d          -0.207   1.600   2.152  0.00  0.00     0.035 H 
BRANCH   7  10
ATOM     10  C5  <0> d          -0.018   1.468   0.010  0.00  0.00     0.015 C 
ATOM     11  C6  <0> d           0.002  -0.004   0.002  0.00  0.00     0.059 C 
ATOM     12  N1  <0> d           0.018  -1.140  -0.004  0.00  0.00    -0.197 NA
ATOM     13  H6  <0> d           1.005   1.845   0.002  0.00  0.00     0.054 H 
ATOM     14  H7  <0> d          -0.545   1.829  -0.873  0.00  0.00     0.054 H 
ENDBRANCH   7  10
ENDBRANCH   4   7
ENDBRANCH   2   4
TORSDOF 3
