REMARK  6 active torsions:
REMARK  status: ('A' for Active; 'I' for Inactive)
REMARK    1  A    between atoms: C1_1  and  C2_2 
REMARK    2  A    between atoms: C2_2  and  N1_3 
REMARK    3  A    between atoms: N1_3  and  C3_4 
REMARK    4  A    between atoms: N1_3  and  C5_6 
REMARK    5  A    between atoms: C3_4  and  C4_5 
REMARK    6  A    between atoms: C6_7  and  C7_8 
ROOT
ATOM      1  N1  <0> d          -1.372  -0.511   0.012  0.00  0.00    -0.391 N 
ENDROOT
BRANCH   1   2
ATOM      2  C2  <0> d           0.002  -0.004   0.002  0.00  0.00    -0.009 C 
ATOM      3  H4  <0> d           0.512  -0.356  -0.895  0.00  0.00     0.063 H 
ATOM      4  H5  <0> d           0.529  -0.365   0.885  0.00  0.00     0.063 H 
BRANCH   2   5
ATOM      5  C1  <0> d          -0.019   1.526   0.010  0.00  0.00    -0.061 C 
ATOM      6  H1  <0> d           1.004   1.903   0.003  0.00  0.00     0.029 H 
ATOM      7  H2  <0> d          -0.546   1.887  -0.873  0.00  0.00     0.029 H 
ATOM      8  H3  <0> d          -0.529   1.877   0.907  0.00  0.00     0.029 H 
ENDBRANCH   2   5
ENDBRANCH   1   2
BRANCH   1   9
ATOM      9  C3  <0> d          -2.072  -0.758  -1.251  0.00  0.00    -0.009 C 
ATOM     10  H6  <0> d          -3.142  -0.606  -1.110  0.00  0.00     0.063 H 
ATOM     11  H7  <0> d          -1.704  -0.068  -2.010  0.00  0.00     0.063 H 
BRANCH   9  12
ATOM     12  C4  <0> d          -1.816  -2.197  -1.703  0.00  0.00    -0.061 C 
ATOM     13  H8  <0> d          -2.183  -2.887  -0.943  0.00  0.00     0.029 H 
ATOM     14  H9  <0> d          -2.336  -2.381  -2.643  0.00  0.00     0.029 H 
ATOM     15  H10 <0> d          -0.746  -2.349  -1.844  0.00  0.00     0.029 H 
ENDBRANCH   9  12
ENDBRANCH   1   9
BRANCH   1  16
ATOM     16  C5  <0> d          -2.009  -0.757   1.214  0.00  0.00    -0.025 C 
ATOM     17  C6  <0> d          -3.266  -1.221   1.223  0.00  0.00    -0.069 C 
ATOM     18  H12 <0> d          -3.782  -1.403   0.292  0.00  0.00     0.085 H 
ATOM     19  H11 <0> d          -1.494  -0.575   2.145  0.00  0.00     0.111 H 
BRANCH  17  20
ATOM     20  C7  <0> d          -3.943  -1.481   2.499  0.00  0.00    -0.091 C 
ATOM     21  C8  <0> d          -5.191  -1.942   2.509  0.00  0.00    -0.121 C 
ATOM     22  H14 <0> d          -5.689  -2.134   3.448  0.00  0.00     0.066 H 
ATOM     23  H15 <0> d          -5.707  -2.124   1.577  0.00  0.00     0.066 H 
ATOM     24  H13 <0> d          -3.427  -1.300   3.431  0.00  0.00     0.082 H 
ENDBRANCH  17  20
ENDBRANCH   1  16
TORSDOF 6
