REMARK  0 active torsions:
REMARK  status: ('A' for Active; 'I' for Inactive)
ROOT
ATOM      1  C1  <0> d          -1.202   1.734   0.017  0.00  0.00    -0.019 A 
ATOM      2  C2  <0> d          -0.013   1.076   0.008  0.00  0.00     0.007 A 
ATOM      3  N1  <0> d           1.139   1.755   0.001  0.00  0.00    -0.255 NA
ATOM      4  C3  <0> d           1.175   3.058   0.007  0.00  0.00     0.072 A 
ATOM      5  N2  <0> d           0.029   3.789   0.022  0.00  0.00    -0.281 N 
ATOM      6  C4  <0> d          -1.188   3.144   0.030  0.00  0.00     0.159 A 
ATOM      7  N3  <0> d          -2.117   4.080   0.044  0.00  0.00    -0.130 NA
ATOM      8  N4  <0> d          -1.559   5.240   0.044  0.00  0.00    -0.143 NA
ATOM      9  C5  <0> d          -0.257   5.118   0.032  0.00  0.00     0.094 A 
ATOM     10  H1  <0> d          -2.135   1.190   0.018  0.00  0.00     0.091 H 
ATOM     11  H2  <0> d           0.002  -0.004   0.002  0.00  0.00     0.115 H 
ATOM     12  H3  <0> d           2.128   3.565   0.001  0.00  0.00     0.144 H 
ATOM     13  H4  <0> d           0.460   5.926   0.029  0.00  0.00     0.147 H 
ENDROOT
TORSDOF 0
