REMARK  0 active torsions:
REMARK  status: ('A' for Active; 'I' for Inactive)
ROOT
ATOM      1  C1  <0> d          -0.839   5.504   0.038  0.00  0.00    -0.078 A 
ATOM      2  C2  <0> d           0.566   5.528   0.026  0.00  0.00    -0.067 A 
ATOM      3  C3  <0> d           1.266   4.374   0.013  0.00  0.00    -0.014 A 
ATOM      4  N1  <0> d           0.622   3.170   0.013  0.00  0.00    -0.316 N 
ATOM      5  C4  <0> d           1.074   1.879   0.002  0.00  0.00     0.003 A 
ATOM      6  C5  <0> d          -0.013   1.076   0.008  0.00  0.00     0.020 A 
ATOM      7  N2  <0> d          -1.107   1.840   0.017  0.00  0.00    -0.241 NA
ATOM      8  C6  <0> d          -0.748   3.116   0.026  0.00  0.00     0.133 A 
ATOM      9  C7  <0> d          -1.493   4.312   0.039  0.00  0.00    -0.038 A 
ATOM     10  H1  <0> d          -1.396   6.429   0.048  0.00  0.00     0.083 H 
ATOM     11  H2  <0> d           1.088   6.473   0.025  0.00  0.00     0.085 H 
ATOM     12  H3  <0> d           2.345   4.403   0.003  0.00  0.00     0.112 H 
ATOM     13  H4  <0> d           2.106   1.561  -0.010  0.00  0.00     0.114 H 
ATOM     14  H5  <0> d           0.002  -0.004   0.002  0.00  0.00     0.117 H 
ATOM     15  H6  <0> d          -2.572   4.282   0.049  0.00  0.00     0.089 H 
ENDROOT
TORSDOF 0
