REMARK  5 active torsions:
REMARK  status: ('A' for Active; 'I' for Inactive)
REMARK    1  A    between atoms: C1_1  and  C2_2 
REMARK    2  A    between atoms: C2_2  and  C3_3 
REMARK    3  A    between atoms: C2_2  and  C4_4 
REMARK    4  A    between atoms: C4_4  and  C5_5 
REMARK    5  A    between atoms: C5_5  and  C7_9 
ROOT
ATOM      1  C5  <0> d           1.246   3.083  -0.021  0.00  0.00     0.114 C 
ATOM      2  H1  <0> d           0.646   3.505  -0.828  0.00  0.00     0.079 H 
ATOM      3  C6  <0> d           0.726   3.551   1.274  0.00  0.00     0.074 C 
ATOM      4  N1  <0> d           0.325   3.912   2.273  0.00  0.00    -0.196 NA
ENDROOT
BRANCH   1   5
ATOM      5  C4  <0> d           2.700   3.530  -0.179  0.00  0.00    -0.038 C 
ATOM      6  H9  <0> d           3.282   3.182   0.674  0.00  0.00     0.036 H 
ATOM      7  H10 <0> d           3.112   3.109  -1.096  0.00  0.00     0.036 H 
BRANCH   5   8
ATOM      8  C2  <0> d           2.760   5.057  -0.248  0.00  0.00    -0.059 C 
ATOM      9  H5  <0> d           2.255   5.480   0.621  0.00  0.00     0.038 H 
BRANCH   8  10
ATOM     10  C1  <0> d           4.221   5.511  -0.259  0.00  0.00    -0.073 C 
ATOM     11  H2  <0> d           4.263   6.597  -0.343  0.00  0.00     0.028 H 
ATOM     12  H3  <0> d           4.705   5.199   0.666  0.00  0.00     0.028 H 
ATOM     13  H4  <0> d           4.734   5.060  -1.108  0.00  0.00     0.028 H 
ENDBRANCH   8  10
BRANCH   8  14
ATOM     14  C3  <0> d           2.066   5.538  -1.524  0.00  0.00    -0.073 C 
ATOM     15  H6  <0> d           1.025   5.215  -1.516  0.00  0.00     0.028 H 
ATOM     16  H7  <0> d           2.108   6.626  -1.573  0.00  0.00     0.028 H 
ATOM     17  H8  <0> d           2.571   5.115  -2.393  0.00  0.00     0.028 H 
ENDBRANCH   8  14
ENDBRANCH   5   8
ENDBRANCH   1   5
BRANCH   1  18
ATOM     18  C7  <0> d           1.174   1.578  -0.077  0.00  0.00     0.191 C 
ATOM     19  O1  <0> d           2.183   0.930  -0.228  0.00  0.00    -0.647 OA
ATOM     20  O2  <0> d          -0.011   0.958   0.041  0.00  0.00    -0.647 OA
ENDBRANCH   1  18
TORSDOF 5
