REMARK  4 active torsions:
REMARK  status: ('A' for Active; 'I' for Inactive)
REMARK    1  A    between atoms: C2_2  and  O4_14 
REMARK    2  A    between atoms: C3_4  and  O3_13 
REMARK    3  A    between atoms: C4_6  and  O2_12 
REMARK    4  A    between atoms: C5_8  and  N1_11 
ROOT
ATOM      1  C1  <0> d           1.341   1.658   2.491  0.00  0.00     0.048 C 
ATOM      2  C2  <0> d           2.133   1.166   1.277  0.00  0.00     0.083 C 
ATOM      3  H1  <0> d           2.268   0.074   1.300  0.00  0.00     0.090 H 
ATOM      4  C3  <0> d           1.424   1.617  -0.003  0.00  0.00     0.091 C 
ATOM      5  H2  <0> d           1.449   2.711  -0.115  0.00  0.00     0.091 H 
ATOM      6  C4  <0> d          -0.013   1.086   0.008  0.00  0.00     0.114 C 
ATOM      7  H3  <0> d          -0.037  -0.012  -0.062  0.00  0.00     0.093 H 
ATOM      8  C5  <0> d          -0.722   1.581   1.271  0.00  0.00     0.248 C 
ATOM      9  H4  <0> d          -0.780   2.678   1.319  0.00  0.00     0.137 H 
ATOM     10  O1  <0> d           0.006   1.153   2.424  0.00  0.00    -0.353 OA
ATOM     11  H5  <0> d           1.317   2.757   2.493  0.00  0.00     0.078 H 
ATOM     12  H6  <0> d           1.822   1.300   3.413  0.00  0.00     0.078 H 
ENDROOT
BRANCH   8  13
ATOM     13  N1  <0> d          -2.082   1.028   1.317  0.00  0.00     0.110 N 
ATOM     14  H7  <0> d          -2.592   1.384   2.225  0.00  0.00     0.316 HD
ATOM     15  H8  <0> d          -2.642   1.357   0.430  0.00  0.00     0.316 HD
ENDBRANCH   8  13
BRANCH   6  16
ATOM     16  O2  <0> d          -0.706   1.560  -1.148  0.00  0.00    -0.388 OA
ATOM     17  H9  <0> d          -1.757   1.280  -1.312  0.00  0.00     0.210 HD
ENDBRANCH   6  16
BRANCH   4  18
ATOM     18  O3  <0> d           2.116   1.100  -1.141  0.00  0.00    -0.390 OA
ATOM     19  H10 <0> d           1.751   1.322  -2.155  0.00  0.00     0.210 HD
ENDBRANCH   4  18
BRANCH   2  20
ATOM     20  O4  <0> d           3.452   1.716   1.312  0.00  0.00    -0.391 OA
ATOM     21  H11 <0> d           4.170   1.473   0.516  0.00  0.00     0.210 HD
ENDBRANCH   2  20
TORSDOF 4
