REMARK  2 active torsions:
REMARK  status: ('A' for Active; 'I' for Inactive)
REMARK    1  A    between atoms: C3_3  and  C5_5 
REMARK    2  A    between atoms: C5_5  and  C6_6 
ROOT
ATOM      1  C1  <0> d          -0.019   1.534   0.011  0.00  0.00    -0.062 C 
ATOM      2  C2  <0> d           1.518   1.476  -0.004  0.00  0.00    -0.046 C 
ATOM      3  C3  <0> d           1.381   0.097  -0.670  0.00  0.00     0.051 C 
ATOM      4  C4  <0> d           0.002  -0.004   0.002  0.00  0.00    -0.046 C 
ATOM      5  C7  <0> d           1.319   0.155  -2.140  0.00  0.00     0.069 C 
ATOM      6  N1  <0> d           1.270   0.200  -3.274  0.00  0.00    -0.196 NA
ATOM      7  H1  <0> d          -0.431   1.960   0.925  0.00  0.00     0.033 H 
ATOM      8  H2  <0> d          -0.448   1.969  -0.892  0.00  0.00     0.033 H 
ATOM      9  H3  <0> d           1.977   2.228  -0.647  0.00  0.00     0.035 H 
ATOM     10  H4  <0> d           1.963   1.439   0.990  0.00  0.00     0.035 H 
ATOM     11  H5  <0> d           0.033  -0.446   0.998  0.00  0.00     0.035 H 
ATOM     12  H6  <0> d          -0.763  -0.448  -0.635  0.00  0.00     0.035 H 
ENDROOT
BRANCH   3  13
ATOM     13  C5  <0> d           2.390  -0.934  -0.158  0.00  0.00    -0.022 C 
ATOM     14  H7  <0> d           3.402  -0.578  -0.350  0.00  0.00     0.039 H 
ATOM     15  H8  <0> d           2.252  -1.075   0.914  0.00  0.00     0.039 H 
BRANCH  13  16
ATOM     16  C6  <0> d           2.171  -2.265  -0.879  0.00  0.00     0.060 C 
ATOM     17  F1  <0> d           3.093  -3.207  -0.411  0.00  0.00    -0.255 F 
ATOM     18  H9  <0> d           1.158  -2.620  -0.687  0.00  0.00     0.082 H 
ATOM     19  H10 <0> d           2.308  -2.124  -1.952  0.00  0.00     0.082 H 
ENDBRANCH  13  16
ENDBRANCH   3  13
TORSDOF 2
