REMARK  2 active torsions:
REMARK  status: ('A' for Active; 'I' for Inactive)
REMARK    1  A    between atoms: C1_1  and  C2_2 
REMARK    2  A    between atoms: C2_2  and  C3_4 
ROOT
ATOM      1  C3  <0> d           0.928  -0.286   1.225  0.00  0.00     0.007 C 
ATOM      2  H1  <0> d           1.391  -1.167   1.126  0.00  0.00     0.052 H 
ATOM      3  C4  <0> d           1.946   0.877   1.221  0.00  0.00    -0.052 C 
ATOM      4  C5  <0> d           1.539   1.753  -0.003  0.00  0.00    -0.053 C 
ATOM      5  H2  <0> d           1.900   2.781  -0.008  0.00  0.00     0.040 H 
ATOM      6  C6  <0> d           1.922   0.890  -1.244  0.00  0.00    -0.061 C 
ATOM      7  C7  <0> d           0.904  -0.273  -1.241  0.00  0.00    -0.061 C 
ATOM      8  C8  <0> d           0.002  -0.004   0.002  0.00  0.00    -0.044 C 
ATOM      9  H3  <0> d          -0.969  -0.499   0.002  0.00  0.00     0.041 H 
ATOM     10  C9  <0> d          -0.019   1.565   0.011  0.00  0.00    -0.058 C 
ATOM     11  H7  <0> d           2.959   0.495   1.095  0.00  0.00     0.034 H 
ATOM     12  H8  <0> d           1.867   1.453   2.143  0.00  0.00     0.034 H 
ATOM     13  H9  <0> d           2.937   0.507  -1.142  0.00  0.00     0.033 H 
ATOM     14  H10 <0> d           1.828   1.475  -2.159  0.00  0.00     0.033 H 
ATOM     15  H11 <0> d           1.419  -1.228  -1.137  0.00  0.00     0.033 H 
ATOM     16  H12 <0> d           0.308  -0.261  -2.153  0.00  0.00     0.033 H 
ATOM     17  H13 <0> d          -0.488   1.973  -0.885  0.00  0.00     0.034 H 
ATOM     18  H14 <0> d          -0.471   1.963   0.919  0.00  0.00     0.034 H 
ENDROOT
BRANCH   1  19
ATOM     19  C2  <0> d           0.128  -0.281   2.502  0.00  0.00     0.127 C 
ATOM     20  O1  <0> d          -0.907   0.340   2.563  0.00  0.00    -0.298 OA
BRANCH  19  21
ATOM     21  C1  <0> d           0.618  -1.049   3.702  0.00  0.00    -0.021 C 
ATOM     22  H4  <0> d           1.515  -0.701   3.977  0.00  0.00     0.037 H 
ATOM     23  H5  <0> d          -0.087  -0.927   4.524  0.00  0.00     0.037 H 
ATOM     24  H6  <0> d           0.701  -2.106   3.447  0.00  0.00     0.037 H 
ENDBRANCH  19  21
ENDBRANCH   1  19
TORSDOF 2
