REMARK  2 active torsions:
REMARK  status: ('A' for Active; 'I' for Inactive)
REMARK    1  A    between atoms: C1_1  and  C2_2 
REMARK    2  A    between atoms: C4_4  and  O1_9 
ROOT
ATOM      1  C2  <0> d           0.002  -0.004   0.002  0.00  0.00    -0.038 A 
ATOM      2  C3  <0> d           0.006  -0.688  -1.199  0.00  0.00    -0.044 A 
ATOM      3  C4  <0> d           0.025  -2.075  -1.206  0.00  0.00     0.066 A 
ATOM      4  C5  <0> d           0.040  -2.773  -0.007  0.00  0.00    -0.049 A 
ATOM      5  C6  <0> d           0.036  -2.086   1.192  0.00  0.00    -0.059 A 
ATOM      6  C7  <0> d           0.023  -0.702   1.196  0.00  0.00     0.040 A 
ATOM      7 Cl1  <0> d           0.025   0.160   2.704  0.00  0.00    -0.084 Cl
ATOM      8  H4  <0> d          -0.006  -0.143  -2.131  0.00  0.00     0.088 H 
ATOM      9  H5  <0> d           0.054  -3.853  -0.010  0.00  0.00     0.087 H 
ATOM     10  H6  <0> d           0.048  -2.628   2.125  0.00  0.00     0.086 H 
ENDROOT
BRANCH   1  11
ATOM     11  C1  <0> d          -0.018   1.503   0.010  0.00  0.00    -0.050 C 
ATOM     12  H1  <0> d           1.004   1.880   0.003  0.00  0.00     0.033 H 
ATOM     13  H2  <0> d          -0.545   1.864  -0.873  0.00  0.00     0.033 H 
ATOM     14  H3  <0> d          -0.529   1.854   0.907  0.00  0.00     0.033 H 
ENDBRANCH   1  11
BRANCH   3  15
ATOM     15  O1  <0> d           0.028  -2.749  -2.386  0.00  0.00    -0.361 OA
ATOM     16  H7  <0> d           0.912  -2.932  -2.732  0.00  0.00     0.217 HD
ENDBRANCH   3  15
TORSDOF 2
