REMARK  8 active torsions:
REMARK  status: ('A' for Active; 'I' for Inactive)
REMARK    1  A    between atoms: C1_1  and  C2_2 
REMARK    2  A    between atoms: C2_2  and  C3_4 
REMARK    3  A    between atoms: C2_2  and  C9_11 
REMARK    4  A    between atoms: C3_4  and  C4_5 
REMARK    5  A    between atoms: C4_5  and  C5_7 
REMARK    6  A    between atoms: C5_7  and  C6_8 
REMARK    7  A    between atoms: C6_8  and  C7_9 
REMARK    8  A    between atoms: C6_8  and  C8_10 
ROOT
ATOM      1  C4  <0> d          -2.125  -0.137  -1.266  0.00  0.00     0.128 C 
ATOM      2  O1  <0> d          -1.531   0.503  -2.100  0.00  0.00    -0.298 OA
ENDROOT
BRANCH   1   3
ATOM      3  C3  <0> d          -1.433  -0.534   0.013  0.00  0.00    -0.004 C 
ATOM      4  H5  <0> d          -1.419  -1.620   0.097  0.00  0.00     0.045 H 
ATOM      5  H6  <0> d          -1.970  -0.111   0.862  0.00  0.00     0.045 H 
BRANCH   3   6
ATOM      6  C2  <0> d           0.002  -0.004   0.002  0.00  0.00    -0.036 C 
ATOM      7  H1  <0> d           0.512  -0.356  -0.895  0.00  0.00     0.046 H 
BRANCH   6   8
ATOM      8  C1  <0> d          -0.019   1.526   0.010  0.00  0.00    -0.069 C 
ATOM      9  H2  <0> d           1.004   1.903   0.003  0.00  0.00     0.028 H 
ATOM     10  H3  <0> d          -0.546   1.887  -0.873  0.00  0.00     0.028 H 
ATOM     11  H4  <0> d          -0.529   1.877   0.907  0.00  0.00     0.028 H 
ENDBRANCH   6   8
BRANCH   6  12
ATOM     12  C9  <0> d           0.731  -0.503   1.223  0.00  0.00    -0.108 C 
ATOM     13  C10 <0> d           1.805  -1.241   1.089  0.00  0.00    -0.124 C 
ATOM     14  H17 <0> d           2.168  -1.492   0.103  0.00  0.00     0.066 H 
ATOM     15  H18 <0> d           2.327  -1.599   1.964  0.00  0.00     0.066 H 
ATOM     16  H16 <0> d           0.368  -0.253   2.209  0.00  0.00     0.076 H 
ENDBRANCH   6  12
ENDBRANCH   3   6
ENDBRANCH   1   3
BRANCH   1  17
ATOM     17  C5  <0> d          -3.557  -0.540  -1.504  0.00  0.00    -0.007 C 
ATOM     18  H7  <0> d          -3.637  -1.627  -1.488  0.00  0.00     0.044 H 
ATOM     19  H8  <0> d          -4.188  -0.117  -0.722  0.00  0.00     0.044 H 
BRANCH  17  20
ATOM     20  C6  <0> d          -4.015  -0.015  -2.867  0.00  0.00    -0.055 C 
ATOM     21  H9  <0> d          -3.330  -0.366  -3.639  0.00  0.00     0.039 H 
BRANCH  20  22
ATOM     22  C7  <0> d          -5.425  -0.528  -3.163  0.00  0.00    -0.073 C 
ATOM     23  H10 <0> d          -6.109  -0.177  -2.391  0.00  0.00     0.028 H 
ATOM     24  H11 <0> d          -5.751  -0.155  -4.134  0.00  0.00     0.028 H 
ATOM     25  H12 <0> d          -5.420  -1.618  -3.177  0.00  0.00     0.028 H 
ENDBRANCH  20  22
BRANCH  20  26
ATOM     26  C8  <0> d          -4.021   1.515  -2.849  0.00  0.00    -0.073 C 
ATOM     27  H13 <0> d          -3.017   1.880  -2.637  0.00  0.00     0.028 H 
ATOM     28  H14 <0> d          -4.347   1.888  -3.819  0.00  0.00     0.028 H 
ATOM     29  H15 <0> d          -4.706   1.866  -2.076  0.00  0.00     0.028 H 
ENDBRANCH  20  26
ENDBRANCH  17  20
ENDBRANCH   1  17
TORSDOF 8
