REMARK  6 active torsions:
REMARK  status: ('A' for Active; 'I' for Inactive)
REMARK    1  A    between atoms: C1_1  and  C2_2 
REMARK    2  A    between atoms: C2_2  and  C3_3 
REMARK    3  A    between atoms: C3_3  and  C4_4 
REMARK    4  A    between atoms: C4_4  and  C5_5 
REMARK    5  A    between atoms: C6_6  and  C7_7 
REMARK    6  A    between atoms: C7_7  and  O1_8 
ROOT
ATOM      1  C4  <0> d          -3.170  -2.022  -0.781  0.00  0.00    -0.050 C 
ATOM      2  H8  <0> d          -3.173  -3.056  -0.435  0.00  0.00     0.038 H 
ATOM      3  H9  <0> d          -3.777  -1.413  -0.111  0.00  0.00     0.038 H 
ENDROOT
BRANCH   1   4
ATOM      4  C3  <0> d          -3.749  -1.956  -2.196  0.00  0.00    -0.062 C 
ATOM      5  H6  <0> d          -3.745  -0.923  -2.542  0.00  0.00     0.033 H 
ATOM      6  H7  <0> d          -3.142  -2.566  -2.865  0.00  0.00     0.033 H 
BRANCH   4   7
ATOM      7  C2  <0> d          -5.184  -2.486  -2.185  0.00  0.00    -0.068 C 
ATOM      8  H4  <0> d          -5.188  -3.519  -1.839  0.00  0.00     0.032 H 
ATOM      9  H5  <0> d          -5.791  -1.877  -1.515  0.00  0.00     0.032 H 
BRANCH   7  10
ATOM     10  C1  <0> d          -5.763  -2.420  -3.599  0.00  0.00    -0.077 C 
ATOM     11  H1  <0> d          -5.156  -3.029  -4.269  0.00  0.00     0.027 H 
ATOM     12  H2  <0> d          -6.785  -2.797  -3.592  0.00  0.00     0.027 H 
ATOM     13  H3  <0> d          -5.760  -1.386  -3.946  0.00  0.00     0.027 H 
ENDBRANCH   7  10
ENDBRANCH   4   7
ENDBRANCH   1   4
BRANCH   1  14
ATOM     14  C5  <0> d          -1.756  -1.501  -0.791  0.00  0.00    -0.105 C 
ATOM     15  C6  <0> d          -1.412  -0.526   0.013  0.00  0.00    -0.084 C 
ATOM     16  H11 <0> d          -2.141  -0.096   0.683  0.00  0.00     0.079 H 
ATOM     17  H10 <0> d          -1.027  -1.931  -1.462  0.00  0.00     0.076 H 
BRANCH  15  18
ATOM     18  C7  <0> d           0.002  -0.004   0.002  0.00  0.00     0.032 C 
ATOM     19  H12 <0> d           0.512  -0.356  -0.895  0.00  0.00     0.080 H 
ATOM     20  H13 <0> d           0.529  -0.365   0.885  0.00  0.00     0.080 H 
BRANCH  18  21
ATOM     21  O1  <0> d          -0.017   1.425   0.010  0.00  0.00    -0.397 OA
ATOM     22  H14 <0> d           0.861   1.830   0.004  0.00  0.00     0.209 HD
ENDBRANCH  18  21
ENDBRANCH  15  18
ENDBRANCH   1  14
TORSDOF 6
