REMARK  2 active torsions:
REMARK  status: ('A' for Active; 'I' for Inactive)
REMARK    1  A    between atoms: C1_1  and  C2_2 
REMARK    2  A    between atoms: C2_2  and  C3_3 
REMARK       I    between atoms: C3_3  and  N1_5 
ROOT
ATOM      1  C3  <0> d          -1.412  -0.526   0.013  0.00  0.00     0.227 C 
ATOM      2  O1  <0> d          -2.341   0.247   0.026  0.00  0.00    -0.273 OA
ATOM      3  N1  <0> d          -1.640  -1.854   0.008  0.00  0.00    -0.304 N 
ATOM      4  C4  <0> d          -0.679  -2.832  -0.001  0.00  0.00    -0.013 A 
ATOM      5  C5  <0> d          -1.297  -4.027  -0.003  0.00  0.00    -0.066 A 
ATOM      6  C6  <0> d          -2.689  -3.788   0.005  0.00  0.00    -0.066 A 
ATOM      7  C7  <0> d          -2.872  -2.455   0.016  0.00  0.00    -0.013 A 
ATOM      8  H6  <0> d           0.389  -2.670  -0.005  0.00  0.00     0.112 H 
ATOM      9  H7  <0> d          -0.816  -4.994  -0.009  0.00  0.00     0.085 H 
ATOM     10  H8  <0> d          -3.465  -4.539   0.005  0.00  0.00     0.085 H 
ATOM     11  H9  <0> d          -3.825  -1.946   0.028  0.00  0.00     0.112 H 
ENDROOT
BRANCH   1  12
ATOM     12  C2  <0> d           0.002  -0.004   0.002  0.00  0.00     0.007 C 
ATOM     13  H4  <0> d           0.512  -0.356  -0.895  0.00  0.00     0.046 H 
ATOM     14  H5  <0> d           0.529  -0.365   0.885  0.00  0.00     0.046 H 
BRANCH  12  15
ATOM     15  C1  <0> d          -0.019   1.526   0.010  0.00  0.00    -0.068 C 
ATOM     16  H1  <0> d           1.004   1.903   0.003  0.00  0.00     0.028 H 
ATOM     17  H2  <0> d          -0.546   1.887  -0.873  0.00  0.00     0.028 H 
ATOM     18  H3  <0> d          -0.529   1.877   0.907  0.00  0.00     0.028 H 
ENDBRANCH  12  15
ENDBRANCH   1  12
TORSDOF 2
