REMARK  5 active torsions:
REMARK  status: ('A' for Active; 'I' for Inactive)
REMARK    1  A    between atoms: C1_1  and  C2_2 
REMARK    2  A    between atoms: C5_6  and  C8_12 
REMARK    3  A    between atoms: C7_9  and  O1_11 
REMARK    4  A    between atoms: C8_12  and  C9_13 
REMARK    5  A    between atoms: C8_12  and  C10_14 
ROOT
ATOM      1  C2  <0> d           0.002  -0.004   0.002  0.00  0.00    -0.033 C 
ATOM      2  H1  <0> d           0.512  -0.356  -0.895  0.00  0.00     0.043 H 
ATOM      3  C3  <0> d           0.742  -0.511   1.242  0.00  0.00    -0.059 C 
ATOM      4  C4  <0> d           0.026  -0.018   2.500  0.00  0.00    -0.061 C 
ATOM      5  C5  <0> d          -1.409  -0.547   2.511  0.00  0.00    -0.049 C 
ATOM      6  H2  <0> d          -1.395  -1.637   2.505  0.00  0.00     0.040 H 
ATOM      7  C6  <0> d          -2.149  -0.040   1.272  0.00  0.00    -0.037 C 
ATOM      8  C7  <0> d          -1.433  -0.534   0.013  0.00  0.00     0.039 C 
ATOM      9  H3  <0> d          -1.960  -0.173  -0.870  0.00  0.00     0.083 H 
ATOM     10  H7  <0> d           0.757  -1.601   1.236  0.00  0.00     0.033 H 
ATOM     11  H8  <0> d           1.765  -0.134   1.234  0.00  0.00     0.033 H 
ATOM     12  H9  <0> d           0.553  -0.379   3.383  0.00  0.00     0.033 H 
ATOM     13  H10 <0> d           0.011   1.072   2.506  0.00  0.00     0.033 H 
ATOM     14  H11 <0> d          -3.172  -0.417   1.279  0.00  0.00     0.037 H 
ATOM     15  H12 <0> d          -2.164   1.050   1.278  0.00  0.00     0.037 H 
ENDROOT
BRANCH   5  16
ATOM     16  C8  <0> d          -2.126  -0.054   3.770  0.00  0.00    -0.058 C 
ATOM     17  H14 <0> d          -2.140   1.036   3.776  0.00  0.00     0.039 H 
BRANCH  16  18
ATOM     18  C9  <0> d          -3.561  -0.583   3.781  0.00  0.00    -0.073 C 
ATOM     19  H15 <0> d          -3.546  -1.673   3.775  0.00  0.00     0.028 H 
ATOM     20  H16 <0> d          -4.071  -0.232   4.678  0.00  0.00     0.028 H 
ATOM     21  H17 <0> d          -4.088  -0.222   2.898  0.00  0.00     0.028 H 
ENDBRANCH  16  18
BRANCH  16  22
ATOM     22  C10 <0> d          -1.386  -0.560   5.010  0.00  0.00    -0.073 C 
ATOM     23  H18 <0> d          -1.371  -1.650   5.003  0.00  0.00     0.028 H 
ATOM     24  H19 <0> d          -0.363  -0.183   5.002  0.00  0.00     0.028 H 
ATOM     25  H20 <0> d          -1.896  -0.209   5.906  0.00  0.00     0.028 H 
ENDBRANCH  16  22
ENDBRANCH   5  16
BRANCH   8  26
ATOM     26  O1  <0> d          -1.414  -1.962   0.005  0.00  0.00    -0.395 OA
ATOM     27  H13 <0> d          -2.292  -2.368   0.011  0.00  0.00     0.210 HD
ENDBRANCH   8  26
BRANCH   1  28
ATOM     28  C1  <0> d          -0.019   1.526   0.010  0.00  0.00    -0.071 C 
ATOM     29  H4  <0> d           1.004   1.903   0.003  0.00  0.00     0.028 H 
ATOM     30  H5  <0> d          -0.546   1.887  -0.873  0.00  0.00     0.028 H 
ATOM     31  H6  <0> d          -0.529   1.877   0.907  0.00  0.00     0.028 H 
ENDBRANCH   1  28
TORSDOF 5
