REMARK  2 active torsions:
REMARK  status: ('A' for Active; 'I' for Inactive)
REMARK    1  A    between atoms: C1_1  and  C2_2 
REMARK    2  A    between atoms: C2_2  and  C3_3 
ROOT
ATOM      1  C3  <0> d           1.351   1.876  -0.001  0.00  0.00     0.130 C 
ATOM      2  O1  <0> d          -0.017   1.435   0.010  0.00  0.00    -0.359 OA
ATOM      3  C4  <0> d           0.002  -0.004   0.002  0.00  0.00     0.042 C 
ATOM      4  C5  <0> d           1.498  -0.386   0.030  0.00  0.00     0.042 C 
ATOM      5  O2  <0> d           2.125   0.801   0.574  0.00  0.00    -0.359 OA
ATOM      6  H6  <0> d           1.673   2.057  -1.037  0.00  0.00     0.128 H 
ATOM      7  H7  <0> d          -0.530  -0.383   0.887  0.00  0.00     0.077 H 
ATOM      8  H8  <0> d          -0.493  -0.372  -0.908  0.00  0.00     0.077 H 
ATOM      9  H9  <0> d           1.639  -1.270   0.670  0.00  0.00     0.077 H 
ATOM     10  H10 <0> d           1.838  -0.614  -0.991  0.00  0.00     0.077 H 
ENDROOT
BRANCH   1  11
ATOM     11  C2  <0> d           1.502   3.143   0.844  0.00  0.00    -0.022 C 
ATOM     12  H4  <0> d           1.285   2.910   1.897  0.00  0.00     0.039 H 
ATOM     13  H5  <0> d           0.797   3.908   0.486  0.00  0.00     0.039 H 
BRANCH  11  14
ATOM     14  C1  <0> d           2.933   3.670   0.722  0.00  0.00    -0.072 C 
ATOM     15  H1  <0> d           3.041   4.581   1.329  0.00  0.00     0.027 H 
ATOM     16  H2  <0> d           3.149   3.904  -0.331  0.00  0.00     0.027 H 
ATOM     17  H3  <0> d           3.637   2.905   1.080  0.00  0.00     0.027 H 
ENDBRANCH  11  14
ENDBRANCH   1  11
TORSDOF 2
