REMARK  0 active torsions:
REMARK  status: ('A' for Active; 'I' for Inactive)
ROOT
ATOM      1  C1  <0> d          -0.028   1.496  -2.486  0.00  0.00    -0.059 C 
ATOM      2  C2  <0> d           1.418   1.998  -2.449  0.00  0.00    -0.024 C 
ATOM      3  C3  <0> d           2.096   1.490  -1.175  0.00  0.00     0.216 C 
ATOM      4  H1  <0> d           2.118   0.391  -1.137  0.00  0.00     0.112 H 
ATOM      5  N1  <0> d           1.360   1.976  -0.000  0.00  0.00     0.119 N 
ATOM      6  C4  <0> d          -0.018   1.468   0.010  0.00  0.00     0.216 C 
ATOM      7  H2  <0> d          -0.502   1.805   0.938  0.00  0.00     0.112 H 
ATOM      8  C5  <0> d          -0.759   1.974  -1.229  0.00  0.00    -0.024 C 
ATOM      9  C6  <0> d           0.002  -0.004   0.002  0.00  0.00     0.095 C 
ATOM     10  N2  <0> d           0.018  -1.140  -0.004  0.00  0.00    -0.195 NA
ATOM     11  C7  <0> d           3.481   1.987  -1.125  0.00  0.00     0.095 C 
ATOM     12  N3  <0> d           4.550   2.370  -1.087  0.00  0.00    -0.195 NA
ATOM     13  H3  <0> d          -0.037   0.396  -2.519  0.00  0.00     0.033 H 
ATOM     14  H4  <0> d          -0.534   1.893  -3.379  0.00  0.00     0.033 H 
ATOM     15  H5  <0> d           1.959   1.621  -3.329  0.00  0.00     0.037 H 
ATOM     16  H6  <0> d           1.424   3.098  -2.457  0.00  0.00     0.037 H 
ATOM     17  H7  <0> d           1.866   1.637   0.916  0.00  0.00     0.319 HD
ATOM     18  H8  <0> d          -0.787   3.074  -1.218  0.00  0.00     0.037 H 
ATOM     19  H9  <0> d          -1.787   1.582  -1.230  0.00  0.00     0.037 H 
ENDROOT
TORSDOF 0
