REMARK  1 active torsions:
REMARK  status: ('A' for Active; 'I' for Inactive)
REMARK    1  A    between atoms: C10_10  and  O1_12 
ROOT
ATOM      1  C1  <0> d           2.372   1.434  -0.011  0.00  0.00    -0.082 A 
ATOM      2  C2  <0> d           1.161   2.102   0.002  0.00  0.00    -0.082 A 
ATOM      3  C3  <0> d          -0.017   1.385   0.010  0.00  0.00    -0.074 A 
ATOM      4  C4  <0> d           0.002  -0.004   0.002  0.00  0.00    -0.023 A 
ATOM      5  C5  <0> d           1.207  -0.669  -0.015  0.00  0.00    -0.049 A 
ATOM      6  C6  <0> d           2.393   0.055  -0.019  0.00  0.00    -0.076 A 
ATOM      7  C7  <0> d           1.303  -2.173  -0.032  0.00  0.00    -0.040 C 
ATOM      8  C8  <0> d          -0.019  -2.800   0.405  0.00  0.00    -0.059 C 
ATOM      9  C9  <0> d          -1.148  -2.176  -0.422  0.00  0.00    -0.037 C 
ATOM     10  C10 <0> d          -1.321  -0.724   0.018  0.00  0.00     0.061 C 
ATOM     11  H1  <0> d          -1.731  -0.701   1.027  0.00  0.00     0.090 H 
ATOM     12  H2  <0> d           3.298   1.990  -0.014  0.00  0.00     0.083 H 
ATOM     13  H3  <0> d           1.139   3.182   0.006  0.00  0.00     0.083 H 
ATOM     14  H4  <0> d          -0.962   1.908   0.017  0.00  0.00     0.084 H 
ATOM     15  H5  <0> d           3.338  -0.467  -0.028  0.00  0.00     0.084 H 
ATOM     16  H6  <0> d           2.094  -2.490   0.647  0.00  0.00     0.040 H 
ATOM     17  H7  <0> d           1.542  -2.505  -1.043  0.00  0.00     0.040 H 
ATOM     18  H8  <0> d          -0.186  -2.602   1.464  0.00  0.00     0.033 H 
ATOM     19  H9  <0> d           0.011  -3.876   0.233  0.00  0.00     0.033 H 
ATOM     20  H10 <0> d          -2.075  -2.724  -0.252  0.00  0.00     0.037 H 
ATOM     21  H11 <0> d          -0.891  -2.211  -1.481  0.00  0.00     0.037 H 
ENDROOT
BRANCH  10  22
ATOM     22  O1  <0> d          -2.225  -0.066  -0.873  0.00  0.00    -0.391 OA
ATOM     23  H12 <0> d          -2.398   0.858  -0.646  0.00  0.00     0.210 HD
ENDBRANCH  10  22
TORSDOF 1
