REMARK  1 active torsions:
REMARK  status: ('A' for Active; 'I' for Inactive)
REMARK    1  A    between atoms: C4_4  and  O1_9 
ROOT
ATOM      1  C1  <0> d          -0.017   1.374   0.010  0.00  0.00    -0.081 A 
ATOM      2  C2  <0> d           1.170   2.089   0.002  0.00  0.00    -0.080 A 
ATOM      3  C3  <0> d           2.383   1.429  -0.013  0.00  0.00    -0.050 A 
ATOM      4  C4  <0> d           2.421   0.043  -0.022  0.00  0.00     0.086 A 
ATOM      5  C5  <0> d           1.222  -0.684  -0.014  0.00  0.00     0.077 A 
ATOM      6  C6  <0> d           0.002  -0.004   0.002  0.00  0.00    -0.060 A 
ATOM      7  C7  <0> d           1.249  -2.116  -0.023  0.00  0.00     0.102 C 
ATOM      8  N1  <0> d           1.270  -3.252  -0.030  0.00  0.00    -0.191 NA
ATOM      9  H1  <0> d          -0.960   1.899   0.026  0.00  0.00     0.083 H 
ATOM     10  H2  <0> d           1.146   3.169   0.008  0.00  0.00     0.083 H 
ATOM     11  H3  <0> d           3.304   1.994  -0.020  0.00  0.00     0.087 H 
ATOM     12  H4  <0> d          -0.925  -0.557   0.008  0.00  0.00     0.086 H 
ENDROOT
BRANCH   4  13
ATOM     13  O1  <0> d           3.612  -0.606  -0.038  0.00  0.00    -0.359 OA
ATOM     14  H5  <0> d           3.967  -0.799   0.841  0.00  0.00     0.217 HD
ENDBRANCH   4  13
TORSDOF 1
