REMARK  2 active torsions:
REMARK  status: ('A' for Active; 'I' for Inactive)
REMARK    1  A    between atoms: C1_1  and  C2_2 
REMARK    2  A    between atoms: C2_2  and  C3_3 
ROOT
ATOM      1  C3  <0> d           0.731  -0.503   1.223  0.00  0.00     0.122 A 
ATOM      2  C4  <0> d           0.883  -1.863   1.430  0.00  0.00     0.032 A 
ATOM      3  N1  <0> d           1.522  -2.301   2.501  0.00  0.00    -0.269 NA
ATOM      4  C5  <0> d           2.017  -1.440   3.373  0.00  0.00     0.019 A 
ATOM      5  C6  <0> d           1.865  -0.081   3.166  0.00  0.00     0.019 A 
ATOM      6  N2  <0> d           1.230   0.357   2.092  0.00  0.00    -0.256 NA
ATOM      7  H4  <0> d           0.478  -2.567   0.718  0.00  0.00     0.118 H 
ATOM      8  H5  <0> d           2.539  -1.798   4.248  0.00  0.00     0.117 H 
ATOM      9  H6  <0> d           2.269   0.623   3.878  0.00  0.00     0.117 H 
ENDROOT
BRANCH   1  10
ATOM     10  C2  <0> d           0.002  -0.004   0.002  0.00  0.00     0.285 C 
ATOM     11  F1  <0> d          -1.310  -0.488   0.012  0.00  0.00    -0.200 F 
ATOM     12  F2  <0> d           0.657  -0.455  -1.149  0.00  0.00    -0.200 F 
BRANCH  10  13
ATOM     13  C1  <0> d          -0.019   1.526   0.010  0.00  0.00    -0.011 C 
ATOM     14  H1  <0> d           1.004   1.903   0.003  0.00  0.00     0.036 H 
ATOM     15  H2  <0> d          -0.546   1.887  -0.873  0.00  0.00     0.036 H 
ATOM     16  H3  <0> d          -0.529   1.877   0.907  0.00  0.00     0.036 H 
ENDBRANCH  10  13
ENDBRANCH   1  10
TORSDOF 2
