REMARK  2 active torsions:
REMARK  status: ('A' for Active; 'I' for Inactive)
REMARK    1  A    between atoms: C1_1  and  C2_2 
REMARK    2  A    between atoms: C7_7  and  N1_8 
ROOT
ATOM      1  C2  <0> d           0.002  -0.004   0.002  0.00  0.00    -0.035 A 
ATOM      2  C3  <0> d           0.006  -0.686  -1.210  0.00  0.00    -0.073 A 
ATOM      3  C4  <0> d           0.024  -2.047  -1.253  0.00  0.00    -0.054 A 
ATOM      4  C5  <0> d           0.041  -2.789  -0.060  0.00  0.00     0.069 A 
ATOM      5  C6  <0> d           0.037  -2.104   1.180  0.00  0.00     0.019 A 
ATOM      6  C7  <0> d           0.023  -0.694   1.197  0.00  0.00     0.044 A 
ATOM      7  C8  <0> d           0.053  -2.849   2.371  0.00  0.00    -0.067 A 
ATOM      8  C9  <0> d           0.072  -4.213   2.279  0.00  0.00    -0.065 A 
ATOM      9  C10 <0> d           0.074  -4.825   1.029  0.00  0.00     0.003 A 
ATOM     10  N2  <0> d           0.059  -4.126  -0.081  0.00  0.00    -0.260 NA
ATOM     11  H4  <0> d          -0.007  -0.127  -2.134  0.00  0.00     0.084 H 
ATOM     12  H5  <0> d           0.026  -2.557  -2.205  0.00  0.00     0.087 H 
ATOM     13  H8  <0> d           0.051  -2.358   3.333  0.00  0.00     0.085 H 
ATOM     14  H9  <0> d           0.085  -4.816   3.176  0.00  0.00     0.085 H 
ATOM     15  H10 <0> d           0.089  -5.903   0.971  0.00  0.00     0.114 H 
ENDROOT
BRANCH   1  16
ATOM     16  C1  <0> d          -0.018   1.503   0.010  0.00  0.00    -0.049 C 
ATOM     17  H1  <0> d           1.004   1.880   0.003  0.00  0.00     0.033 H 
ATOM     18  H2  <0> d          -0.545   1.864  -0.873  0.00  0.00     0.033 H 
ATOM     19  H3  <0> d          -0.529   1.854   0.907  0.00  0.00     0.033 H 
ENDBRANCH   1  16
BRANCH   6  20
ATOM     20  N1  <0> d           0.025  -0.004   2.406  0.00  0.00    -0.398 N 
ATOM     21  H6  <0> d           0.012   0.965   2.412  0.00  0.00     0.156 HD
ATOM     22  H7  <0> d           0.039  -0.494   3.243  0.00  0.00     0.156 HD
ENDBRANCH   6  20
TORSDOF 2
