REMARK  2 active torsions:
REMARK  status: ('A' for Active; 'I' for Inactive)
REMARK    1  A    between atoms: C1_1  and  O1_2 
REMARK    2  A    between atoms: O1_2  and  C2_3 
ROOT
ATOM      1  C2  <0> d           1.096   2.031   0.003  0.00  0.00     0.165 A 
ATOM      2  C3  <0> d           2.338   1.412  -0.013  0.00  0.00    -0.012 A 
ATOM      3  C4  <0> d           2.399   0.017  -0.020  0.00  0.00     0.050 A 
ATOM      4  C5  <0> d           1.194  -0.698  -0.013  0.00  0.00    -0.046 A 
ATOM      5  C6  <0> d           0.002  -0.004   0.002  0.00  0.00     0.006 A 
ATOM      6  N1  <0> d          -0.016   1.315   0.009  0.00  0.00    -0.237 NA
ATOM      7  C7  <0> d           3.658  -0.665  -0.036  0.00  0.00     0.099 C 
ATOM      8  N2  <0> d           4.657  -1.206  -0.048  0.00  0.00    -0.191 NA
ATOM      9  H4  <0> d           3.244   2.001  -0.018  0.00  0.00     0.092 H 
ATOM     10  H5  <0> d           1.198  -1.778  -0.018  0.00  0.00     0.088 H 
ATOM     11  H6  <0> d          -0.930  -0.549   0.008  0.00  0.00     0.114 H 
ENDROOT
BRANCH   1  12
ATOM     12  O1  <0> d           1.021   3.386   0.010  0.00  0.00    -0.339 OA
BRANCH  12  13
ATOM     13  C1  <0> d          -0.285   3.963   0.025  0.00  0.00     0.012 C 
ATOM     14  H1  <0> d          -0.834   3.645  -0.861  0.00  0.00     0.067 H 
ATOM     15  H2  <0> d          -0.817   3.636   0.918  0.00  0.00     0.067 H 
ATOM     16  H3  <0> d          -0.202   5.050   0.030  0.00  0.00     0.067 H 
ENDBRANCH  12  13
ENDBRANCH   1  12
TORSDOF 2
