REMARK  1 active torsions:
REMARK  status: ('A' for Active; 'I' for Inactive)
REMARK    1  A    between atoms: C8_10  and  O1_12 
ROOT
ATOM      1  C1  <0> d          -1.387  -0.515   2.529  0.00  0.00    -0.058 C 
ATOM      2  C2  <0> d          -2.132   0.005   1.298  0.00  0.00    -0.056 C 
ATOM      3  C3  <0> d          -1.437  -0.535   0.011  0.00  0.00    -0.013 C 
ATOM      4  H1  <0> d          -1.972  -0.218  -0.885  0.00  0.00     0.050 H 
ATOM      5  C4  <0> d          -1.374  -2.052   0.110  0.00  0.00    -0.100 C 
ATOM      6  C5  <0> d          -0.731  -2.492   1.188  0.00  0.00    -0.102 C 
ATOM      7  C6  <0> d          -0.201  -1.381   2.083  0.00  0.00    -0.036 C 
ATOM      8  H2  <0> d           0.322  -1.795   2.945  0.00  0.00     0.046 H 
ATOM      9  C7  <0> d           0.742  -0.511   1.242  0.00  0.00    -0.034 C 
ATOM     10  C8  <0> d           0.002  -0.004   0.002  0.00  0.00     0.043 C 
ATOM     11  H3  <0> d           0.513  -0.355  -0.895  0.00  0.00     0.084 H 
ATOM     12  H4  <0> d          -2.064  -1.114   3.138  0.00  0.00     0.034 H 
ATOM     13  H5  <0> d          -1.021   0.327   3.115  0.00  0.00     0.034 H 
ATOM     14  H6  <0> d          -3.163  -0.346   1.323  0.00  0.00     0.034 H 
ATOM     15  H7  <0> d          -2.120   1.095   1.300  0.00  0.00     0.034 H 
ATOM     16  H8  <0> d          -1.811  -2.710  -0.626  0.00  0.00     0.077 H 
ATOM     17  H9  <0> d          -0.596  -3.541   1.408  0.00  0.00     0.076 H 
ATOM     18  H10 <0> d           1.604  -1.102   0.934  0.00  0.00     0.037 H 
ATOM     19  H11 <0> d           1.079   0.339   1.836  0.00  0.00     0.037 H 
ENDROOT
BRANCH  10  20
ATOM     20  O1  <0> d          -0.017   1.425   0.010  0.00  0.00    -0.395 OA
ATOM     21  H12 <0> d           0.861   1.830   0.004  0.00  0.00     0.210 HD
ENDBRANCH  10  20
TORSDOF 1
