REMARK  1 active torsions:
REMARK  status: ('A' for Active; 'I' for Inactive)
REMARK    1  A    between atoms: C4_5  and  N3_7 
ROOT
ATOM      1  C1  <0> d           1.148   3.365   0.009  0.00  0.00     0.029 A 
ATOM      2  C2  <0> d          -0.054   4.055   0.024  0.00  0.00    -0.015 A 
ATOM      3  C3  <0> d          -1.235   3.333   0.032  0.00  0.00     0.061 A 
ATOM      4  N1  <0> d          -1.182   2.010   0.019  0.00  0.00    -0.067 NA
ATOM      5  C4  <0> d          -0.017   1.380   0.010  0.00  0.00     0.720 A 
ATOM      6  N2  <0> d           1.131   2.042   0.002  0.00  0.00    -0.075 NA
ATOM      7  C5  <0> d          -2.412   4.282   0.048  0.00  0.00    -0.023 C 
ATOM      8  C6  <0> d          -1.838   5.647  -0.388  0.00  0.00    -0.056 C 
ATOM      9  C7  <0> d          -0.357   5.535   0.034  0.00  0.00    -0.037 C 
ATOM     10  H1  <0> d           2.086   3.900   0.003  0.00  0.00     0.116 H 
ATOM     11  H4  <0> d          -3.181   3.924  -0.652  0.00  0.00     0.042 H 
ATOM     12  H5  <0> d          -2.833   4.326   1.063  0.00  0.00     0.042 H 
ATOM     13  H6  <0> d          -1.964   5.768  -1.474  0.00  0.00     0.034 H 
ATOM     14  H7  <0> d          -2.372   6.454   0.135  0.00  0.00     0.034 H 
ATOM     15  H8  <0> d          -0.193   5.936   1.045  0.00  0.00     0.040 H 
ATOM     16  H9  <0> d           0.307   6.050  -0.676  0.00  0.00     0.040 H 
ENDROOT
BRANCH   5  17
ATOM     17  N3  <0> d           0.002  -0.004   0.002  0.00  0.00    -0.231 N 
ATOM     18  H2  <0> d           0.962  -0.541  -0.006  0.00  0.00     0.174 HD
ATOM     19  H3  <0> d          -0.943  -0.567   0.004  0.00  0.00     0.174 HD
ENDBRANCH   5  17
TORSDOF 1
