REMARK  4 active torsions:
REMARK  status: ('A' for Active; 'I' for Inactive)
REMARK    1  A    between atoms: C1_1  and  O1_2 
REMARK    2  A    between atoms: O1_2  and  C2_3 
REMARK    3  A    between atoms: C2_3  and  C3_5 
REMARK    4  A    between atoms: C6_8  and  O3_11 
ROOT
ATOM      1  C3  <0> d           3.695   2.674   0.068  0.00  0.00     0.131 A 
ATOM      2  C4  <0> d           3.104   2.413  -1.169  0.00  0.00    -0.046 A 
ATOM      3  C5  <0> d           1.849   1.833  -1.207  0.00  0.00    -0.047 A 
ATOM      4  C6  <0> d           1.221   1.532  -0.001  0.00  0.00     0.083 A 
ATOM      5  C7  <0> d           1.870   1.826   1.196  0.00  0.00     0.035 A 
ATOM      6  N1  <0> d           3.064   2.372   1.197  0.00  0.00    -0.252 NA
ATOM      7  H4  <0> d           3.620   2.660  -2.085  0.00  0.00     0.087 H 
ATOM      8  H5  <0> d           1.367   1.620  -2.150  0.00  0.00     0.087 H 
ATOM      9  H6  <0> d           1.386   1.598   2.134  0.00  0.00     0.119 H 
ENDROOT
BRANCH   1  10
ATOM     10  C2  <0> d           5.036   3.293   0.121  0.00  0.00     0.311 C 
ATOM     11  O2  <0> d           5.618   3.572  -0.907  0.00  0.00    -0.258 OA
BRANCH  10  12
ATOM     12  O1  <0> d           5.613   3.548   1.312  0.00  0.00    -0.321 OA
BRANCH  12  13
ATOM     13  C1  <0> d           6.931   4.157   1.289  0.00  0.00     0.013 C 
ATOM     14  H1  <0> d           7.279   4.308   2.311  0.00  0.00     0.067 H 
ATOM     15  H2  <0> d           7.624   3.502   0.762  0.00  0.00     0.067 H 
ATOM     16  H3  <0> d           6.878   5.118   0.777  0.00  0.00     0.067 H 
ENDBRANCH  12  13
ENDBRANCH  10  12
ENDBRANCH   1  10
BRANCH   4  17
ATOM     17  O3  <0> d          -0.011   0.963   0.007  0.00  0.00    -0.359 OA
ATOM     18  H7  <0> d           0.002  -0.004   0.002  0.00  0.00     0.217 HD
ENDBRANCH   4  17
TORSDOF 4
