REMARK  3 active torsions:
REMARK  status: ('A' for Active; 'I' for Inactive)
REMARK    1  A    between atoms: C1_1  and  S1_2 
REMARK    2  A    between atoms: S1_2  and  C2_3 
REMARK    3  A    between atoms: C6_7  and  N1_9 
ROOT
ATOM      1  C2  <0> d          -0.049   3.848   0.022  0.00  0.00     0.002 A 
ATOM      2  C3  <0> d           1.161   3.163   0.007  0.00  0.00    -0.067 A 
ATOM      3  C4  <0> d           1.175   1.782   0.000  0.00  0.00    -0.080 A 
ATOM      4  C5  <0> d          -0.013   1.076   0.008  0.00  0.00    -0.058 A 
ATOM      5  C6  <0> d          -1.226   1.753   0.017  0.00  0.00     0.026 A 
ATOM      6  C7  <0> d          -1.244   3.141   0.030  0.00  0.00    -0.042 A 
ATOM      7  H4  <0> d           2.091   3.712   0.001  0.00  0.00     0.085 H 
ATOM      8  H5  <0> d           2.117   1.253  -0.011  0.00  0.00     0.083 H 
ATOM      9  H6  <0> d           0.002  -0.004   0.002  0.00  0.00     0.086 H 
ATOM     10  H7  <0> d          -2.186   3.670   0.042  0.00  0.00     0.089 H 
ENDROOT
BRANCH   1  11
ATOM     11  S1  <0> d          -0.066   5.609   0.031  0.00  0.00    -0.134 SA
BRANCH  11  12
ATOM     12  C1  <0> d           1.690   6.065   0.016  0.00  0.00    -0.030 C 
ATOM     13  H1  <0> d           1.783   7.151   0.020  0.00  0.00     0.042 H 
ATOM     14  H2  <0> d           2.179   5.655   0.900  0.00  0.00     0.042 H 
ATOM     15  H3  <0> d           2.162   5.664  -0.880  0.00  0.00     0.042 H 
ENDBRANCH  11  12
ENDBRANCH   1  11
BRANCH   5  16
ATOM     16  N1  <0> d          -2.426   1.038   0.020  0.00  0.00    -0.399 N 
ATOM     17  H8  <0> d          -2.413   0.069   0.015  0.00  0.00     0.156 HD
ATOM     18  H9  <0> d          -3.272   1.512   0.026  0.00  0.00     0.156 HD
ENDBRANCH   5  16
TORSDOF 3
