REMARK  7 active torsions:
REMARK  status: ('A' for Active; 'I' for Inactive)
REMARK    1  A    between atoms: C2_2  and  C3_3 
REMARK    2  A    between atoms: C3_3  and  O1_4 
REMARK    3  A    between atoms: O1_4  and  C4_5 
REMARK    4  A    between atoms: C4_5  and  C5_6 
REMARK    5  A    between atoms: C5_6  and  C6_8 
REMARK    6  A    between atoms: C5_6  and  O3_10 
REMARK    7  A    between atoms: C6_8  and  O2_9 
ROOT
ATOM      1  C4  <0> d           2.527   3.727  -0.128  0.00  0.00     0.045 C 
ATOM      2  H7  <0> d           3.127   3.487   0.751  0.00  0.00     0.078 H 
ATOM      3  H8  <0> d           3.021   3.341  -1.020  0.00  0.00     0.078 H 
ENDROOT
BRANCH   1   4
ATOM      4  O1  <0> d           2.386   5.144  -0.236  0.00  0.00    -0.385 OA
BRANCH   4   5
ATOM      5  C3  <0> d           3.625   5.844  -0.368  0.00  0.00     0.034 C 
ATOM      6  H5  <0> d           4.247   5.648   0.506  0.00  0.00     0.080 H 
ATOM      7  H6  <0> d           4.141   5.503  -1.265  0.00  0.00     0.080 H 
BRANCH   5   8
ATOM      8  C2  <0> d           3.358   7.323  -0.473  0.00  0.00    -0.090 C 
ATOM      9  C1  <0> d           4.078   8.170   0.220  0.00  0.00    -0.123 C 
ATOM     10  H2  <0> d           3.887   9.230   0.144  0.00  0.00     0.066 H 
ATOM     11  H3  <0> d           4.863   7.807   0.868  0.00  0.00     0.066 H 
ATOM     12  H4  <0> d           2.574   7.686  -1.121  0.00  0.00     0.078 H 
ENDBRANCH   5   8
ENDBRANCH   4   5
ENDBRANCH   1   4
BRANCH   1  13
ATOM     13  C5  <0> d           1.145   3.085   0.008  0.00  0.00     0.076 C 
ATOM     14  H1  <0> d           0.516   3.397  -0.827  0.00  0.00     0.089 H 
BRANCH  13  15
ATOM     15  C6  <0> d           1.286   1.562  -0.002  0.00  0.00     0.042 C 
ATOM     16  H9  <0> d           1.840   1.243   0.881  0.00  0.00     0.078 H 
ATOM     17  H10 <0> d           1.823   1.252  -0.899  0.00  0.00     0.078 H 
BRANCH  15  18
ATOM     18  O2  <0> d          -0.011   0.963   0.007  0.00  0.00    -0.398 OA
ATOM     19  H11 <0> d           0.002  -0.004   0.002  0.00  0.00     0.209 HD
ENDBRANCH  15  18
ENDBRANCH  13  15
BRANCH  13  20
ATOM     20  O3  <0> d           0.546   3.500   1.237  0.00  0.00    -0.391 OA
ATOM     21  H12 <0> d           1.052   3.256   2.023  0.00  0.00     0.210 HD
ENDBRANCH  13  20
ENDBRANCH   1  13
TORSDOF 7
