REMARK  3 active torsions:
REMARK  status: ('A' for Active; 'I' for Inactive)
REMARK    1  A    between atoms: C1_1  and  N1_2 
REMARK    2  A    between atoms: N1_2  and  C2_3 
REMARK    3  A    between atoms: C7_8  and  C8_9 
ROOT
ATOM      1  C2  <0> d          -1.191  -0.712  -0.015  0.00  0.00     0.044 A 
ATOM      2  C3  <0> d          -2.403  -0.042   0.099  0.00  0.00    -0.057 A 
ATOM      3  C4  <0> d          -3.585  -0.752   0.131  0.00  0.00    -0.081 A 
ATOM      4  C5  <0> d          -3.576  -2.136   0.050  0.00  0.00    -0.082 A 
ATOM      5  C6  <0> d          -2.387  -2.819  -0.064  0.00  0.00    -0.064 A 
ATOM      6  C7  <0> d          -1.179  -2.115  -0.104  0.00  0.00     0.067 A 
ATOM      7  H5  <0> d          -2.420   1.036   0.163  0.00  0.00     0.086 H 
ATOM      8  H6  <0> d          -4.524  -0.226   0.220  0.00  0.00     0.083 H 
ATOM      9  H7  <0> d          -4.508  -2.681   0.076  0.00  0.00     0.083 H 
ATOM     10  H8  <0> d          -2.386  -3.897  -0.126  0.00  0.00     0.085 H 
ENDROOT
BRANCH   1  11
ATOM     11  N1  <0> d          -0.001  -0.001  -0.048  0.00  0.00    -0.393 N 
ATOM     12  H4  <0> d           0.847  -0.472  -0.045  0.00  0.00     0.159 HD
BRANCH  11  13
ATOM     13  C1  <0> d          -0.024   1.464  -0.086  0.00  0.00    -0.021 C 
ATOM     14  H1  <0> d           0.998   1.843  -0.108  0.00  0.00     0.056 H 
ATOM     15  H2  <0> d          -0.553   1.796  -0.979  0.00  0.00     0.056 H 
ATOM     16  H3  <0> d          -0.533   1.843   0.800  0.00  0.00     0.056 H 
ENDBRANCH  11  13
ENDBRANCH   1  11
BRANCH   6  17
ATOM     17  C8  <0> d           0.096  -2.837  -0.231  0.00  0.00     0.211 C 
ATOM     18  O1  <0> d           0.098  -4.046  -0.416  0.00  0.00    -0.644 OA
ATOM     19  O2  <0> d           1.154  -2.228  -0.152  0.00  0.00    -0.644 OA
ENDBRANCH   6  17
TORSDOF 3
