REMARK  1 active torsions:
REMARK  status: ('A' for Active; 'I' for Inactive)
REMARK    1  A    between atoms: C7_9  and  N2_11 
ROOT
ATOM      1  C1  <0> d          -0.017   1.384   0.010  0.00  0.00    -0.043 A 
ATOM      2  C2  <0> d           1.164   2.099   0.002  0.00  0.00    -0.045 A 
ATOM      3  C3  <0> d           2.377   1.431  -0.013  0.00  0.00     0.108 A 
ATOM      4  C4  <0> d           2.402   0.028  -0.021  0.00  0.00     0.098 A 
ATOM      5  C5  <0> d           1.202  -0.685  -0.014  0.00  0.00    -0.015 A 
ATOM      6  C6  <0> d           0.002  -0.004   0.002  0.00  0.00     0.118 A 
ATOM      7  F1  <0> d          -1.161  -0.692   0.009  0.00  0.00    -0.206 F 
ATOM      8  N1  <0> d           3.713  -0.339  -0.036  0.00  0.00    -0.206 NA
ATOM      9  C7  <0> d           4.451   0.742  -0.037  0.00  0.00     0.245 A 
ATOM     10  O1  <0> d           3.668   1.836  -0.023  0.00  0.00    -0.276 OA
ATOM     11  H1  <0> d          -0.961   1.907   0.017  0.00  0.00     0.088 H 
ATOM     12  H2  <0> d           1.142   3.179   0.008  0.00  0.00     0.088 H 
ATOM     13  H3  <0> d           1.213  -1.765  -0.020  0.00  0.00     0.091 H 
ENDROOT
BRANCH   9  14
ATOM     14  N2  <0> d           5.827   0.757  -0.050  0.00  0.00    -0.363 N 
ATOM     15  H4  <0> d           6.367   1.716  -0.050  0.00  0.00     0.159 HD
ATOM     16  H5  <0> d           6.387  -0.189  -0.061  0.00  0.00     0.159 HD
ENDBRANCH   9  14
TORSDOF 1
