REMARK  1 active torsions:
REMARK  status: ('A' for Active; 'I' for Inactive)
REMARK    1  A    between atoms: C5_8  and  N2_9 
ROOT
ATOM      1  C1  <0> d          -2.438   0.930   0.019  0.00  0.00    -0.043 A 
ATOM      2  C2  <0> d          -3.606   1.605   0.028  0.00  0.00    -0.018 A 
ATOM      3  N1  <0> d          -3.628   2.964   0.037  0.00  0.00    -0.334 N 
ATOM      4  H1  <0> d          -4.589   3.499   0.045  0.00  0.00     0.168 HD
ATOM      5  C3  <0> d          -2.487   3.678   0.035  0.00  0.00     0.247 A 
ATOM      6  O1  <0> d          -2.532   4.898   0.043  0.00  0.00    -0.268 OA
ATOM      7  C4  <0> d          -1.250   3.026   0.030  0.00  0.00     0.008 A 
ATOM      8  C5  <0> d          -1.218   1.641   0.017  0.00  0.00     0.032 A 
ATOM      9  H2  <0> d          -2.435  -0.150   0.012  0.00  0.00     0.089 H 
ATOM     10  H3  <0> d          -4.537   1.057   0.030  0.00  0.00     0.111 H 
ATOM     11  H4  <0> d          -0.332   3.595   0.034  0.00  0.00     0.095 H 
ENDROOT
BRANCH   8  12
ATOM     12  N2  <0> d          -0.011   0.966   0.007  0.00  0.00    -0.399 N 
ATOM     13  H5  <0> d           0.934   1.529   0.006  0.00  0.00     0.156 HD
ATOM     14  H6  <0> d           0.004  -0.134   0.002  0.00  0.00     0.156 HD
ENDBRANCH   8  12
TORSDOF 1
