REMARK  4 active torsions:
REMARK  status: ('A' for Active; 'I' for Inactive)
REMARK    1  A    between atoms: C1_1  and  C2_2 
REMARK    2  A    between atoms: C2_2  and  C3_3 
REMARK    3  A    between atoms: C2_2  and  O1_4 
REMARK    4  A    between atoms: O1_4  and  C4_5 
ROOT
ATOM      1  C4  <0> d          -1.347   1.761   0.018  0.00  0.00     0.055 C 
ATOM      2  H1  <0> d          -1.780   1.725  -0.982  0.00  0.00     0.089 H 
ATOM      3  C5  <0> d          -1.185   3.221   0.453  0.00  0.00    -0.037 C 
ATOM      4  C6  <0> d          -0.061   3.850  -0.381  0.00  0.00    -0.060 C 
ATOM      5  C7  <0> d           1.262   3.192   0.017  0.00  0.00    -0.050 C 
ATOM      6  C8  <0> d           1.122   1.698   0.001  0.00  0.00    -0.104 C 
ATOM      7  C9  <0> d          -0.013   1.076   0.008  0.00  0.00    -0.079 C 
ATOM      8  H9  <0> d          -0.925   3.266   1.511  0.00  0.00     0.037 H 
ATOM      9  H10 <0> d          -2.115   3.763   0.281  0.00  0.00     0.037 H 
ATOM     10  H11 <0> d          -0.013   4.920  -0.182  0.00  0.00     0.033 H 
ATOM     11  H12 <0> d          -0.252   3.679  -1.440  0.00  0.00     0.033 H 
ATOM     12  H13 <0> d           1.541   3.518   1.019  0.00  0.00     0.038 H 
ATOM     13  H14 <0> d           2.039   3.490  -0.687  0.00  0.00     0.038 H 
ATOM     14  H15 <0> d           2.025   1.105  -0.019  0.00  0.00     0.076 H 
ATOM     15  H16 <0> d           0.002  -0.004   0.002  0.00  0.00     0.080 H 
ENDROOT
BRANCH   1  16
ATOM     16  O1  <0> d          -2.217   1.091   0.933  0.00  0.00    -0.378 OA
BRANCH  16  17
ATOM     17  C2  <0> d          -2.980   0.037   0.343  0.00  0.00     0.032 C 
ATOM     18  H5  <0> d          -3.167   0.266  -0.706  0.00  0.00     0.082 H 
BRANCH  17  19
ATOM     19  C1  <0> d          -2.200  -1.276   0.447  0.00  0.00    -0.052 C 
ATOM     20  H2  <0> d          -2.782  -2.080  -0.004  0.00  0.00     0.030 H 
ATOM     21  H3  <0> d          -1.251  -1.177  -0.079  0.00  0.00     0.030 H 
ATOM     22  H4  <0> d          -2.013  -1.506   1.495  0.00  0.00     0.030 H 
ENDBRANCH  17  19
BRANCH  17  23
ATOM     23  C3  <0> d          -4.313  -0.103   1.081  0.00  0.00    -0.052 C 
ATOM     24  H6  <0> d          -4.868   0.833   1.007  0.00  0.00     0.030 H 
ATOM     25  H7  <0> d          -4.895  -0.907   0.631  0.00  0.00     0.030 H 
ATOM     26  H8  <0> d          -4.126  -0.332   2.129  0.00  0.00     0.030 H 
ENDBRANCH  17  23
ENDBRANCH  16  17
ENDBRANCH   1  16
TORSDOF 4
