REMARK  2 active torsions:
REMARK  status: ('A' for Active; 'I' for Inactive)
REMARK    1  A    between atoms: C1_1  and  C2_2 
REMARK    2  A    between atoms: C5_5  and  C8_10 
ROOT
ATOM      1  C2  <0> d           0.002  -0.004   0.002  0.00  0.00    -0.020 A 
ATOM      2  C3  <0> d           0.006  -0.689  -1.199  0.00  0.00    -0.074 A 
ATOM      3  C4  <0> d           0.025  -2.071  -1.208  0.00  0.00    -0.074 A 
ATOM      4  C5  <0> d           0.040  -2.771  -0.017  0.00  0.00    -0.020 A 
ATOM      5  C6  <0> d           0.036  -2.089   1.187  0.00  0.00     0.161 A 
ATOM      6  C7  <0> d           0.023  -0.702   1.196  0.00  0.00     0.161 A 
ATOM      7  F1  <0> d           0.025  -0.034   2.370  0.00  0.00    -0.202 F 
ATOM      8  F2  <0> d           0.051  -2.773   2.352  0.00  0.00    -0.202 F 
ATOM      9  H4  <0> d          -0.007  -0.143  -2.131  0.00  0.00     0.084 H 
ATOM     10  H5  <0> d           0.028  -2.604  -2.148  0.00  0.00     0.084 H 
ENDROOT
BRANCH   1  11
ATOM     11  C1  <0> d          -0.018   1.503   0.010  0.00  0.00    -0.048 C 
ATOM     12  H1  <0> d           1.004   1.880   0.003  0.00  0.00     0.033 H 
ATOM     13  H2  <0> d          -0.545   1.864  -0.873  0.00  0.00     0.033 H 
ATOM     14  H3  <0> d          -0.529   1.854   0.907  0.00  0.00     0.033 H 
ENDBRANCH   1  11
BRANCH   4  15
ATOM     15  C8  <0> d           0.060  -4.278  -0.029  0.00  0.00    -0.048 C 
ATOM     16  H6  <0> d           1.092  -4.628  -0.036  0.00  0.00     0.033 H 
ATOM     17  H7  <0> d          -0.445  -4.655   0.861  0.00  0.00     0.033 H 
ATOM     18  H8  <0> d          -0.453  -4.641  -0.919  0.00  0.00     0.033 H 
ENDBRANCH   4  15
TORSDOF 2
