REMARK  3 active torsions:
REMARK  status: ('A' for Active; 'I' for Inactive)
REMARK    1  A    between atoms: C1_1  and  C2_2 
REMARK    2  A    between atoms: C5_6  and  C8_11 
REMARK    3  A    between atoms: C8_11  and  C10_13 
ROOT
ATOM      1  C2  <0> d           0.002  -0.004   0.002  0.00  0.00    -0.051 C 
ATOM      2  H1  <0> d           0.512  -0.356  -0.895  0.00  0.00     0.040 H 
ATOM      3  C3  <0> d          -1.433  -0.534   0.014  0.00  0.00    -0.061 C 
ATOM      4  C4  <0> d          -2.183   0.028   1.222  0.00  0.00    -0.051 C 
ATOM      5  C5  <0> d          -1.525  -0.479   2.510  0.00  0.00     0.025 C 
ATOM      6  H2  <0> d          -1.640  -1.561   2.579  0.00  0.00     0.058 H 
ATOM      7  C6  <0> d          -0.055  -0.126   2.470  0.00  0.00     0.135 C 
ATOM      8  O1  <0> d           0.469   0.450   3.393  0.00  0.00    -0.297 OA
ATOM      9  C7  <0> d           0.743  -0.512   1.244  0.00  0.00    -0.006 C 
ATOM     10  H6  <0> d          -1.940  -0.227  -0.902  0.00  0.00     0.033 H 
ATOM     11  H7  <0> d          -1.417  -1.622   0.071  0.00  0.00     0.033 H 
ATOM     12  H8  <0> d          -2.146   1.117   1.200  0.00  0.00     0.034 H 
ATOM     13  H9  <0> d          -3.222  -0.302   1.191  0.00  0.00     0.034 H 
ATOM     14  H10 <0> d           0.837  -1.597   1.195  0.00  0.00     0.044 H 
ATOM     15  H11 <0> d           1.732  -0.057   1.292  0.00  0.00     0.044 H 
ENDROOT
BRANCH   5  16
ATOM     16  C8  <0> d          -2.175   0.176   3.702  0.00  0.00    -0.082 C 
ATOM     17  C9  <0> d          -2.765  -0.559   4.612  0.00  0.00    -0.119 C 
ATOM     18  H12 <0> d          -3.231  -0.089   5.466  0.00  0.00     0.067 H 
ATOM     19  H13 <0> d          -2.786  -1.634   4.508  0.00  0.00     0.067 H 
BRANCH  16  20
ATOM     20  C10 <0> d          -2.145   1.675   3.847  0.00  0.00    -0.054 C 
ATOM     21  H14 <0> d          -2.643   2.133   2.992  0.00  0.00     0.033 H 
ATOM     22  H15 <0> d          -2.661   1.962   4.763  0.00  0.00     0.033 H 
ATOM     23  H16 <0> d          -1.111   2.016   3.891  0.00  0.00     0.033 H 
ENDBRANCH  16  20
ENDBRANCH   5  16
BRANCH   1  24
ATOM     24  C1  <0> d          -0.019   1.526   0.010  0.00  0.00    -0.073 C 
ATOM     25  H3  <0> d           1.004   1.903   0.003  0.00  0.00     0.028 H 
ATOM     26  H4  <0> d          -0.546   1.887  -0.873  0.00  0.00     0.028 H 
ATOM     27  H5  <0> d          -0.529   1.877   0.907  0.00  0.00     0.028 H 
ENDBRANCH   1  24
TORSDOF 3
