REMARK  4 active torsions:
REMARK  status: ('A' for Active; 'I' for Inactive)
REMARK    1  A    between atoms: C1_1  and  O1_2 
REMARK    2  A    between atoms: O1_2  and  C2_3 
REMARK    3  A    between atoms: C4_5  and  C8_10 
REMARK    4  A    between atoms: C8_10  and  O2_11 
ROOT
ATOM      1  C2  <0> d          -2.368   1.254   2.958  0.00  0.00     0.107 A 
ATOM      2  C3  <0> d          -1.719   0.807   1.817  0.00  0.00    -0.040 A 
ATOM      3  C4  <0> d          -0.718   1.572   1.248  0.00  0.00    -0.032 A 
ATOM      4  C5  <0> d          -0.359   2.779   1.818  0.00  0.00    -0.072 A 
ATOM      5  C6  <0> d          -1.008   3.231   2.952  0.00  0.00    -0.042 A 
ATOM      6  C7  <0> d          -2.010   2.470   3.526  0.00  0.00     0.149 A 
ATOM      7  F1  <0> d          -2.641   2.909   4.637  0.00  0.00    -0.203 F 
ATOM      8  H4  <0> d          -1.995  -0.138   1.373  0.00  0.00     0.088 H 
ATOM      9  H5  <0> d           0.427   3.372   1.374  0.00  0.00     0.084 H 
ATOM     10  H6  <0> d          -0.728   4.177   3.393  0.00  0.00     0.088 H 
ENDROOT
BRANCH   1  11
ATOM     11  O1  <0> d          -3.353   0.504   3.518  0.00  0.00    -0.353 OA
BRANCH  11  12
ATOM     12  C1  <0> d          -3.669  -0.735   2.880  0.00  0.00     0.011 C 
ATOM     13  H1  <0> d          -3.993  -0.544   1.857  0.00  0.00     0.066 H 
ATOM     14  H2  <0> d          -2.785  -1.373   2.868  0.00  0.00     0.066 H 
ATOM     15  H3  <0> d          -4.469  -1.232   3.427  0.00  0.00     0.066 H 
ENDBRANCH  11  12
ENDBRANCH   1  11
BRANCH   3  16
ATOM     16  C8  <0> d          -0.013   1.086   0.008  0.00  0.00     0.041 C 
ATOM     17  H7  <0> d           0.002  -0.004   0.002  0.00  0.00     0.081 H 
ATOM     18  H8  <0> d           1.010   1.463   0.000  0.00  0.00     0.081 H 
BRANCH  16  19
ATOM     19  O2  <0> d          -0.704   1.559  -1.150  0.00  0.00    -0.396 OA
ATOM     20  H9  <0> d          -0.304   1.284  -1.986  0.00  0.00     0.209 HD
ENDBRANCH  16  19
ENDBRANCH   3  16
TORSDOF 4
