REMARK  1 active torsions:
REMARK  status: ('A' for Active; 'I' for Inactive)
REMARK    1  A    between atoms: C2_2  and  N1_3 
ROOT
ATOM      1  N1  <0> d          -2.236   4.078   0.046  0.00  0.00    -0.225 N 
ATOM      2  C3  <0> d          -1.234   3.133   0.031  0.00  0.00     0.090 A 
ATOM      3  C4  <0> d          -1.217   1.743   0.017  0.00  0.00    -0.053 A 
ATOM      4  C5  <0> d          -0.013   1.076   0.008  0.00  0.00    -0.081 A 
ATOM      5  C6  <0> d           1.184   1.782   0.000  0.00  0.00    -0.081 A 
ATOM      6  C7  <0> d           1.188   3.146   0.007  0.00  0.00    -0.051 A 
ATOM      7  C8  <0> d          -0.024   3.849   0.022  0.00  0.00     0.109 A 
ATOM      8  N2  <0> d          -0.328   5.168   0.033  0.00  0.00    -0.130 NA
ATOM      9  N3  <0> d          -1.604   5.331   0.046  0.00  0.00    -0.061 NA
ATOM     10  H4  <0> d          -2.144   1.190   0.018  0.00  0.00     0.087 H 
ATOM     11  H5  <0> d           0.002  -0.004   0.002  0.00  0.00     0.083 H 
ATOM     12  H6  <0> d           2.121   1.245  -0.011  0.00  0.00     0.083 H 
ATOM     13  H7  <0> d           2.125   3.684   0.001  0.00  0.00     0.087 H 
ENDROOT
BRANCH   1  14
ATOM     14  C2  <0> d          -3.609   3.837   0.059  0.00  0.00    -0.003 C 
ATOM     15  C1  <0> d          -4.456   4.848   0.074  0.00  0.00    -0.105 C 
ATOM     16  H1  <0> d          -4.086   5.862   0.075  0.00  0.00     0.068 H 
ATOM     17  H2  <0> d          -5.520   4.661   0.084  0.00  0.00     0.068 H 
ATOM     18  H3  <0> d          -3.979   2.822   0.058  0.00  0.00     0.113 H 
ENDBRANCH   1  14
TORSDOF 1
