REMARK  1 active torsions:
REMARK  status: ('A' for Active; 'I' for Inactive)
REMARK    1  A    between atoms: C4_5  and  O1_8 
ROOT
ATOM      1  C1  <0> d          -0.019   1.534   0.011  0.00  0.00    -0.061 C 
ATOM      2  C2  <0> d           1.453   1.995  -0.001  0.00  0.00    -0.048 C 
ATOM      3  C3  <0> d           2.232   0.792   0.586  0.00  0.00     0.055 C 
ATOM      4  H1  <0> d           3.272   0.808   0.259  0.00  0.00     0.066 H 
ATOM      5  C4  <0> d           1.486  -0.425  -0.014  0.00  0.00     0.051 C 
ATOM      6  H2  <0> d           1.819  -0.610  -1.036  0.00  0.00     0.085 H 
ATOM      7  C5  <0> d           0.002  -0.004   0.002  0.00  0.00    -0.040 C 
ATOM      8  C6  <0> d           2.151   0.786   2.056  0.00  0.00     0.066 C 
ATOM      9  N1  <0> d           2.088   0.780   3.190  0.00  0.00    -0.197 NA
ATOM     10  H3  <0> d          -0.516   1.896   0.910  0.00  0.00     0.033 H 
ATOM     11  H4  <0> d          -0.533   1.906  -0.876  0.00  0.00     0.033 H 
ATOM     12  H5  <0> d           1.781   2.201  -1.020  0.00  0.00     0.035 H 
ATOM     13  H6  <0> d           1.582   2.877   0.627  0.00  0.00     0.035 H 
ATOM     14  H7  <0> d          -0.485  -0.389   0.898  0.00  0.00     0.036 H 
ATOM     15  H8  <0> d          -0.502  -0.379  -0.888  0.00  0.00     0.036 H 
ENDROOT
BRANCH   5  16
ATOM     16  O1  <0> d           1.689  -1.585   0.795  0.00  0.00    -0.394 OA
ATOM     17  H9  <0> d           1.244  -2.377   0.465  0.00  0.00     0.210 HD
ENDBRANCH   5  16
TORSDOF 1
