REMARK  2 active torsions:
REMARK  status: ('A' for Active; 'I' for Inactive)
REMARK    1  A    between atoms: C1_1  and  C2_2 
REMARK    2  A    between atoms: C5_5  and  C9_10 
ROOT
ATOM      1  C2  <0> d          -1.249   3.133   0.031  0.00  0.00    -0.061 A 
ATOM      2  C3  <0> d          -1.221   1.750   0.017  0.00  0.00    -0.077 A 
ATOM      3  C4  <0> d          -0.013   1.076   0.008  0.00  0.00    -0.075 A 
ATOM      4  C5  <0> d           1.174   1.780   0.000  0.00  0.00    -0.041 A 
ATOM      5  C6  <0> d           1.153   3.176   0.008  0.00  0.00     0.051 A 
ATOM      6  C7  <0> d          -0.070   3.850   0.023  0.00  0.00    -0.057 A 
ATOM      7  C8  <0> d           2.380   3.914   0.001  0.00  0.00     0.100 C 
ATOM      8  N1  <0> d           3.354   4.499  -0.005  0.00  0.00    -0.191 NA
ATOM      9  H4  <0> d          -2.147   1.193   0.019  0.00  0.00     0.084 H 
ATOM     10  H5  <0> d           0.002  -0.004   0.002  0.00  0.00     0.084 H 
ATOM     11  H6  <0> d          -0.094   4.930   0.029  0.00  0.00     0.086 H 
ENDROOT
BRANCH   4  12
ATOM     12  C9  <0> d           2.489   1.045  -0.017  0.00  0.00    -0.050 C 
ATOM     13  H7  <0> d           2.796   0.873  -1.048  0.00  0.00     0.033 H 
ATOM     14  H8  <0> d           3.245   1.641   0.493  0.00  0.00     0.033 H 
ATOM     15  H9  <0> d           2.377   0.088   0.493  0.00  0.00     0.033 H 
ENDBRANCH   4  12
BRANCH   1  16
ATOM     16  C1  <0> d          -2.570   3.858   0.047  0.00  0.00    -0.051 C 
ATOM     17  H1  <0> d          -2.898   4.038  -0.977  0.00  0.00     0.033 H 
ATOM     18  H2  <0> d          -3.312   3.250   0.565  0.00  0.00     0.033 H 
ATOM     19  H3  <0> d          -2.455   4.811   0.564  0.00  0.00     0.033 H 
ENDBRANCH   1  16
TORSDOF 2
