REMARK  2 active torsions:
REMARK  status: ('A' for Active; 'I' for Inactive)
REMARK    1  A    between atoms: C1_1  and  C2_2 
REMARK    2  A    between atoms: N1_4  and  C5_7 
ROOT
ATOM      1  C2  <0> d           0.036  -2.088   0.641  0.00  0.00     0.047 A 
ATOM      2  C3  <0> d           0.024  -0.822   1.099  0.00  0.00     0.003 A 
ATOM      3  N1  <0> d           0.002  -0.004   0.002  0.00  0.00    -0.354 N 
ATOM      4  C4  <0> d          -0.003  -0.799  -1.089  0.00  0.00     0.066 A 
ATOM      5  N2  <0> d           0.023  -2.045  -0.700  0.00  0.00    -0.247 NA
ATOM      6  H4  <0> d           0.029  -0.512   2.134  0.00  0.00     0.114 H 
ATOM      7  H5  <0> d          -0.024  -0.461  -2.115  0.00  0.00     0.143 H 
ENDROOT
BRANCH   1   8
ATOM      8  C1  <0> d           0.061  -3.336   1.486  0.00  0.00    -0.034 C 
ATOM      9  H1  <0> d          -0.960  -3.651   1.700  0.00  0.00     0.035 H 
ATOM     10  H2  <0> d           0.581  -4.129   0.948  0.00  0.00     0.035 H 
ATOM     11  H3  <0> d           0.582  -3.130   2.422  0.00  0.00     0.035 H 
ENDBRANCH   1   8
BRANCH   3  12
ATOM     12  C5  <0> d          -0.018   1.461   0.010  0.00  0.00    -0.014 C 
ATOM     13  H6  <0> d           1.005   1.838   0.002  0.00  0.00     0.057 H 
ATOM     14  H7  <0> d          -0.545   1.822  -0.873  0.00  0.00     0.057 H 
ATOM     15  H8  <0> d          -0.528   1.812   0.907  0.00  0.00     0.057 H 
ENDBRANCH   3  12
TORSDOF 2
