REMARK  6 active torsions:
REMARK  status: ('A' for Active; 'I' for Inactive)
REMARK    1  A    between atoms: C1_1  and  C2_2 
REMARK    2  A    between atoms: C3_4  and  C7_11 
REMARK    3  A    between atoms: C6_8  and  O1_10 
REMARK    4  A    between atoms: C7_11  and  C8_12 
REMARK    5  A    between atoms: C7_11  and  C9_13 
REMARK    6  A    between atoms: C7_11  and  C10_14 
ROOT
ATOM      1  C2  <0> d          -2.231   1.867   0.765  0.00  0.00    -0.029 C 
ATOM      2  H1  <0> d          -2.925   1.245   1.329  0.00  0.00     0.043 H 
ATOM      3  C3  <0> d          -0.786   1.609   1.236  0.00  0.00    -0.042 C 
ATOM      4  H2  <0> d          -0.337   2.535   1.593  0.00  0.00     0.041 H 
ATOM      5  C4  <0> d          -0.013   1.086   0.008  0.00  0.00    -0.058 C 
ATOM      6  C5  <0> d          -0.812   1.624  -1.205  0.00  0.00    -0.040 C 
ATOM      7  C6  <0> d          -2.281   1.493  -0.731  0.00  0.00     0.039 C 
ATOM      8  H3  <0> d          -2.632   0.469  -0.856  0.00  0.00     0.083 H 
ATOM      9  H7  <0> d           0.002  -0.004   0.002  0.00  0.00     0.033 H 
ATOM     10  H8  <0> d           1.003   1.480   0.000  0.00  0.00     0.033 H 
ATOM     11  H9  <0> d          -0.561   2.666  -1.401  0.00  0.00     0.036 H 
ATOM     12  H10 <0> d          -0.635   1.010  -2.087  0.00  0.00     0.036 H 
ENDROOT
BRANCH   3  13
ATOM     13  C7  <0> d          -0.775   0.558   2.349  0.00  0.00    -0.047 C 
BRANCH  13  14
ATOM     14  C8  <0> d           0.668   0.285   2.779  0.00  0.00    -0.069 C 
ATOM     15  H12 <0> d           1.118   1.208   3.146  0.00  0.00     0.028 H 
ATOM     16  H13 <0> d           0.676  -0.463   3.571  0.00  0.00     0.028 H 
ATOM     17  H14 <0> d           1.238  -0.083   1.925  0.00  0.00     0.028 H 
ENDBRANCH  13  14
BRANCH  13  18
ATOM     18  C9  <0> d          -1.575   1.074   3.546  0.00  0.00    -0.069 C 
ATOM     19  H15 <0> d          -2.603   1.268   3.240  0.00  0.00     0.028 H 
ATOM     20  H16 <0> d          -1.567   0.326   4.338  0.00  0.00     0.028 H 
ATOM     21  H17 <0> d          -1.125   1.997   3.913  0.00  0.00     0.028 H 
ENDBRANCH  13  18
BRANCH  13  22
ATOM     22  C10 <0> d          -1.406  -0.737   1.833  0.00  0.00    -0.069 C 
ATOM     23  H18 <0> d          -0.837  -1.105   0.980  0.00  0.00     0.028 H 
ATOM     24  H19 <0> d          -1.399  -1.485   2.626  0.00  0.00     0.028 H 
ATOM     25  H20 <0> d          -2.434  -0.543   1.527  0.00  0.00     0.028 H 
ENDBRANCH  13  22
ENDBRANCH   3  13
BRANCH   1  26
ATOM     26  C1  <0> d          -2.584   3.345   0.947  0.00  0.00    -0.070 C 
ATOM     27  H4  <0> d          -3.598   3.523   0.589  0.00  0.00     0.028 H 
ATOM     28  H5  <0> d          -2.521   3.606   2.004  0.00  0.00     0.028 H 
ATOM     29  H6  <0> d          -1.885   3.958   0.379  0.00  0.00     0.028 H 
ENDBRANCH   1  26
BRANCH   7  30
ATOM     30  O1  <0> d          -3.120   2.402  -1.446  0.00  0.00    -0.395 OA
ATOM     31  H11 <0> d          -3.142   2.249  -2.401  0.00  0.00     0.210 HD
ENDBRANCH   7  30
TORSDOF 6
