REMARK  5 active torsions:
REMARK  status: ('A' for Active; 'I' for Inactive)
REMARK    1  A    between atoms: C1_1  and  C2_2 
REMARK    2  A    between atoms: C3_4  and  C5_7 
REMARK    3  A    between atoms: C5_7  and  C6_8 
REMARK    4  A    between atoms: C5_7  and  C7_9 
REMARK    5  A    between atoms: C5_7  and  C8_10 
ROOT
ATOM      1  C5  <0> d          -0.019   1.526   0.010  0.00  0.00    -0.006 C 
ENDROOT
BRANCH   1   2
ATOM      2  C3  <0> d          -0.724   2.012   1.250  0.00  0.00     0.049 A 
ATOM      3  N1  <0> d          -1.944   2.501   1.184  0.00  0.00    -0.250 NA
ATOM      4  C2  <0> d          -2.573   2.923   2.257  0.00  0.00     0.071 A 
ATOM      5  S1  <0> d          -1.395   2.647   3.503  0.00  0.00    -0.085 SA
ATOM      6  C4  <0> d          -0.115   1.961   2.462  0.00  0.00    -0.019 A 
ATOM      7  H4  <0> d           0.871   1.604   2.724  0.00  0.00     0.098 H 
BRANCH   4   8
ATOM      8  C1  <0> d          -3.958   3.503   2.376  0.00  0.00    -0.029 C 
ATOM      9  H1  <0> d          -4.160   3.753   3.417  0.00  0.00     0.036 H 
ATOM     10  H2  <0> d          -4.028   4.405   1.766  0.00  0.00     0.036 H 
ATOM     11  H3  <0> d          -4.689   2.773   2.029  0.00  0.00     0.036 H 
ENDBRANCH   4   8
ENDBRANCH   1   2
BRANCH   1  12
ATOM     12  C6  <0> d           0.002  -0.004   0.002  0.00  0.00    -0.064 C 
ATOM     13  H5  <0> d           0.529  -0.365   0.885  0.00  0.00     0.028 H 
ATOM     14  H6  <0> d          -1.020  -0.381   0.010  0.00  0.00     0.028 H 
ATOM     15  H7  <0> d           0.512  -0.356  -0.895  0.00  0.00     0.028 H 
ENDBRANCH   1  12
BRANCH   1  16
ATOM     16  C7  <0> d           1.417   2.055  -0.000  0.00  0.00    -0.064 C 
ATOM     17  H8  <0> d           1.927   1.704  -0.897  0.00  0.00     0.028 H 
ATOM     18  H9  <0> d           1.402   3.145   0.006  0.00  0.00     0.028 H 
ATOM     19  H10 <0> d           1.944   1.694   0.883  0.00  0.00     0.028 H 
ENDBRANCH   1  16
BRANCH   1  20
ATOM     20  C8  <0> d          -0.759   2.033  -1.229  0.00  0.00    -0.064 C 
ATOM     21  H11 <0> d          -1.781   1.655  -1.221  0.00  0.00     0.028 H 
ATOM     22  H12 <0> d          -0.773   3.123  -1.223  0.00  0.00     0.028 H 
ATOM     23  H13 <0> d          -0.248   1.681  -2.126  0.00  0.00     0.028 H 
ENDBRANCH   1  20
TORSDOF 5
