REMARK  1 active torsions:
REMARK  status: ('A' for Active; 'I' for Inactive)
REMARK    1  A    between atoms: C3_3  and  O1_13 
ROOT
ATOM      1  C1  <0> d          -2.742   3.480   1.513  0.00  0.00    -0.059 C 
ATOM      2  C2  <0> d          -3.371   2.026   1.577  0.00  0.00    -0.036 C 
ATOM      3  C3  <0> d          -2.344   1.476   0.627  0.00  0.00     0.062 C 
ATOM      4  C4  <0> d          -1.954   1.096  -0.738  0.00  0.00    -0.033 C 
ATOM      5  C5  <0> d          -0.605   1.943  -0.851  0.00  0.00    -0.051 C 
ATOM      6  H1  <0> d          -0.040   1.866  -1.788  0.00  0.00     0.040 H 
ATOM      7  C6  <0> d          -0.823   3.394  -0.277  0.00  0.00    -0.058 C 
ATOM      8  C7  <0> d          -1.214   3.313   1.228  0.00  0.00    -0.048 C 
ATOM      9  H2  <0> d          -0.571   3.937   1.887  0.00  0.00     0.040 H 
ATOM     10  C8  <0> d          -1.040   1.752   1.458  0.00  0.00    -0.020 C 
ATOM     11  H3  <0> d          -0.963   1.367   2.492  0.00  0.00     0.045 H 
ATOM     12  C9  <0> d           0.091   1.361   0.455  0.00  0.00    -0.055 C 
ATOM     13  H4  <0> d          -3.274   4.207   0.941  0.00  0.00     0.033 H 
ATOM     14  H5  <0> d          -2.825   3.874   2.565  0.00  0.00     0.033 H 
ATOM     15  H6  <0> d          -4.366   1.993   1.157  0.00  0.00     0.037 H 
ATOM     16  H7  <0> d          -3.284   1.586   2.562  0.00  0.00     0.037 H 
ATOM     17  H8  <0> d          -2.703   1.411  -1.472  0.00  0.00     0.038 H 
ATOM     18  H9  <0> d          -1.774   0.018  -0.819  0.00  0.00     0.038 H 
ATOM     19  H10 <0> d           0.149   3.921  -0.345  0.00  0.00     0.034 H 
ATOM     20  H11 <0> d          -1.515   3.967  -0.874  0.00  0.00     0.034 H 
ATOM     21  H12 <0> d           0.226   0.283   0.387  0.00  0.00     0.034 H 
ATOM     22  H13 <0> d           1.027   1.874   0.669  0.00  0.00     0.034 H 
ENDROOT
BRANCH   3  23
ATOM     23  O1  <0> d          -2.772   2.667  -0.011  0.00  0.00    -0.389 OA
ATOM     24  H14 <0> d          -3.533   2.547  -0.596  0.00  0.00     0.210 HD
ENDBRANCH   3  23
TORSDOF 1
