REMARK  2 active torsions:
REMARK  status: ('A' for Active; 'I' for Inactive)
REMARK    1  A    between atoms: C3_3  and  O1_10 
REMARK    2  A    between atoms: C6_6  and  C7_7 
ROOT
ATOM      1  C7  <0> d           1.226  -2.187  -0.021  0.00  0.00     0.038 C 
ATOM      2  C8  <0> d           1.218  -2.671  -1.411  0.00  0.00     0.063 C 
ATOM      3  N1  <0> d           1.212  -3.044  -2.484  0.00  0.00    -0.197 NA
ATOM      4  H5  <0> d           2.125  -2.543   0.482  0.00  0.00     0.062 H 
ATOM      5  H6  <0> d           0.345  -2.563   0.500  0.00  0.00     0.062 H 
ENDROOT
BRANCH   1   6
ATOM      6  C6  <0> d           1.208  -0.680  -0.013  0.00  0.00    -0.045 A 
ATOM      7  C1  <0> d           0.002  -0.004   0.002  0.00  0.00    -0.073 A 
ATOM      8  C2  <0> d          -0.017   1.377   0.010  0.00  0.00    -0.051 A 
ATOM      9  H1  <0> d          -0.926  -0.556   0.008  0.00  0.00     0.084 H 
ATOM     10  C3  <0> d           1.176   2.086   0.002  0.00  0.00     0.065 A 
ATOM     11  H2  <0> d          -0.959   1.905   0.017  0.00  0.00     0.087 H 
ATOM     12  C4  <0> d           2.385   1.405  -0.013  0.00  0.00    -0.051 A 
ATOM     13  C5  <0> d           2.398   0.024  -0.021  0.00  0.00    -0.073 A 
ATOM     14  H3  <0> d           3.314   1.955  -0.018  0.00  0.00     0.087 H 
ATOM     15  H4  <0> d           3.339  -0.506  -0.033  0.00  0.00     0.084 H 
BRANCH  10  16
ATOM     16  O1  <0> d           1.160   3.445   0.009  0.00  0.00    -0.361 OA
ATOM     17  H7  <0> d           1.164   3.834   0.894  0.00  0.00     0.217 HD
ENDBRANCH  10  16
ENDBRANCH   1   6
TORSDOF 2
