REMARK  2 active torsions:
REMARK  status: ('A' for Active; 'I' for Inactive)
REMARK    1  A    between atoms: C3_3  and  N2_12 
REMARK    2  A    between atoms: C9_9  and  N1_11 
ROOT
ATOM      1  C1  <0> d           2.422   1.406  -0.013  0.00  0.00    -0.070 A 
ATOM      2  C2  <0> d           2.415   0.047  -0.021  0.00  0.00    -0.057 A 
ATOM      3  C3  <0> d           1.210  -0.666  -0.013  0.00  0.00     0.026 A 
ATOM      4  C4  <0> d           0.002  -0.004   0.002  0.00  0.00    -0.047 A 
ATOM      5  C5  <0> d          -0.017   1.401   0.010  0.00  0.00    -0.022 A 
ATOM      6  C6  <0> d           1.208   2.115   0.002  0.00  0.00    -0.026 A 
ATOM      7  C7  <0> d           1.190   3.520   0.009  0.00  0.00    -0.070 A 
ATOM      8  C8  <0> d           0.004   4.184   0.024  0.00  0.00    -0.057 A 
ATOM      9  C9  <0> d          -1.210   3.487   0.032  0.00  0.00     0.026 A 
ATOM     10  C10 <0> d          -1.230   2.109   0.019  0.00  0.00    -0.047 A 
ATOM     11  H1  <0> d           3.360   1.942  -0.019  0.00  0.00     0.084 H 
ATOM     12  H2  <0> d           3.352  -0.490  -0.033  0.00  0.00     0.086 H 
ATOM     13  H3  <0> d          -0.923  -0.561   0.007  0.00  0.00     0.088 H 
ATOM     14  H4  <0> d           2.118   4.073   0.003  0.00  0.00     0.084 H 
ATOM     15  H5  <0> d          -0.002   5.264   0.030  0.00  0.00     0.086 H 
ATOM     16  H6  <0> d          -2.170   1.579   0.021  0.00  0.00     0.088 H 
ENDROOT
BRANCH   3  17
ATOM     17  N2  <0> d           1.233  -2.062  -0.021  0.00  0.00    -0.399 N 
ATOM     18  H9  <0> d           0.401  -2.561  -0.016  0.00  0.00     0.156 HD
ATOM     19  H10 <0> d           2.081  -2.533  -0.032  0.00  0.00     0.156 HD
ENDBRANCH   3  17
BRANCH   9  20
ATOM     20  N1  <0> d          -2.413   4.195   0.048  0.00  0.00    -0.399 N 
ATOM     21  H7  <0> d          -2.405   5.165   0.053  0.00  0.00     0.156 HD
ATOM     22  H8  <0> d          -3.257   3.717   0.053  0.00  0.00     0.156 HD
ENDBRANCH   9  20
TORSDOF 2
