REMARK  3 active torsions:
REMARK  status: ('A' for Active; 'I' for Inactive)
REMARK    1  A    between atoms: C1_1  and  C2_2 
REMARK    2  A    between atoms: C3_3  and  C6_8 
REMARK    3  A    between atoms: C6_8  and  C7_9 
ROOT
ATOM      1  C2  <0> d           0.002  -0.004   0.002  0.00  0.00     0.061 A 
ATOM      2  C3  <0> d           0.006  -0.689  -1.200  0.00  0.00     0.129 A 
ATOM      3  N1  <0> d           0.024  -2.010  -1.207  0.00  0.00    -0.256 NA
ATOM      4  C4  <0> d           0.039  -2.677  -0.067  0.00  0.00     0.020 A 
ATOM      5  C5  <0> d           0.035  -1.992   1.135  0.00  0.00     0.019 A 
ATOM      6  N2  <0> d           0.022  -0.671   1.143  0.00  0.00    -0.262 NA
ATOM      7  H4  <0> d           0.054  -3.757  -0.072  0.00  0.00     0.117 H 
ATOM      8  H5  <0> d           0.047  -2.537   2.068  0.00  0.00     0.117 H 
ENDROOT
BRANCH   2   9
ATOM      9  C6  <0> d          -0.012   0.071  -2.501  0.00  0.00     0.285 C 
ATOM     10  F1  <0> d          -1.166   0.859  -2.565  0.00  0.00    -0.200 F 
ATOM     11  F2  <0> d           1.119   0.892  -2.577  0.00  0.00    -0.200 F 
BRANCH   9  12
ATOM     12  C7  <0> d          -0.003  -0.917  -3.670  0.00  0.00    -0.011 C 
ATOM     13  H6  <0> d          -0.884  -1.556  -3.611  0.00  0.00     0.036 H 
ATOM     14  H7  <0> d          -0.016  -0.367  -4.611  0.00  0.00     0.036 H 
ATOM     15  H8  <0> d           0.896  -1.531  -3.620  0.00  0.00     0.036 H 
ENDBRANCH   9  12
ENDBRANCH   2   9
BRANCH   1  16
ATOM     16  C1  <0> d          -0.018   1.503   0.010  0.00  0.00    -0.033 C 
ATOM     17  H1  <0> d           1.004   1.880   0.003  0.00  0.00     0.035 H 
ATOM     18  H2  <0> d          -0.545   1.864  -0.873  0.00  0.00     0.035 H 
ATOM     19  H3  <0> d          -0.529   1.854   0.907  0.00  0.00     0.035 H 
ENDBRANCH   1  16
TORSDOF 3
