REMARK  0 active torsions:
REMARK  status: ('A' for Active; 'I' for Inactive)
ROOT
ATOM      1  C1  <0> d          -0.017   1.372   0.010  0.00  0.00    -0.081 A 
ATOM      2  C2  <0> d           1.169   2.092   0.002  0.00  0.00    -0.081 A 
ATOM      3  C3  <0> d           2.384   1.439  -0.013  0.00  0.00    -0.052 A 
ATOM      4  C4  <0> d           2.424   0.052  -0.021  0.00  0.00     0.106 A 
ATOM      5  C5  <0> d           1.225  -0.683  -0.013  0.00  0.00     0.105 A 
ATOM      6  C6  <0> d           0.002  -0.004   0.002  0.00  0.00    -0.052 A 
ATOM      7  N1  <0> d           1.558  -1.997  -0.024  0.00  0.00    -0.059 NA
ATOM      8  C7  <0> d           2.868  -2.124  -0.038  0.00  0.00     0.751 A 
ATOM      9  N2  <0> d           3.443  -0.878  -0.036  0.00  0.00    -0.057 N 
ATOM     10  N3  <0> d           4.829  -1.083  -0.052  0.00  0.00    -0.145 NA
ATOM     11  C8  <0> d           5.028  -2.431  -0.062  0.00  0.00     0.126 A 
ATOM     12  N4  <0> d           3.876  -3.038  -0.053  0.00  0.00    -0.052 NA
ATOM     13  H1  <0> d          -0.961   1.895   0.026  0.00  0.00     0.083 H 
ATOM     14  H2  <0> d           1.141   3.172   0.008  0.00  0.00     0.083 H 
ATOM     15  H3  <0> d           3.303   2.006  -0.019  0.00  0.00     0.087 H 
ATOM     16  H4  <0> d          -0.925  -0.558   0.008  0.00  0.00     0.087 H 
ATOM     17  H5  <0> d           5.991  -2.920  -0.075  0.00  0.00     0.150 H 
ENDROOT
TORSDOF 0
