REMARK  0 active torsions:
REMARK  status: ('A' for Active; 'I' for Inactive)
ROOT
ATOM      1  C1  <0> d          -0.016   1.361   0.009  0.00  0.00    -0.029 A 
ATOM      2  C2  <0> d           1.189   2.073   0.002  0.00  0.00     0.014 A 
ATOM      3  C3  <0> d           1.525   3.494   0.006  0.00  0.00     0.034 A 
ATOM      4  N1  <0> d           2.824   3.595  -0.006  0.00  0.00    -0.186 NA
ATOM      5  N2  <0> d           3.405   2.323  -0.018  0.00  0.00    -0.278 N 
ATOM      6  H1  <0> d           4.357   2.140  -0.028  0.00  0.00     0.189 HD
ATOM      7  C4  <0> d           2.412   1.377  -0.014  0.00  0.00     0.065 A 
ATOM      8  C5  <0> d           2.409  -0.016  -0.021  0.00  0.00    -0.015 A 
ATOM      9  C6  <0> d           1.212  -0.696  -0.014  0.00  0.00     0.157 A 
ATOM     10  C7  <0> d           0.002  -0.004   0.002  0.00  0.00     0.155 A 
ATOM     11  F1  <0> d          -1.162  -0.690   0.010  0.00  0.00    -0.203 F 
ATOM     12  F2  <0> d           1.210  -2.047  -0.022  0.00  0.00    -0.203 F 
ATOM     13  H2  <0> d          -0.958   1.890   0.026  0.00  0.00     0.089 H 
ATOM     14  H3  <0> d           0.823   4.314   0.017  0.00  0.00     0.118 H 
ATOM     15  H4  <0> d           3.342  -0.560  -0.034  0.00  0.00     0.092 H 
ENDROOT
TORSDOF 0
