REMARK  2 active torsions:
REMARK  status: ('A' for Active; 'I' for Inactive)
REMARK    1  A    between atoms: C1_1  and  N1_2 
REMARK    2  A    between atoms: C5_6  and  C7_9 
ROOT
ATOM      1  N1  <0> d           2.345   1.456  -0.013  0.00  0.00    -0.328 N 
ATOM      2  C2  <0> d           1.148   2.088   0.002  0.00  0.00    -0.018 A 
ATOM      3  C3  <0> d          -0.017   1.390   0.010  0.00  0.00    -0.067 A 
ATOM      4  C4  <0> d           0.002  -0.004   0.002  0.00  0.00    -0.060 A 
ATOM      5  C5  <0> d           1.231  -0.662  -0.013  0.00  0.00     0.108 A 
ATOM      6  C6  <0> d           2.421   0.111  -0.021  0.00  0.00     0.264 A 
ATOM      7  O1  <0> d           3.508  -0.440  -0.034  0.00  0.00    -0.267 OA
ATOM      8  H4  <0> d           1.119   3.167   0.008  0.00  0.00     0.111 H 
ATOM      9  H5  <0> d          -0.960   1.916   0.017  0.00  0.00     0.085 H 
ATOM     10  H6  <0> d          -0.921  -0.565   0.007  0.00  0.00     0.085 H 
ENDROOT
BRANCH   1  11
ATOM     11  C1  <0> d           3.578   2.247  -0.020  0.00  0.00    -0.012 C 
ATOM     12  H1  <0> d           3.875   2.449  -1.049  0.00  0.00     0.057 H 
ATOM     13  H2  <0> d           3.408   3.189   0.501  0.00  0.00     0.057 H 
ATOM     14  H3  <0> d           4.370   1.692   0.484  0.00  0.00     0.057 H 
ENDBRANCH   1  11
BRANCH   5  15
ATOM     15  C7  <0> d           1.293  -2.130  -0.021  0.00  0.00     0.215 C 
ATOM     16  O2  <0> d           0.267  -2.782  -0.015  0.00  0.00    -0.644 OA
ATOM     17  O3  <0> d           2.488  -2.754  -0.036  0.00  0.00    -0.644 OA
ENDBRANCH   5  15
TORSDOF 2
