REMARK  4 active torsions:
REMARK  status: ('A' for Active; 'I' for Inactive)
REMARK    1  A    between atoms: C1_1  and  C2_2 
REMARK    2  A    between atoms: C2_2  and  C3_3 
REMARK    3  A    between atoms: C2_2  and  C4_4 
REMARK    4  A    between atoms: C2_2  and  C5_5 
ROOT
ATOM      1  C2  <0> d           0.002  -0.004   0.002  0.00  0.00     0.018 C 
ENDROOT
BRANCH   1   2
ATOM      2  C1  <0> d          -0.019   1.526   0.010  0.00  0.00    -0.062 C 
ATOM      3  H1  <0> d           1.004   1.903   0.003  0.00  0.00     0.029 H 
ATOM      4  H2  <0> d          -0.546   1.887  -0.873  0.00  0.00     0.029 H 
ATOM      5  H3  <0> d          -0.529   1.877   0.907  0.00  0.00     0.029 H 
ENDBRANCH   1   2
BRANCH   1   6
ATOM      6  C3  <0> d           0.742  -0.511   1.242  0.00  0.00    -0.062 C 
ATOM      7  H4  <0> d           0.232  -0.159   2.138  0.00  0.00     0.029 H 
ATOM      8  H5  <0> d           0.757  -1.601   1.236  0.00  0.00     0.029 H 
ATOM      9  H6  <0> d           1.765  -0.134   1.234  0.00  0.00     0.029 H 
ENDBRANCH   1   6
BRANCH   1  10
ATOM     10  C4  <0> d          -1.433  -0.534   0.013  0.00  0.00    -0.062 C 
ATOM     11  H7  <0> d          -1.960  -0.173  -0.870  0.00  0.00     0.029 H 
ATOM     12  H8  <0> d          -1.419  -1.623   0.007  0.00  0.00     0.029 H 
ATOM     13  H9  <0> d          -1.944  -0.182   0.910  0.00  0.00     0.029 H 
ENDBRANCH   1  10
BRANCH   1  14
ATOM     14  C5  <0> d           0.707  -0.490  -1.238  0.00  0.00     0.176 A 
ATOM     15  O1  <0> d           0.181  -1.268  -2.199  0.00  0.00    -0.285 OA
ATOM     16  C6  <0> d           1.151  -1.453  -3.110  0.00  0.00     0.126 A 
ATOM     17  N2  <0> d           2.207  -0.814  -2.691  0.00  0.00    -0.136 NA
ATOM     18  H10 <0> d           1.072  -2.030  -4.019  0.00  0.00     0.158 H 
ATOM     19  N1  <0> d           1.941  -0.238  -1.572  0.00  0.00    -0.127 NA
ENDBRANCH   1  14
TORSDOF 4
