REMARK  0 active torsions:
REMARK  status: ('A' for Active; 'I' for Inactive)
ROOT
ATOM      1  C1  <0> d          -0.725   4.048  -0.860  0.00  0.00    -0.065 C 
ATOM      2  C2  <0> d          -0.165   2.943  -1.643  0.00  0.00    -0.065 C 
ATOM      3  C3  <0> d          -0.725   1.577  -1.223  0.00  0.00    -0.059 C 
ATOM      4  C4  <0> d          -0.013   1.086   0.008  0.00  0.00    -0.010 C 
ATOM      5  C5  <0> d          -0.711   1.570   1.275  0.00  0.00     0.127 C 
ATOM      6  O1  <0> d          -0.813   0.841   2.232  0.00  0.00    -0.298 OA
ATOM      7  C6  <0> d          -1.279   2.985   1.322  0.00  0.00    -0.010 C 
ATOM      8  C7  <0> d          -0.365   3.959   0.630  0.00  0.00    -0.059 C 
ATOM      9  H1  <0> d          -1.818   4.022  -0.975  0.00  0.00     0.033 H 
ATOM     10  H2  <0> d          -0.334   4.988  -1.276  0.00  0.00     0.033 H 
ATOM     11  H3  <0> d          -0.400   3.092  -2.707  0.00  0.00     0.033 H 
ATOM     12  H4  <0> d           0.927   2.915  -1.509  0.00  0.00     0.033 H 
ATOM     13  H5  <0> d          -1.800   1.672  -1.007  0.00  0.00     0.033 H 
ATOM     14  H6  <0> d          -0.579   0.854  -2.039  0.00  0.00     0.033 H 
ATOM     15  H7  <0> d          -0.001  -0.014   0.011  0.00  0.00     0.044 H 
ATOM     16  H8  <0> d           1.020   1.464   0.009  0.00  0.00     0.044 H 
ATOM     17  H9  <0> d          -2.258   3.004   0.821  0.00  0.00     0.044 H 
ATOM     18  H10 <0> d          -1.398   3.297   2.370  0.00  0.00     0.044 H 
ATOM     19  H11 <0> d           0.676   3.618   0.736  0.00  0.00     0.033 H 
ATOM     20  H12 <0> d          -0.475   4.951   1.093  0.00  0.00     0.033 H 
ENDROOT
TORSDOF 0
