REMARK  0 active torsions:
REMARK  status: ('A' for Active; 'I' for Inactive)
ROOT
ATOM      1  C1  <0> d           1.307   1.739  -0.001  0.00  0.00     0.066 C 
ATOM      2  N1  <0> d           2.325   2.243  -0.008  0.00  0.00    -0.197 NA
ATOM      3  C2  <0> d          -0.013   1.086   0.008  0.00  0.00     0.064 A 
ATOM      4  C3  <0> d          -1.136   1.773   0.788  0.00  0.00     0.064 A 
ATOM      5  C4  <0> d          -1.150   1.781  -0.743  0.00  0.00     0.064 A 
ATOM      6  C5  <0> d          -2.140   0.927  -1.418  0.00  0.00     0.066 C 
ATOM      7  N2  <0> d          -2.905   0.268  -1.940  0.00  0.00    -0.197 NA
ATOM      8  C6  <0> d          -0.814   3.036   1.471  0.00  0.00     0.066 C 
ATOM      9  N3  <0> d          -0.566   4.011   1.998  0.00  0.00    -0.197 NA
ATOM     10  H1  <0> d           0.002  -0.004   0.002  0.00  0.00     0.067 H 
ATOM     11  H2  <0> d          -1.859   1.135   1.295  0.00  0.00     0.067 H 
ATOM     12  H3  <0> d          -0.922   2.722  -1.243  0.00  0.00     0.067 H 
ENDROOT
TORSDOF 0
