REMARK  2 active torsions:
REMARK  status: ('A' for Active; 'I' for Inactive)
REMARK    1  A    between atoms: C7_7  and  C9_10 
REMARK    2  A    between atoms: C9_10  and  O2_11 
ROOT
ATOM      1  C1  <0> d           0.696   0.614  -4.618  0.00  0.00    -0.082 A 
ATOM      2  C2  <0> d          -0.265   1.271  -5.373  0.00  0.00    -0.080 A 
ATOM      3  C3  <0> d          -1.290   1.960  -4.761  0.00  0.00    -0.049 A 
ATOM      4  C4  <0> d          -1.359   2.008  -3.374  0.00  0.00     0.085 A 
ATOM      5  C5  <0> d          -0.381   1.343  -2.615  0.00  0.00     0.008 A 
ATOM      6  C6  <0> d           0.644   0.645  -3.252  0.00  0.00    -0.070 A 
ATOM      7  C7  <0> d          -0.742   1.585  -1.213  0.00  0.00     0.001 A 
ATOM      8  C8  <0> d          -1.846   2.344  -1.237  0.00  0.00     0.028 A 
ATOM      9  O1  <0> d          -2.209   2.593  -2.507  0.00  0.00    -0.321 OA
ATOM     10  H1  <0> d           1.490   0.073  -5.112  0.00  0.00     0.083 H 
ATOM     11  H2  <0> d          -0.212   1.237  -6.451  0.00  0.00     0.083 H 
ATOM     12  H3  <0> d          -2.032   2.469  -5.358  0.00  0.00     0.087 H 
ATOM     13  H4  <0> d           1.395   0.133  -2.668  0.00  0.00     0.085 H 
ATOM     14  H5  <0> d          -2.368   2.703  -0.362  0.00  0.00     0.124 H 
ENDROOT
BRANCH   7  15
ATOM     15  C9  <0> d          -0.013   1.086   0.008  0.00  0.00     0.043 C 
ATOM     16  H6  <0> d           0.002  -0.004   0.002  0.00  0.00     0.081 H 
ATOM     17  H7  <0> d           1.010   1.463   0.000  0.00  0.00     0.081 H 
BRANCH  15  18
ATOM     18  O2  <0> d          -0.682   1.547   1.184  0.00  0.00    -0.396 OA
ATOM     19  H8  <0> d          -0.266   1.262   2.009  0.00  0.00     0.209 HD
ENDBRANCH  15  18
ENDBRANCH   7  15
TORSDOF 2
