REMARK  3 active torsions:
REMARK  status: ('A' for Active; 'I' for Inactive)
REMARK    1  A    between atoms: C1_1  and  C2_2 
REMARK    2  A    between atoms: C3_3  and  C8_9 
REMARK    3  A    between atoms: C8_9  and  O1_10 
ROOT
ATOM      1  C2  <0> d           2.275   3.861   0.007  0.00  0.00    -0.015 A 
ATOM      2  C3  <0> d           1.147   3.062   0.008  0.00  0.00    -0.026 A 
ATOM      3  C4  <0> d          -0.109   3.639   0.023  0.00  0.00    -0.074 A 
ATOM      4  C5  <0> d          -0.238   5.016   0.032  0.00  0.00    -0.080 A 
ATOM      5  C6  <0> d           0.888   5.816   0.026  0.00  0.00    -0.045 A 
ATOM      6  C7  <0> d           2.147   5.239   0.011  0.00  0.00     0.122 A 
ATOM      7  F1  <0> d           3.249   6.021   0.005  0.00  0.00    -0.206 F 
ATOM      8  H4  <0> d          -0.990   3.015   0.027  0.00  0.00     0.084 H 
ATOM      9  H5  <0> d          -1.220   5.466   0.043  0.00  0.00     0.083 H 
ATOM     10  H6  <0> d           0.787   6.892   0.033  0.00  0.00     0.088 H 
ENDROOT
BRANCH   2  11
ATOM     11  C8  <0> d           1.286   1.562  -0.002  0.00  0.00     0.041 C 
ATOM     12  H7  <0> d           1.840   1.243   0.881  0.00  0.00     0.081 H 
ATOM     13  H8  <0> d           1.823   1.252  -0.899  0.00  0.00     0.081 H 
BRANCH  11  14
ATOM     14  O1  <0> d          -0.011   0.963   0.007  0.00  0.00    -0.396 OA
ATOM     15  H9  <0> d           0.002  -0.004   0.002  0.00  0.00     0.209 HD
ENDBRANCH  11  14
ENDBRANCH   2  11
BRANCH   1  16
ATOM     16  C1  <0> d           3.644   3.231  -0.004  0.00  0.00    -0.048 C 
ATOM     17  H1  <0> d           3.969   3.086  -1.034  0.00  0.00     0.033 H 
ATOM     18  H2  <0> d           4.349   3.885   0.510  0.00  0.00     0.033 H 
ATOM     19  H3  <0> d           3.605   2.268   0.504  0.00  0.00     0.033 H 
ENDBRANCH   1  16
TORSDOF 3
