REMARK  3 active torsions:
REMARK  status: ('A' for Active; 'I' for Inactive)
REMARK    1  A    between atoms: C2_2  and  C3_3 
REMARK    2  A    between atoms: C2_2  and  C4_5 
REMARK    3  A    between atoms: C3_3  and  O1_4 
ROOT
ATOM      1  C4  <0> d          -0.134   3.797   0.024  0.00  0.00     0.064 A 
ATOM      2  C5  <0> d           1.115   3.175   0.009  0.00  0.00    -0.055 A 
ATOM      3  C6  <0> d           1.176   1.792   0.001  0.00  0.00    -0.079 A 
ATOM      4  C7  <0> d          -0.013   1.076   0.008  0.00  0.00    -0.066 A 
ATOM      5  C8  <0> d          -1.216   1.757   0.017  0.00  0.00     0.003 A 
ATOM      6  N1  <0> d          -1.248   3.074   0.030  0.00  0.00    -0.261 NA
ATOM      7  H6  <0> d           2.020   3.763   0.003  0.00  0.00     0.087 H 
ATOM      8  H7  <0> d           2.128   1.282  -0.011  0.00  0.00     0.083 H 
ATOM      9  H8  <0> d           0.002  -0.004   0.002  0.00  0.00     0.085 H 
ATOM     10  H9  <0> d          -2.142   1.202   0.019  0.00  0.00     0.114 H 
ENDROOT
BRANCH   1  11
ATOM     11  C2  <0> d          -0.217   5.272   0.033  0.00  0.00    -0.015 C 
ATOM     12  C1  <0> d           0.892   5.999   0.026  0.00  0.00    -0.111 C 
ATOM     13  H1  <0> d           0.831   7.077   0.032  0.00  0.00     0.067 H 
ATOM     14  H2  <0> d           1.856   5.513   0.014  0.00  0.00     0.067 H 
BRANCH  11  15
ATOM     15  C3  <0> d          -1.563   5.951   0.049  0.00  0.00     0.042 C 
ATOM     16  H3  <0> d          -2.127   5.660  -0.837  0.00  0.00     0.081 H 
ATOM     17  H4  <0> d          -2.110   5.651   0.943  0.00  0.00     0.081 H 
BRANCH  15  18
ATOM     18  O1  <0> d          -1.382   7.368   0.055  0.00  0.00    -0.396 OA
ATOM     19  H5  <0> d          -2.208   7.870   0.066  0.00  0.00     0.209 HD
ENDBRANCH  15  18
ENDBRANCH  11  15
ENDBRANCH   1  11
TORSDOF 3
