REMARK  3 active torsions:
REMARK  status: ('A' for Active; 'I' for Inactive)
REMARK    1  A    between atoms: C1_1  and  C2_2 
REMARK    2  A    between atoms: C6_8  and  C8_10 
REMARK    3  A    between atoms: C6_8  and  C9_11 
ROOT
ATOM      1  C2  <0> d          -0.888   4.158   0.248  0.00  0.00    -0.068 C 
ATOM      2  C3  <0> d          -1.575   3.072   0.166  0.00  0.00    -0.018 C 
ATOM      3  N1  <0> d          -1.201   1.777   0.018  0.00  0.00    -0.337 N 
ATOM      4  C4  <0> d          -0.014   1.209   0.009  0.00  0.00     0.222 C 
ATOM      5  O1  <0> d           0.002  -0.004   0.002  0.00  0.00    -0.273 OA
ATOM      6  C5  <0> d           1.308   1.887  -0.000  0.00  0.00     0.016 C 
ATOM      7  C6  <0> d           1.336   3.154   0.819  0.00  0.00    -0.036 C 
ATOM      8  C7  <0> d           0.589   4.294   0.175  0.00  0.00    -0.037 C 
ATOM      9  H4  <0> d          -2.643   3.220   0.221  0.00  0.00     0.111 H 
ATOM     10  H5  <0> d          -1.940   1.160  -0.098  0.00  0.00     0.168 HD
ATOM     11  H6  <0> d           2.057   1.200   0.393  0.00  0.00     0.048 H 
ATOM     12  H7  <0> d           1.569   2.132  -1.030  0.00  0.00     0.048 H 
ATOM     13  H8  <0> d           0.878   5.222   0.667  0.00  0.00     0.040 H 
ATOM     14  H9  <0> d           0.881   4.353  -0.874  0.00  0.00     0.040 H 
ENDROOT
BRANCH   7  15
ATOM     15  C8  <0> d           0.712   2.868   2.187  0.00  0.00    -0.069 C 
ATOM     16  H10 <0> d           1.284   2.088   2.691  0.00  0.00     0.028 H 
ATOM     17  H11 <0> d           0.726   3.776   2.789  0.00  0.00     0.028 H 
ATOM     18  H12 <0> d          -0.317   2.535   2.054  0.00  0.00     0.028 H 
ENDBRANCH   7  15
BRANCH   7  19
ATOM     19  C9  <0> d           2.792   3.576   1.022  0.00  0.00    -0.069 C 
ATOM     20  H13 <0> d           3.258   3.753   0.053  0.00  0.00     0.028 H 
ATOM     21  H14 <0> d           2.826   4.491   1.614  0.00  0.00     0.028 H 
ATOM     22  H15 <0> d           3.330   2.785   1.545  0.00  0.00     0.028 H 
ENDBRANCH   7  19
BRANCH   1  23
ATOM     23  C1  <0> d          -1.669   5.433   0.441  0.00  0.00    -0.053 C 
ATOM     24  H1  <0> d          -1.919   5.856  -0.532  0.00  0.00     0.033 H 
ATOM     25  H2  <0> d          -2.586   5.217   0.990  0.00  0.00     0.033 H 
ATOM     26  H3  <0> d          -1.067   6.146   1.004  0.00  0.00     0.033 H 
ENDBRANCH   1  23
TORSDOF 3
