REMARK  1 active torsions:
REMARK  status: ('A' for Active; 'I' for Inactive)
REMARK    1  A    between atoms: C1_1  and  C2_2 
ROOT
ATOM      1  C2  <0> d           0.002  -0.004   0.002  0.00  0.00     0.018 A 
ATOM      2  C3  <0> d           0.006  -0.690  -1.201  0.00  0.00     0.125 A 
ATOM      3  C4  <0> d           0.024  -2.074  -1.208  0.00  0.00    -0.042 A 
ATOM      4  C5  <0> d           0.039  -2.773  -0.016  0.00  0.00    -0.040 A 
ATOM      5  C6  <0> d           0.035  -2.089   1.187  0.00  0.00     0.155 A 
ATOM      6  C7  <0> d           0.023  -0.702   1.196  0.00  0.00     0.163 A 
ATOM      7  F1  <0> d           0.025  -0.034   2.370  0.00  0.00    -0.202 F 
ATOM      8  F2  <0> d           0.050  -2.772   2.353  0.00  0.00    -0.203 F 
ATOM      9  F3  <0> d          -0.009  -0.008  -2.367  0.00  0.00    -0.205 F 
ATOM     10  H4  <0> d           0.026  -2.608  -2.147  0.00  0.00     0.088 H 
ATOM     11  H5  <0> d           0.052  -3.853  -0.023  0.00  0.00     0.088 H 
ENDROOT
BRANCH   1  12
ATOM     12  C1  <0> d          -0.018   1.503   0.010  0.00  0.00    -0.045 C 
ATOM     13  H1  <0> d           1.004   1.880   0.003  0.00  0.00     0.033 H 
ATOM     14  H2  <0> d          -0.545   1.864  -0.873  0.00  0.00     0.033 H 
ATOM     15  H3  <0> d          -0.529   1.854   0.907  0.00  0.00     0.033 H 
ENDBRANCH   1  12
TORSDOF 1
