REMARK  3 active torsions:
REMARK  status: ('A' for Active; 'I' for Inactive)
REMARK    1  A    between atoms: C1_1  and  N1_2 
REMARK    2  A    between atoms: N1_2  and  C2_3 
REMARK    3  A    between atoms: N1_2  and  C3_4 
ROOT
ATOM      1  C3  <0> d           0.000  -0.693  -1.206  0.00  0.00     0.144 A 
ATOM      2  C4  <0> d           0.090   0.006  -2.408  0.00  0.00     0.046 A 
ATOM      3  N2  <0> d           0.088  -0.651  -3.552  0.00  0.00    -0.266 NA
ATOM      4  C5  <0> d           0.001  -1.970  -3.559  0.00  0.00     0.041 A 
ATOM      5  C6  <0> d          -0.088  -2.668  -2.368  0.00  0.00     0.145 A 
ATOM      6  N3  <0> d          -0.082  -2.017  -1.216  0.00  0.00    -0.216 NA
ATOM      7 Cl1  <0> d          -0.203  -4.400  -2.384  0.00  0.00    -0.061 Cl
ATOM      8  H7  <0> d           0.161   1.083  -2.403  0.00  0.00     0.120 H 
ATOM      9  H8  <0> d          -0.000  -2.505  -4.498  0.00  0.00     0.119 H 
ENDROOT
BRANCH   1  10
ATOM     10  N1  <0> d           0.002  -0.004   0.002  0.00  0.00    -0.373 N 
BRANCH  10  11
ATOM     11  C1  <0> d          -0.018   1.461   0.010  0.00  0.00    -0.018 C 
ATOM     12  H1  <0> d           1.005   1.838   0.002  0.00  0.00     0.056 H 
ATOM     13  H2  <0> d          -0.545   1.822  -0.873  0.00  0.00     0.056 H 
ATOM     14  H3  <0> d          -0.528   1.812   0.907  0.00  0.00     0.056 H 
ENDBRANCH  10  11
BRANCH  10  15
ATOM     15  C2  <0> d           0.024  -0.743   1.267  0.00  0.00    -0.018 C 
ATOM     16  H4  <0> d          -0.998  -0.941   1.590  0.00  0.00     0.056 H 
ATOM     17  H5  <0> d           0.550  -1.688   1.126  0.00  0.00     0.056 H 
ATOM     18  H6  <0> d           0.537  -0.151   2.025  0.00  0.00     0.056 H 
ENDBRANCH  10  15
ENDBRANCH   1  10
TORSDOF 3
