REMARK  1 active torsions:
REMARK  status: ('A' for Active; 'I' for Inactive)
REMARK    1  A    between atoms: C5_8  and  N4_10 
ROOT
ATOM      1  C1  <0> d           1.456  -2.035  -0.023  0.00  0.00    -0.018 A 
ATOM      2  C2  <0> d           2.836  -2.164  -0.037  0.00  0.00     0.026 A 
ATOM      3  N1  <0> d           3.377  -0.966  -0.035  0.00  0.00    -0.179 NA
ATOM      4  N2  <0> d           2.357  -0.009  -0.021  0.00  0.00    -0.225 N 
ATOM      5  C3  <0> d           1.160  -0.677  -0.013  0.00  0.00     0.151 A 
ATOM      6  N3  <0> d           0.002  -0.004   0.002  0.00  0.00    -0.239 NA
ATOM      7  C4  <0> d          -0.016   1.308   0.009  0.00  0.00     0.031 A 
ATOM      8  C5  <0> d           1.191   2.032   0.002  0.00  0.00     0.061 A 
ATOM      9  C6  <0> d           2.373   1.358  -0.013  0.00  0.00     0.033 A 
ATOM     10  H1  <0> d           0.740  -2.844  -0.020  0.00  0.00     0.091 H 
ATOM     11  H2  <0> d           3.378  -3.098  -0.047  0.00  0.00     0.117 H 
ATOM     12  H3  <0> d          -0.959   1.833   0.017  0.00  0.00     0.118 H 
ATOM     13  H4  <0> d           3.310   1.895  -0.019  0.00  0.00     0.118 H 
ENDROOT
BRANCH   8  14
ATOM     14  N4  <0> d           1.175   3.434   0.008  0.00  0.00    -0.397 N 
ATOM     15  H5  <0> d           0.330   3.909   0.018  0.00  0.00     0.156 HD
ATOM     16  H6  <0> d           2.010   3.928   0.003  0.00  0.00     0.156 HD
ENDBRANCH   8  14
TORSDOF 1
