REMARK  5 active torsions:
REMARK  status: ('A' for Active; 'I' for Inactive)
REMARK    1  A    between atoms: C1_1  and  C2_2 
REMARK    2  A    between atoms: C2_2  and  C3_3 
REMARK    3  A    between atoms: C3_3  and  O1_4 
REMARK    4  A    between atoms: O1_4  and  C4_5 
REMARK    5  A    between atoms: C9_10  and  O2_11 
ROOT
ATOM      1  C4  <0> d           0.002  -0.004   0.002  0.00  0.00     0.101 A 
ATOM      2  C5  <0> d           1.210  -0.682  -0.019  0.00  0.00    -0.048 A 
ATOM      3  C6  <0> d           1.227  -2.064  -0.021  0.00  0.00    -0.080 A 
ATOM      4  C7  <0> d           0.041  -2.773  -0.013  0.00  0.00    -0.080 A 
ATOM      5  C8  <0> d          -1.168  -2.103   0.002  0.00  0.00    -0.048 A 
ATOM      6  C9  <0> d          -1.192  -0.718   0.010  0.00  0.00     0.099 A 
ATOM      7  H8  <0> d           2.139  -0.131  -0.030  0.00  0.00     0.087 H 
ATOM      8  H9  <0> d           2.170  -2.591  -0.033  0.00  0.00     0.083 H 
ATOM      9  H10 <0> d           0.058  -3.853  -0.019  0.00  0.00     0.083 H 
ATOM     10  H11 <0> d          -2.094  -2.659   0.007  0.00  0.00     0.087 H 
ENDROOT
BRANCH   1  11
ATOM     11  O1  <0> d          -0.016   1.356   0.009  0.00  0.00    -0.348 OA
BRANCH  11  12
ATOM     12  C3  <0> d           1.248   2.022   0.001  0.00  0.00     0.026 C 
ATOM     13  H6  <0> d           1.817   1.732   0.884  0.00  0.00     0.075 H 
ATOM     14  H7  <0> d           1.800   1.741  -0.896  0.00  0.00     0.075 H 
BRANCH  12  15
ATOM     15  C2  <0> d           1.027   3.536   0.011  0.00  0.00    -0.048 C 
ATOM     16  H4  <0> d           0.458   3.826  -0.872  0.00  0.00     0.035 H 
ATOM     17  H5  <0> d           0.474   3.816   0.908  0.00  0.00     0.035 H 
BRANCH  15  18
ATOM     18  C1  <0> d           2.381   4.249   0.002  0.00  0.00    -0.075 C 
ATOM     19  H1  <0> d           2.950   3.959   0.885  0.00  0.00     0.027 H 
ATOM     20  H2  <0> d           2.933   3.968  -0.895  0.00  0.00     0.027 H 
ATOM     21  H3  <0> d           2.223   5.327   0.009  0.00  0.00     0.027 H 
ENDBRANCH  15  18
ENDBRANCH  12  15
ENDBRANCH  11  12
ENDBRANCH   1  11
BRANCH   6  22
ATOM     22  O2  <0> d          -2.381  -0.057   0.024  0.00  0.00    -0.358 OA
ATOM     23  H12 <0> d          -2.733   0.139  -0.855  0.00  0.00     0.217 HD
ENDBRANCH   6  22
TORSDOF 5
