REMARK  3 active torsions:
REMARK  status: ('A' for Active; 'I' for Inactive)
REMARK    1  A    between atoms: C1_1  and  C2_2 
REMARK    2  A    between atoms: C2_2  and  C3_3 
REMARK    3  A    between atoms: C5_7  and  C6_10 
ROOT
ATOM      1  C3  <0> d          -0.753   1.593  -1.232  0.00  0.00     0.131 C 
ATOM      2  H1  <0> d          -0.853   2.677  -1.180  0.00  0.00     0.129 H 
ATOM      3  O1  <0> d          -2.057   0.993  -1.294  0.00  0.00    -0.359 OA
ATOM      4  C4  <0> d          -2.302   0.785  -2.706  0.00  0.00     0.046 C 
ATOM      5  C5  <0> d          -0.889   0.411  -3.219  0.00  0.00     0.058 C 
ATOM      6  H2  <0> d          -0.686  -0.646  -3.051  0.00  0.00     0.086 H 
ATOM      7  O2  <0> d          -0.021   1.232  -2.410  0.00  0.00    -0.354 OA
ATOM      8  H8  <0> d          -2.660   1.700  -3.179  0.00  0.00     0.078 H 
ATOM      9  H9  <0> d          -3.004  -0.034  -2.865  0.00  0.00     0.078 H 
ENDROOT
BRANCH   1  10
ATOM     10  C2  <0> d          -0.013   1.086   0.008  0.00  0.00    -0.022 C 
ATOM     11  H6  <0> d           0.002  -0.004   0.002  0.00  0.00     0.039 H 
ATOM     12  H7  <0> d           1.010   1.463   0.000  0.00  0.00     0.039 H 
BRANCH  10  13
ATOM     13  C1  <0> d          -0.729   1.579   1.267  0.00  0.00    -0.072 C 
ATOM     14  H3  <0> d          -0.202   1.218   2.150  0.00  0.00     0.027 H 
ATOM     15  H4  <0> d          -0.744   2.669   1.273  0.00  0.00     0.027 H 
ATOM     16  H5  <0> d          -1.751   1.202   1.275  0.00  0.00     0.027 H 
ENDBRANCH  10  13
ENDBRANCH   1  10
BRANCH   5  17
ATOM     17  C6  <0> d          -0.741   0.764  -4.700  0.00  0.00    -0.050 C 
ATOM     18  H10 <0> d           0.285   0.575  -5.018  0.00  0.00     0.031 H 
ATOM     19  H11 <0> d          -1.423   0.152  -5.290  0.00  0.00     0.031 H 
ATOM     20  H12 <0> d          -0.978   1.818  -4.848  0.00  0.00     0.031 H 
ENDBRANCH   5  17
TORSDOF 3
