REMARK  1 active torsions:
REMARK  status: ('A' for Active; 'I' for Inactive)
REMARK    1  A    between atoms: C4_4  and  C6_6 
ROOT
ATOM      1  C1  <0> d          -3.451   6.012   0.648  0.00  0.00    -0.065 C 
ATOM      2  C2  <0> d          -2.120   6.788   0.494  0.00  0.00    -0.065 C 
ATOM      3  C3  <0> d          -1.053   5.825   1.054  0.00  0.00    -0.061 C 
ATOM      4  C4  <0> d          -1.638   4.406   0.938  0.00  0.00    -0.050 C 
ATOM      5  C5  <0> d          -3.040   4.557   0.312  0.00  0.00    -0.061 C 
ATOM      6  H2  <0> d          -3.823   6.082   1.671  0.00  0.00     0.033 H 
ATOM      7  H3  <0> d          -4.195   6.377  -0.060  0.00  0.00     0.033 H 
ATOM      8  H4  <0> d          -2.146   7.709   1.077  0.00  0.00     0.033 H 
ATOM      9  H5  <0> d          -1.924   7.005  -0.556  0.00  0.00     0.033 H 
ATOM     10  H6  <0> d          -0.849   6.060   2.099  0.00  0.00     0.033 H 
ATOM     11  H7  <0> d          -0.138   5.900   0.468  0.00  0.00     0.033 H 
ATOM     12  H8  <0> d          -1.717   3.953   1.927  0.00  0.00     0.040 H 
ATOM     13  H9  <0> d          -2.993   4.414  -0.767  0.00  0.00     0.033 H 
ATOM     14  H10 <0> d          -3.737   3.850   0.762  0.00  0.00     0.033 H 
ENDROOT
BRANCH   4  15
ATOM     15  C6  <0> d          -0.751   3.545   0.037  0.00  0.00    -0.044 C 
ATOM     16  H1  <0> d          -0.726   3.949  -0.975  0.00  0.00     0.041 H 
ATOM     17  C10 <0> d          -1.246   2.084   0.018  0.00  0.00    -0.006 C 
ATOM     18  C9  <0> d          -0.014   1.203   0.009  0.00  0.00     0.127 C 
ATOM     19  H15 <0> d          -1.804   1.931  -0.797  0.00  0.00     0.044 H 
ATOM     20  H16 <0> d          -1.841   1.883   0.910  0.00  0.00     0.044 H 
ATOM     21  C8  <0> d           1.196   2.120   0.002  0.00  0.00    -0.009 C 
ATOM     22  O1  <0> d           0.002  -0.004   0.002  0.00  0.00    -0.298 OA
ATOM     23  C7  <0> d           0.682   3.444   0.619  0.00  0.00    -0.055 C 
ATOM     24  H13 <0> d           1.948   1.764   0.557  0.00  0.00     0.044 H 
ATOM     25  H14 <0> d           1.544   2.284  -1.018  0.00  0.00     0.044 H 
ATOM     26  H11 <0> d           0.655   3.381   1.706  0.00  0.00     0.034 H 
ATOM     27  H12 <0> d           1.292   4.286   0.294  0.00  0.00     0.034 H 
ENDBRANCH   4  15
TORSDOF 1
