REMARK  3 active torsions:
REMARK  status: ('A' for Active; 'I' for Inactive)
REMARK    1  A    between atoms: C1_1  and  O1_2 
REMARK    2  A    between atoms: O1_2  and  C2_3 
REMARK    3  A    between atoms: C7_8  and  N1_9 
ROOT
ATOM      1  C2  <0> d           1.177   1.784   0.000  0.00  0.00     0.094 A 
ATOM      2  C3  <0> d          -0.013   1.076   0.008  0.00  0.00    -0.046 A 
ATOM      3  C4  <0> d          -1.220   1.750   0.017  0.00  0.00    -0.043 A 
ATOM      4  C5  <0> d          -1.243   3.135   0.030  0.00  0.00     0.118 A 
ATOM      5  C6  <0> d          -0.057   3.849   0.022  0.00  0.00    -0.018 A 
ATOM      6  C7  <0> d           1.156   3.177   0.008  0.00  0.00     0.062 A 
ATOM      7  F1  <0> d          -2.424   3.789   0.044  0.00  0.00    -0.206 F 
ATOM      8  H4  <0> d           0.002  -0.004   0.002  0.00  0.00     0.088 H 
ATOM      9  H5  <0> d          -2.147   1.196   0.019  0.00  0.00     0.088 H 
ATOM     10  H6  <0> d          -0.077   4.929   0.028  0.00  0.00     0.091 H 
ENDROOT
BRANCH   1  11
ATOM     11  O1  <0> d           2.365   1.121  -0.015  0.00  0.00    -0.354 OA
BRANCH  11  12
ATOM     12  C1  <0> d           2.311  -0.307  -0.022  0.00  0.00     0.010 C 
ATOM     13  H1  <0> d           3.324  -0.710  -0.034  0.00  0.00     0.066 H 
ATOM     14  H2  <0> d           1.792  -0.656   0.872  0.00  0.00     0.066 H 
ATOM     15  H3  <0> d           1.775  -0.646  -0.908  0.00  0.00     0.066 H 
ENDBRANCH  11  12
ENDBRANCH   1  11
BRANCH   6  16
ATOM     16  N1  <0> d           2.357   3.897   0.001  0.00  0.00    -0.397 N 
ATOM     17  H7  <0> d           3.204   3.425  -0.009  0.00  0.00     0.156 HD
ATOM     18  H8  <0> d           2.341   4.866   0.005  0.00  0.00     0.156 HD
ENDBRANCH   6  16
TORSDOF 3
