REMARK  5 active torsions:
REMARK  status: ('A' for Active; 'I' for Inactive)
REMARK    1  A    between atoms: C1_1  and  C2_2 
REMARK    2  A    between atoms: C2_2  and  C3_3 
REMARK    3  A    between atoms: C3_3  and  C4_4 
REMARK    4  A    between atoms: C4_4  and  O1_5 
REMARK    5  A    between atoms: O1_5  and  C5_6 
ROOT
ATOM      1  C3  <0> d          -4.867   1.577   0.032  0.00  0.00    -0.045 C 
ATOM      2  H6  <0> d          -4.956   0.958  -0.861  0.00  0.00     0.036 H 
ATOM      3  H7  <0> d          -4.948   0.948   0.919  0.00  0.00     0.036 H 
ENDROOT
BRANCH   1   4
ATOM      4  C2  <0> d          -5.985   2.621   0.043  0.00  0.00    -0.067 C 
ATOM      5  H4  <0> d          -5.896   3.240   0.936  0.00  0.00     0.032 H 
ATOM      6  H5  <0> d          -5.904   3.250  -0.844  0.00  0.00     0.032 H 
BRANCH   4   7
ATOM      7  C1  <0> d          -7.342   1.915   0.045  0.00  0.00    -0.076 C 
ATOM      8  H1  <0> d          -7.424   1.286   0.932  0.00  0.00     0.027 H 
ATOM      9  H2  <0> d          -8.139   2.659   0.053  0.00  0.00     0.027 H 
ATOM     10  H3  <0> d          -7.431   1.296  -0.848  0.00  0.00     0.027 H 
ENDBRANCH   4   7
ENDBRANCH   1   4
BRANCH   1  11
ATOM     11  C4  <0> d          -3.510   2.283   0.030  0.00  0.00     0.027 C 
ATOM     12  H8  <0> d          -3.420   2.901   0.923  0.00  0.00     0.075 H 
ATOM     13  H9  <0> d          -3.428   2.911  -0.856  0.00  0.00     0.075 H 
BRANCH  11  14
ATOM     14  O1  <0> d          -2.465   1.308   0.020  0.00  0.00    -0.341 OA
BRANCH  14  15
ATOM     15  C5  <0> d          -1.189   1.771   0.017  0.00  0.00     0.148 A 
ATOM     16  S1  <0> d          -0.609   3.407   0.025  0.00  0.00     0.061 SA
ATOM     17  N2  <0> d           1.068   3.065   0.008  0.00  0.00    -0.108 NA
ATOM     18  N1  <0> d           1.099   1.774   0.001  0.00  0.00    -0.152 NA
ATOM     19  C6  <0> d          -0.013   1.076   0.008  0.00  0.00     0.065 A 
ATOM     20  H10 <0> d           0.002  -0.004   0.002  0.00  0.00     0.122 H 
ENDBRANCH  14  15
ENDBRANCH  11  14
ENDBRANCH   1  11
TORSDOF 5
