REMARK  5 active torsions:
REMARK  status: ('A' for Active; 'I' for Inactive)
REMARK    1  A    between atoms: C1_1  and  C2_2 
REMARK       I    between atoms: C2_2  and  N1_4 
REMARK    2  A    between atoms: N1_4  and  C3_5 
REMARK    3  A    between atoms: C3_5  and  C4_6 
REMARK    4  A    between atoms: C3_5  and  C5_7 
REMARK    5  A    between atoms: C3_5  and  C6_8 
ROOT
ATOM      1  C3  <0> d           1.248   1.716  -0.001  0.00  0.00     0.114 C 
ENDROOT
BRANCH   1   2
ATOM      2  N1  <0> d          -0.011   0.966   0.007  0.00  0.00    -0.343 N 
ATOM      3  C2  <0> d          -1.187   1.624   0.017  0.00  0.00     0.214 C 
ATOM      4  O1  <0> d          -1.204   2.837   0.023  0.00  0.00    -0.274 OA
ATOM      5  H4  <0> d           0.002  -0.004   0.002  0.00  0.00     0.163 HD
BRANCH   3   6
ATOM      6  C1  <0> d          -2.482   0.853   0.018  0.00  0.00    -0.003 C 
ATOM      7  H1  <0> d          -2.268  -0.216   0.012  0.00  0.00     0.040 H 
ATOM      8  H2  <0> d          -3.053   1.103   0.912  0.00  0.00     0.040 H 
ATOM      9  H3  <0> d          -3.061   1.113  -0.867  0.00  0.00     0.040 H 
ENDBRANCH   3   6
ENDBRANCH   1   2
BRANCH   1  10
ATOM     10  C4  <0> d           1.305   2.603  -1.246  0.00  0.00    -0.044 C 
ATOM     11  H5  <0> d           0.467   3.300  -1.234  0.00  0.00     0.031 H 
ATOM     12  H6  <0> d           2.241   3.161  -1.252  0.00  0.00     0.031 H 
ATOM     13  H7  <0> d           1.247   1.980  -2.139  0.00  0.00     0.031 H 
ENDBRANCH   1  10
BRANCH   1  14
ATOM     14  C5  <0> d           1.329   2.589   1.253  0.00  0.00    -0.044 C 
ATOM     15  H8  <0> d           1.288   1.957   2.140  0.00  0.00     0.031 H 
ATOM     16  H9  <0> d           2.265   3.147   1.247  0.00  0.00     0.031 H 
ATOM     17  H10 <0> d           0.491   3.286   1.264  0.00  0.00     0.031 H 
ENDBRANCH   1  14
BRANCH   1  18
ATOM     18  C6  <0> d           2.406   0.752  -0.017  0.00  0.00     0.201 C 
ATOM     19  O2  <0> d           3.413   1.028  -0.625  0.00  0.00    -0.646 OA
ATOM     20  O3  <0> d           2.320  -0.413   0.644  0.00  0.00    -0.646 OA
ENDBRANCH   1  18
TORSDOF 5
