REMARK  6 active torsions:
REMARK  status: ('A' for Active; 'I' for Inactive)
REMARK    1  A    between atoms: C1_1  and  C2_2 
REMARK    2  A    between atoms: C2_2  and  C3_4 
REMARK    3  A    between atoms: C2_2  and  C6_7 
REMARK    4  A    between atoms: C3_4  and  C4_5 
REMARK    5  A    between atoms: C3_4  and  C5_6 
REMARK    6  A    between atoms: C6_7  and  C7_9 
ROOT
ATOM      1  C2  <0> d           0.002  -0.004   0.002  0.00  0.00     0.003 C 
ATOM      2  H1  <0> d          -1.020  -0.381   0.010  0.00  0.00     0.051 H 
ENDROOT
BRANCH   1   3
ATOM      3  C1  <0> d          -0.019   1.526   0.010  0.00  0.00    -0.066 C 
ATOM      4  H2  <0> d           1.004   1.903   0.003  0.00  0.00     0.028 H 
ATOM      5  H3  <0> d          -0.546   1.887  -0.873  0.00  0.00     0.028 H 
ATOM      6  H4  <0> d          -0.529   1.877   0.907  0.00  0.00     0.028 H 
ENDBRANCH   1   3
BRANCH   1   7
ATOM      7  C3  <0> d           0.742  -0.511   1.242  0.00  0.00    -0.051 C 
ATOM      8  H5  <0> d           1.765  -0.134   1.234  0.00  0.00     0.040 H 
BRANCH   7   9
ATOM      9  C4  <0> d           0.026  -0.018   2.500  0.00  0.00    -0.073 C 
ATOM     10  H6  <0> d          -0.997  -0.395   2.508  0.00  0.00     0.028 H 
ATOM     11  H7  <0> d           0.553  -0.379   3.383  0.00  0.00     0.028 H 
ATOM     12  H8  <0> d           0.011   1.072   2.506  0.00  0.00     0.028 H 
ENDBRANCH   7   9
BRANCH   7  13
ATOM     13  C5  <0> d           0.763  -2.041   1.233  0.00  0.00    -0.073 C 
ATOM     14  H9  <0> d           1.273  -2.392   0.336  0.00  0.00     0.028 H 
ATOM     15  H10 <0> d           1.290  -2.402   2.116  0.00  0.00     0.028 H 
ATOM     16  H11 <0> d          -0.260  -2.418   1.241  0.00  0.00     0.028 H 
ENDBRANCH   7  13
ENDBRANCH   1   7
BRANCH   1  17
ATOM     17  C6  <0> d           0.707  -0.490  -1.238  0.00  0.00     0.127 C 
ATOM     18  O1  <0> d           1.883  -0.762  -1.196  0.00  0.00    -0.298 OA
BRANCH  17  19
ATOM     19  C7  <0> d          -0.055  -0.637  -2.530  0.00  0.00    -0.021 C 
ATOM     20  H12 <0> d          -1.094  -0.348  -2.373  0.00  0.00     0.037 H 
ATOM     21  H13 <0> d           0.391   0.005  -3.289  0.00  0.00     0.037 H 
ATOM     22  H14 <0> d          -0.012  -1.675  -2.860  0.00  0.00     0.037 H 
ENDBRANCH  17  19
ENDBRANCH   1  17
TORSDOF 6
