REMARK  1 active torsions:
REMARK  status: ('A' for Active; 'I' for Inactive)
REMARK    1  A    between atoms: C3_3  and  C5_6 
REMARK       I    between atoms: C5_6  and  N2_8 
ROOT
ATOM      1  C1  <0> d           1.467  -0.384  -0.014  0.00  0.00     0.003 A 
ATOM      2  C2  <0> d           0.002  -0.004   0.002  0.00  0.00     0.058 A 
ATOM      3  C3  <0> d          -0.017   1.378   0.009  0.00  0.00     0.074 A 
ATOM      4  C4  <0> d           1.364   1.863  -0.001  0.00  0.00    -0.006 A 
ATOM      5  N1  <0> d           2.206   0.883  -0.014  0.00  0.00    -0.372 N 
ATOM      6  N3  <0> d          -1.062  -0.839   0.008  0.00  0.00    -0.397 N 
ATOM      7  H1  <0> d           1.733  -1.348  -0.022  0.00  0.00     0.114 H 
ATOM      8  H2  <0> d           3.287   1.087  -0.024  0.00  0.00     0.164 HD
ATOM      9  H3  <0> d           1.549   2.845   0.002  0.00  0.00     0.112 H 
ATOM     10  H6  <0> d          -0.906  -1.927   0.000  0.00  0.00     0.156 HD
ATOM     11  H7  <0> d          -2.082  -0.428   0.020  0.00  0.00     0.156 HD
ENDROOT
BRANCH   3  12
ATOM     12  C5  <0> d          -1.220   2.218   0.025  0.00  0.00     0.253 C 
ATOM     13  O1  <0> d          -2.322   1.703   0.028  0.00  0.00    -0.268 OA
ATOM     14  N2  <0> d          -1.104   3.561   0.038  0.00  0.00    -0.366 N 
ATOM     15  H4  <0> d          -0.108   4.027   0.036  0.00  0.00     0.159 HD
ATOM     16  H5  <0> d          -2.006   4.191   0.050  0.00  0.00     0.159 HD
ENDBRANCH   3  12
TORSDOF 1
