REMARK  4 active torsions:
REMARK  status: ('A' for Active; 'I' for Inactive)
REMARK    1  A    between atoms: C1_1  and  C2_2 
REMARK    2  A    between atoms: C2_2  and  C3_3 
REMARK    3  A    between atoms: C2_2  and  C4_4 
REMARK    4  A    between atoms: C7_8  and  N3_10 
ROOT
ATOM      1  C4  <0> d          -1.412  -0.526   0.013  0.00  0.00     0.062 A 
ATOM      2  C5  <0> d          -1.854  -1.315  -1.009  0.00  0.00     0.008 A 
ATOM      3  C6  <0> d          -3.178  -1.790  -0.976  0.00  0.00     0.261 A 
ATOM      4  N1  <0> d          -3.965  -1.447   0.066  0.00  0.00    -0.155 N 
ATOM      5  C7  <0> d          -3.469  -0.656   1.056  0.00  0.00     0.701 A 
ATOM      6  N2  <0> d          -2.225  -0.220   1.021  0.00  0.00    -0.069 NA
ATOM      7  O1  <0> d          -3.606  -2.498  -1.873  0.00  0.00    -0.268 OA
ATOM      8  H8  <0> d          -1.199  -1.571  -1.828  0.00  0.00     0.095 H 
ATOM      9  H11 <0> d          -4.881  -1.763   0.108  0.00  0.00     0.187 HD
ENDROOT
BRANCH   1  10
ATOM     10  C2  <0> d           0.002  -0.004   0.002  0.00  0.00    -0.018 C 
ATOM     11  H4  <0> d           0.512  -0.356  -0.895  0.00  0.00     0.048 H 
BRANCH  10  12
ATOM     12  C1  <0> d          -0.019   1.526   0.010  0.00  0.00    -0.068 C 
ATOM     13  H1  <0> d           1.004   1.903   0.003  0.00  0.00     0.028 H 
ATOM     14  H2  <0> d          -0.546   1.887  -0.873  0.00  0.00     0.028 H 
ATOM     15  H3  <0> d          -0.529   1.877   0.907  0.00  0.00     0.028 H 
ENDBRANCH  10  12
BRANCH  10  16
ATOM     16  C3  <0> d           0.742  -0.511   1.242  0.00  0.00    -0.068 C 
ATOM     17  H5  <0> d           0.232  -0.159   2.138  0.00  0.00     0.028 H 
ATOM     18  H6  <0> d           0.757  -1.601   1.236  0.00  0.00     0.028 H 
ATOM     19  H7  <0> d           1.765  -0.134   1.234  0.00  0.00     0.028 H 
ENDBRANCH  10  16
ENDBRANCH   1  10
BRANCH   5  20
ATOM     20  N3  <0> d          -4.273  -0.313   2.109  0.00  0.00    -0.233 N 
ATOM     21  H9  <0> d          -5.188  -0.632   2.145  0.00  0.00     0.174 HD
ATOM     22  H10 <0> d          -3.928   0.250   2.819  0.00  0.00     0.174 HD
ENDBRANCH   5  20
TORSDOF 4
