REMARK  2 active torsions:
REMARK  status: ('A' for Active; 'I' for Inactive)
REMARK    1  A    between atoms: C1_1  and  C2_2 
REMARK    2  A    between atoms: C2_2  and  C7_7 
ROOT
ATOM      1  C2  <0> d          -0.019   1.526   0.010  0.00  0.00     0.045 C 
ATOM      2  C3  <0> d          -0.767   2.036   1.254  0.00  0.00    -0.049 C 
ATOM      3  C4  <0> d          -1.971   2.853   0.739  0.00  0.00    -0.064 C 
ATOM      4  C5  <0> d          -2.226   2.298  -0.684  0.00  0.00    -0.064 C 
ATOM      5  C6  <0> d          -0.792   2.050  -1.217  0.00  0.00    -0.049 C 
ATOM      6  H4  <0> d          -1.115   1.194   1.852  0.00  0.00     0.034 H 
ATOM      7  H5  <0> d          -0.111   2.671   1.850  0.00  0.00     0.034 H 
ATOM      8  H6  <0> d          -1.722   3.913   0.696  0.00  0.00     0.033 H 
ATOM      9  H7  <0> d          -2.843   2.692   1.373  0.00  0.00     0.033 H 
ATOM     10  H8  <0> d          -2.744   3.034  -1.299  0.00  0.00     0.033 H 
ATOM     11  H9  <0> d          -2.788   1.365  -0.640  0.00  0.00     0.033 H 
ATOM     12  H10 <0> d          -0.353   2.981  -1.575  0.00  0.00     0.034 H 
ATOM     13  H11 <0> d          -0.804   1.302  -2.009  0.00  0.00     0.034 H 
ENDROOT
BRANCH   1  14
ATOM     14  C1  <0> d           0.002  -0.004   0.002  0.00  0.00    -0.059 C 
ATOM     15  H1  <0> d           0.540  -0.365   0.879  0.00  0.00     0.029 H 
ATOM     16  H2  <0> d          -1.020  -0.381   0.022  0.00  0.00     0.029 H 
ATOM     17  H3  <0> d           0.501  -0.356  -0.901  0.00  0.00     0.029 H 
ENDBRANCH   1  14
BRANCH   1  18
ATOM     18  C7  <0> d           1.390   2.061  -0.000  0.00  0.00     0.181 C 
ATOM     19  O1  <0> d           1.757   2.780  -0.900  0.00  0.00    -0.647 OA
ATOM     20  O2  <0> d           2.238   1.739   0.990  0.00  0.00    -0.647 OA
ENDBRANCH   1  18
TORSDOF 2
