REMARK  3 active torsions:
REMARK  status: ('A' for Active; 'I' for Inactive)
REMARK    1  A    between atoms: C2_2  and  C7_9 
REMARK    2  A    between atoms: C3_5  and  C4_6 
REMARK    3  A    between atoms: C7_9  and  O2_10 
ROOT
ATOM      1  C1  <0> d          -0.017   1.402   0.010  0.00  0.00    -0.024 A 
ATOM      2  C2  <0> d           1.257   1.839  -0.000  0.00  0.00     0.104 A 
ATOM      3  O1  <0> d           2.063   0.766  -0.013  0.00  0.00    -0.215 OA
ATOM      4  N1  <0> d           1.246  -0.391  -0.012  0.00  0.00    -0.133 NA
ATOM      5  C3  <0> d           0.002  -0.004   0.002  0.00  0.00     0.068 A 
ATOM      6  H1  <0> d          -0.900   2.024   0.025  0.00  0.00     0.090 H 
ENDROOT
BRANCH   5   7
ATOM      7  C4  <0> d          -1.206  -0.906   0.009  0.00  0.00    -0.009 A 
ATOM      8  C6  <0> d          -1.829  -1.241   1.366  0.00  0.00    -0.056 A 
ATOM      9  C5  <0> d          -2.547  -0.287   0.408  0.00  0.00    -0.056 A 
ATOM     10  H5  <0> d          -2.251  -2.238   1.493  0.00  0.00     0.034 H 
ATOM     11  H6  <0> d          -1.366  -0.809   2.253  0.00  0.00     0.034 H 
ATOM     12  H3  <0> d          -2.555   0.772   0.666  0.00  0.00     0.034 H 
ATOM     13  H4  <0> d          -3.441  -0.656  -0.094  0.00  0.00     0.034 H 
ATOM     14  H2  <0> d          -1.217  -1.682  -0.756  0.00  0.00     0.049 H 
ENDBRANCH   5   7
BRANCH   2  15
ATOM     15  C7  <0> d           1.700   3.279   0.003  0.00  0.00     0.063 C 
ATOM     16  H7  <0> d           2.653   3.367  -0.519  0.00  0.00     0.084 H 
ATOM     17  H8  <0> d           0.952   3.891  -0.500  0.00  0.00     0.084 H 
BRANCH  15  18
ATOM     18  O2  <0> d           1.853   3.727   1.352  0.00  0.00    -0.394 OA
ATOM     19  H9  <0> d           2.137   4.648   1.430  0.00  0.00     0.209 HD
ENDBRANCH  15  18
ENDBRANCH   2  15
TORSDOF 3
