REMARK  2 active torsions:
REMARK  status: ('A' for Active; 'I' for Inactive)
REMARK    1  A    between atoms: C3_3  and  C5_7 
REMARK    2  A    between atoms: C5_7  and  C6_8 
ROOT
ATOM      1  C5  <0> d          -2.538   1.379   0.021  0.00  0.00     0.011 C 
ATOM      2  H6  <0> d          -3.182   2.147  -0.407  0.00  0.00     0.051 H 
ATOM      3  H7  <0> d          -2.617   0.468  -0.573  0.00  0.00     0.051 H 
ENDROOT
BRANCH   1   4
ATOM      4  C3  <0> d          -1.110   1.859   0.017  0.00  0.00     0.014 A 
ATOM      5  C2  <0> d          -0.013   1.076   0.008  0.00  0.00    -0.060 A 
ATOM      6  C1  <0> d           1.112   1.925   0.002  0.00  0.00    -0.066 A 
ATOM      7  H4  <0> d           0.002  -0.004   0.002  0.00  0.00     0.086 H 
ATOM      8  C4  <0> d           0.658   3.195   0.012  0.00  0.00    -0.023 A 
ATOM      9  H3  <0> d           2.146   1.616  -0.009  0.00  0.00     0.085 H 
ATOM     10  N1  <0> d          -0.705   3.161   0.024  0.00  0.00    -0.369 N 
ATOM     11  H5  <0> d           1.269   4.086   0.011  0.00  0.00     0.111 H 
ATOM     12  H1  <0> d          -1.290   3.935   0.034  0.00  0.00     0.165 HD
ENDBRANCH   1   4
BRANCH   1  13
ATOM     13  C6  <0> d          -2.969   1.094   1.437  0.00  0.00     0.014 A 
ATOM     14  N2  <0> d          -3.633   1.956   2.259  0.00  0.00    -0.369 N 
ATOM     15  C9  <0> d          -3.846   1.341   3.457  0.00  0.00    -0.023 A 
ATOM     16  H2  <0> d          -3.909   2.857   2.029  0.00  0.00     0.165 HD
ATOM     17  C8  <0> d          -3.321   0.101   3.394  0.00  0.00    -0.066 A 
ATOM     18  H10 <0> d          -4.349   1.773   4.309  0.00  0.00     0.111 H 
ATOM     19  C7  <0> d          -2.768  -0.059   2.107  0.00  0.00    -0.060 A 
ATOM     20  H9  <0> d          -3.327  -0.637   4.183  0.00  0.00     0.085 H 
ATOM     21  H8  <0> d          -2.273  -0.941   1.729  0.00  0.00     0.086 H 
ENDBRANCH   1  13
TORSDOF 2
