REMARK  2 active torsions:
REMARK  status: ('A' for Active; 'I' for Inactive)
REMARK    1  A    between atoms: C1_1  and  C2_2 
REMARK    2  A    between atoms: C3_4  and  C4_7 
ROOT
ATOM      1  C4  <0> d          -0.018   1.468   0.010  0.00  0.00     0.073 C 
ATOM      2  C5  <0> d           0.002  -0.004   0.002  0.00  0.00     0.066 C 
ATOM      3  N3  <0> d           0.018  -1.140  -0.004  0.00  0.00    -0.197 NA
ATOM      4  H4  <0> d           1.005   1.845   0.002  0.00  0.00     0.067 H 
ATOM      5  H5  <0> d          -0.545   1.829  -0.873  0.00  0.00     0.067 H 
ENDROOT
BRANCH   1   6
ATOM      6  C3  <0> d          -0.723   1.954   1.250  0.00  0.00     0.169 A 
ATOM      7  N1  <0> d          -0.152   2.220   2.438  0.00  0.00    -0.208 NA
ATOM      8  C2  <0> d          -1.129   2.612   3.220  0.00  0.00     0.169 A 
ATOM      9  O1  <0> d          -2.249   2.572   2.491  0.00  0.00    -0.197 OA
ATOM     10  N2  <0> d          -1.994   2.198   1.366  0.00  0.00    -0.110 NA
BRANCH   8  11
ATOM     11  C1  <0> d          -1.012   3.028   4.663  0.00  0.00    -0.013 C 
ATOM     12  H1  <0> d          -0.828   4.101   4.719  0.00  0.00     0.038 H 
ATOM     13  H2  <0> d          -1.939   2.791   5.186  0.00  0.00     0.038 H 
ATOM     14  H3  <0> d          -0.185   2.493   5.130  0.00  0.00     0.038 H 
ENDBRANCH   8  11
ENDBRANCH   1   6
TORSDOF 2
