REMARK  4 active torsions:
REMARK  status: ('A' for Active; 'I' for Inactive)
REMARK    1  A    between atoms: C1_1  and  C2_2 
REMARK    2  A    between atoms: C2_2  and  O1_3 
REMARK    3  A    between atoms: O1_3  and  C3_4 
REMARK    4  A    between atoms: C3_4  and  C4_6 
ROOT
ATOM      1  C3  <0> d           2.486   1.364  -0.013  0.00  0.00     0.329 C 
ATOM      2  O2  <0> d           2.762   0.181  -0.020  0.00  0.00    -0.256 OA
ENDROOT
BRANCH   1   3
ATOM      3  O1  <0> d           3.471   2.285  -0.018  0.00  0.00    -0.316 OA
BRANCH   3   4
ATOM      4  C2  <0> d           4.836   1.791  -0.032  0.00  0.00     0.026 C 
ATOM      5  H5  <0> d           5.011   1.180   0.854  0.00  0.00     0.074 H 
ATOM      6  H6  <0> d           4.995   1.188  -0.926  0.00  0.00     0.074 H 
BRANCH   4   7
ATOM      7  C1  <0> d           5.807   2.974  -0.035  0.00  0.00    -0.056 C 
ATOM      8  H2  <0> d           5.648   3.576   0.859  0.00  0.00     0.030 H 
ATOM      9  H3  <0> d           6.832   2.602  -0.046  0.00  0.00     0.030 H 
ATOM     10  H4  <0> d           5.632   3.584  -0.921  0.00  0.00     0.030 H 
ENDBRANCH   4   7
ENDBRANCH   3   4
ENDBRANCH   1   3
BRANCH   1  11
ATOM     11  C4  <0> d           1.078   1.793   0.001  0.00  0.00     0.203 A 
ATOM     12  N2  <0> d           0.650   3.038   0.011  0.00  0.00    -0.236 NA
ATOM     13  C6  <0> d          -0.680   3.041   0.024  0.00  0.00     0.019 A 
ATOM     14  C5  <0> d          -1.111   1.755   0.016  0.00  0.00    -0.004 A 
ATOM     15  H8  <0> d          -1.310   3.918   0.033  0.00  0.00     0.117 H 
ATOM     16  N1  <0> d          -0.011   0.966   0.007  0.00  0.00    -0.344 N 
ATOM     17  H7  <0> d          -2.138   1.423   0.019  0.00  0.00     0.113 H 
ATOM     18  H1  <0> d           0.003  -0.034   0.006  0.00  0.00     0.167 HD
ENDBRANCH   1  11
TORSDOF 4
