REMARK  1 active torsions:
REMARK  status: ('A' for Active; 'I' for Inactive)
REMARK    1  A    between atoms: C5_6  and  C6_7 
ROOT
ATOM      1  C1  <0> d          -0.017   1.398   0.010  0.00  0.00    -0.062 A 
ATOM      2  C2  <0> d           1.191   2.070   0.002  0.00  0.00    -0.043 A 
ATOM      3  C3  <0> d           2.371   1.343  -0.013  0.00  0.00     0.125 A 
ATOM      4  N1  <0> d           2.359   0.022  -0.021  0.00  0.00    -0.248 NA
ATOM      5  C4  <0> d           1.234  -0.662  -0.014  0.00  0.00     0.020 A 
ATOM      6  C5  <0> d           0.002  -0.004   0.002  0.00  0.00     0.058 A 
ATOM      7 Cl1  <0> d           3.890   2.183  -0.023  0.00  0.00    -0.062 Cl
ATOM      8  H1  <0> d          -0.951   1.939   0.026  0.00  0.00     0.085 H 
ATOM      9  H2  <0> d           1.215   3.149   0.007  0.00  0.00     0.088 H 
ATOM     10  H3  <0> d           1.265  -1.742  -0.020  0.00  0.00     0.116 H 
ENDROOT
BRANCH   6  11
ATOM     11  C6  <0> d          -1.257  -0.771   0.010  0.00  0.00     0.210 C 
ATOM     12  O1  <0> d          -2.330  -0.184   0.024  0.00  0.00    -0.644 OA
ATOM     13  O2  <0> d          -1.229  -1.994   0.004  0.00  0.00    -0.644 OA
ENDBRANCH   6  11
TORSDOF 1
