REMARK  2 active torsions:
REMARK  status: ('A' for Active; 'I' for Inactive)
REMARK    1  A    between atoms: C2_2  and  C3_3 
REMARK    2  A    between atoms: C3_3  and  N1_4 
ROOT
ATOM      1  N1  <0> d          -2.146   1.365  -1.112  0.00  0.00    -0.321 N 
ATOM      2  C4  <0> d          -2.056   2.011  -2.302  0.00  0.00    -0.017 A 
ATOM      3  C5  <0> d          -2.799   1.613  -3.362  0.00  0.00    -0.068 A 
ATOM      4  C6  <0> d          -3.679   0.530  -3.233  0.00  0.00    -0.076 A 
ATOM      5  C7  <0> d          -3.772  -0.114  -2.034  0.00  0.00    -0.017 A 
ATOM      6  C8  <0> d          -2.983   0.321  -0.956  0.00  0.00     0.247 A 
ATOM      7  O1  <0> d          -3.056  -0.246   0.122  0.00  0.00    -0.268 OA
ATOM      8  H6  <0> d          -1.383   2.849  -2.406  0.00  0.00     0.111 H 
ATOM      9  H7  <0> d          -2.716   2.133  -4.305  0.00  0.00     0.085 H 
ATOM     10  H8  <0> d          -4.278   0.210  -4.073  0.00  0.00     0.083 H 
ATOM     11  H9  <0> d          -4.445  -0.951  -1.915  0.00  0.00     0.092 H 
ENDROOT
BRANCH   1  12
ATOM     12  C3  <0> d          -1.328   1.812   0.018  0.00  0.00     0.017 C 
ATOM     13  H4  <0> d          -1.853   1.605   0.951  0.00  0.00     0.071 H 
ATOM     14  H5  <0> d          -1.145   2.883  -0.066  0.00  0.00     0.071 H 
BRANCH  12  15
ATOM     15  C2  <0> d          -0.013   1.076   0.008  0.00  0.00    -0.095 C 
ATOM     16  C1  <0> d           1.113   1.746   0.001  0.00  0.00    -0.123 C 
ATOM     17  H1  <0> d           2.055   1.219  -0.011  0.00  0.00     0.066 H 
ATOM     18  H2  <0> d           1.098   2.826   0.007  0.00  0.00     0.066 H 
ATOM     19  H3  <0> d           0.002  -0.004   0.002  0.00  0.00     0.078 H 
ENDBRANCH  12  15
ENDBRANCH   1  12
TORSDOF 2
