REMARK  7 active torsions:
REMARK  status: ('A' for Active; 'I' for Inactive)
REMARK    1  A    between atoms: C1_1  and  C2_2 
REMARK    2  A    between atoms: C2_2  and  C3_3 
REMARK    3  A    between atoms: C2_2  and  C4_4 
REMARK    4  A    between atoms: C2_2  and  C5_5 
REMARK    5  A    between atoms: C6_6  and  C7_7 
REMARK    6  A    between atoms: C7_7  and  C8_9 
REMARK    7  A    between atoms: C7_7  and  O1_11 
ROOT
ATOM      1  C2  <0> d          -0.018   1.468   0.010  0.00  0.00     0.013 C 
ENDROOT
BRANCH   1   2
ATOM      2  C1  <0> d           1.417   1.997  -0.001  0.00  0.00    -0.059 C 
ATOM      3  H2  <0> d           1.928   1.646  -0.897  0.00  0.00     0.029 H 
ATOM      4  H3  <0> d           1.403   3.087   0.005  0.00  0.00     0.029 H 
ATOM      5  H4  <0> d           1.945   1.636   0.882  0.00  0.00     0.029 H 
ENDBRANCH   1   2
BRANCH   1   6
ATOM      6  C3  <0> d          -0.758   1.975  -1.229  0.00  0.00    -0.059 C 
ATOM      7  H5  <0> d          -1.780   1.597  -1.222  0.00  0.00     0.029 H 
ATOM      8  H6  <0> d          -0.773   3.064  -1.223  0.00  0.00     0.029 H 
ATOM      9  H7  <0> d          -0.248   1.623  -2.126  0.00  0.00     0.029 H 
ENDBRANCH   1   6
BRANCH   1  10
ATOM     10  C4  <0> d          -0.734   1.961   1.269  0.00  0.00    -0.059 C 
ATOM     11  H8  <0> d          -0.207   1.600   2.152  0.00  0.00     0.029 H 
ATOM     12  H9  <0> d          -0.749   3.051   1.275  0.00  0.00     0.029 H 
ATOM     13  H10 <0> d          -1.757   1.584   1.277  0.00  0.00     0.029 H 
ENDBRANCH   1  10
BRANCH   1  14
ATOM     14  C5  <0> d           0.002  -0.004   0.002  0.00  0.00    -0.095 C 
ATOM     15  C6  <0> d           0.018  -1.178  -0.004  0.00  0.00    -0.070 C 
BRANCH  15  16
ATOM     16  C7  <0> d           0.038  -2.650  -0.013  0.00  0.00     0.110 C 
ATOM     17  H1  <0> d           0.548  -3.001  -0.909  0.00  0.00     0.109 H 
BRANCH  16  18
ATOM     18  C8  <0> d           0.767  -3.149   1.208  0.00  0.00    -0.074 C 
ATOM     19  C9  <0> d           0.181  -3.993   2.021  0.00  0.00    -0.122 C 
ATOM     20  H12 <0> d           0.704  -4.351   2.896  0.00  0.00     0.066 H 
ATOM     21  H13 <0> d          -0.824  -4.332   1.816  0.00  0.00     0.066 H 
ATOM     22  H11 <0> d           1.772  -2.811   1.413  0.00  0.00     0.081 H 
ENDBRANCH  16  18
BRANCH  16  23
ATOM     23  O1  <0> d          -1.303  -3.144  -0.002  0.00  0.00    -0.380 OA
ATOM     24  H14 <0> d          -1.817  -2.870   0.769  0.00  0.00     0.211 HD
ENDBRANCH  16  23
ENDBRANCH  15  16
ENDBRANCH   1  14
TORSDOF 7
