REMARK  4 active torsions:
REMARK  status: ('A' for Active; 'I' for Inactive)
REMARK    1  A    between atoms: C4_4  and  O1_6 
REMARK    2  A    between atoms: O1_6  and  C6_7 
REMARK    3  A    between atoms: C6_7  and  C7_8 
REMARK    4  A    between atoms: C7_8  and  O2_9 
ROOT
ATOM      1  C1  <0> d          -3.965   0.286   4.311  0.00  0.00    -0.063 C 
ATOM      2  C2  <0> d          -4.941   0.355   3.110  0.00  0.00    -0.063 C 
ATOM      3  C3  <0> d          -4.289   1.373   2.151  0.00  0.00    -0.041 C 
ATOM      4  C4  <0> d          -2.787   1.389   2.481  0.00  0.00     0.038 C 
ATOM      5  C5  <0> d          -2.577   0.380   3.629  0.00  0.00    -0.041 C 
ATOM      6  H1  <0> d          -4.039  -0.661   4.864  0.00  0.00     0.033 H 
ATOM      7  H2  <0> d          -4.089   1.128   5.008  0.00  0.00     0.033 H 
ATOM      8  H3  <0> d          -5.032  -0.642   2.654  0.00  0.00     0.033 H 
ATOM      9  H4  <0> d          -5.929   0.690   3.459  0.00  0.00     0.033 H 
ATOM     10  H5  <0> d          -4.459   1.058   1.111  0.00  0.00     0.036 H 
ATOM     11  H6  <0> d          -4.736   2.365   2.311  0.00  0.00     0.036 H 
ATOM     12  H7  <0> d          -2.407   2.395   2.713  0.00  0.00     0.083 H 
ATOM     13  H8  <0> d          -1.834   0.733   4.359  0.00  0.00     0.036 H 
ATOM     14  H9  <0> d          -2.284  -0.613   3.258  0.00  0.00     0.036 H 
ENDROOT
BRANCH   4  15
ATOM     15  O1  <0> d          -2.030   0.991   1.336  0.00  0.00    -0.384 OA
BRANCH  15  16
ATOM     16  C6  <0> d          -0.729   1.579   1.267  0.00  0.00     0.039 C 
ATOM     17  H10 <0> d          -0.823   2.675   1.230  0.00  0.00     0.077 H 
ATOM     18  H11 <0> d          -0.148   1.291   2.156  0.00  0.00     0.077 H 
BRANCH  16  19
ATOM     19  C7  <0> d          -0.013   1.086   0.008  0.00  0.00     0.036 C 
ATOM     20  H12 <0> d           1.019   1.466   0.000  0.00  0.00     0.077 H 
ATOM     21  H13 <0> d           0.002  -0.014   0.002  0.00  0.00     0.077 H 
BRANCH  19  22
ATOM     22  O2  <0> d          -0.704   1.559  -1.150  0.00  0.00    -0.399 OA
ATOM     23  H14 <0> d          -0.334   1.304  -2.154  0.00  0.00     0.209 HD
ENDBRANCH  19  22
ENDBRANCH  16  19
ENDBRANCH  15  16
ENDBRANCH   4  15
TORSDOF 4
