REMARK  2 active torsions:
REMARK  status: ('A' for Active; 'I' for Inactive)
REMARK    1  A    between atoms: C3_3  and  C6_7 
REMARK    2  A    between atoms: C7_8  and  C8_9 
ROOT
ATOM      1  C1  <0> d           2.374   1.351  -0.014  0.00  0.00    -0.065 A 
ATOM      2  C2  <0> d           1.202   2.087   0.002  0.00  0.00    -0.062 A 
ATOM      3  C3  <0> d          -0.017   1.394   0.010  0.00  0.00     0.035 A 
ATOM      4  C4  <0> d           0.002  -0.004   0.002  0.00  0.00     0.020 A 
ATOM      5  N1  <0> d           1.145  -0.657  -0.012  0.00  0.00    -0.272 NA
ATOM      6  C5  <0> d           2.306  -0.030  -0.020  0.00  0.00     0.002 A 
ATOM      7  H1  <0> d           3.331   1.851  -0.020  0.00  0.00     0.085 H 
ATOM      8  H2  <0> d           1.226   3.167   0.007  0.00  0.00     0.085 H 
ATOM      9  H3  <0> d          -0.928  -0.552   0.008  0.00  0.00     0.117 H 
ATOM     10  H4  <0> d           3.220  -0.606  -0.031  0.00  0.00     0.114 H 
ENDROOT
BRANCH   3  11
ATOM     11  C6  <0> d          -1.259   2.106   0.019  0.00  0.00    -0.054 C 
ATOM     12  C7  <0> d          -2.278   2.690   0.028  0.00  0.00     0.010 C 
BRANCH  12  13
ATOM     13  C8  <0> d          -3.521   3.402   0.037  0.00  0.00     0.258 C 
ATOM     14  O1  <0> d          -4.572   2.790   0.039  0.00  0.00    -0.637 OA
ATOM     15  O2  <0> d          -3.525   4.751   0.045  0.00  0.00    -0.637 OA
ENDBRANCH  12  13
ENDBRANCH   3  11
TORSDOF 2
