REMARK  3 active torsions:
REMARK  status: ('A' for Active; 'I' for Inactive)
REMARK    1  A    between atoms: C4_4  and  C6_6 
REMARK    2  A    between atoms: C4_4  and  O2_9 
REMARK    3  A    between atoms: C6_6  and  C7_7 
ROOT
ATOM      1  C1  <0> d          -1.537   3.285   0.753  0.00  0.00    -0.062 C 
ATOM      2  C2  <0> d          -1.984   2.860  -0.668  0.00  0.00    -0.062 C 
ATOM      3  C3  <0> d          -0.790   2.049  -1.214  0.00  0.00    -0.036 C 
ATOM      4  C4  <0> d          -0.019   1.526   0.010  0.00  0.00     0.067 C 
ATOM      5  C5  <0> d          -0.769   2.037   1.258  0.00  0.00    -0.036 C 
ATOM      6  H1  <0> d          -0.877   4.152   0.708  0.00  0.00     0.033 H 
ATOM      7  H2  <0> d          -2.401   3.492   1.384  0.00  0.00     0.033 H 
ATOM      8  H3  <0> d          -2.164   3.738  -1.289  0.00  0.00     0.033 H 
ATOM      9  H4  <0> d          -2.877   2.238  -0.617  0.00  0.00     0.033 H 
ATOM     10  H5  <0> d          -0.146   2.691  -1.815  0.00  0.00     0.037 H 
ATOM     11  H6  <0> d          -1.150   1.213  -1.813  0.00  0.00     0.037 H 
ATOM     12  H7  <0> d          -1.466   1.282   1.620  0.00  0.00     0.037 H 
ATOM     13  H8  <0> d          -0.063   2.314   2.041  0.00  0.00     0.037 H 
ENDROOT
BRANCH   4  14
ATOM     14  C6  <0> d           0.002  -0.004   0.002  0.00  0.00     0.044 C 
ATOM     15  H9  <0> d          -1.018  -0.381  -0.067  0.00  0.00     0.053 H 
ATOM     16  H10 <0> d           0.578  -0.355  -0.854  0.00  0.00     0.053 H 
BRANCH  14  17
ATOM     17  C7  <0> d           0.637  -0.505   1.274  0.00  0.00     0.175 C 
ATOM     18  O1  <0> d           1.033   0.281   2.102  0.00  0.00    -0.648 OA
ATOM     19  O3  <0> d           0.764  -1.824   1.486  0.00  0.00    -0.648 OA
ENDBRANCH  14  17
ENDBRANCH   4  14
BRANCH   4  20
ATOM     20  O2  <0> d           1.317   2.033   0.000  0.00  0.00    -0.389 OA
ATOM     21  H11 <0> d           1.852   1.747   0.753  0.00  0.00     0.210 HD
ENDBRANCH   4  20
TORSDOF 3
