REMARK  2 active torsions:
REMARK  status: ('A' for Active; 'I' for Inactive)
REMARK    1  A    between atoms: C4_4  and  C6_6 
REMARK       I    between atoms: C6_6  and  N1_8 
REMARK    2  A    between atoms: N1_8  and  C7_9 
ROOT
ATOM      1  C1  <0> d          -2.723  -1.842   1.674  0.00  0.00    -0.064 C 
ATOM      2  C2  <0> d          -1.622  -2.862   1.292  0.00  0.00    -0.064 C 
ATOM      3  C3  <0> d          -1.006  -2.287  -0.001  0.00  0.00    -0.054 C 
ATOM      4  C4  <0> d          -1.293  -0.775   0.010  0.00  0.00     0.024 C 
ATOM      5  C5  <0> d          -2.073  -0.484   1.309  0.00  0.00    -0.054 C 
ATOM      6  H1  <0> d          -3.625  -2.009   1.085  0.00  0.00     0.033 H 
ATOM      7  H2  <0> d          -2.942  -1.891   2.741  0.00  0.00     0.033 H 
ATOM      8  H3  <0> d          -2.059  -3.842   1.103  0.00  0.00     0.033 H 
ATOM      9  H4  <0> d          -0.870  -2.924   2.078  0.00  0.00     0.033 H 
ATOM     10  H5  <0> d          -1.469  -2.749  -0.873  0.00  0.00     0.034 H 
ATOM     11  H6  <0> d           0.070  -2.463  -0.012  0.00  0.00     0.034 H 
ATOM     12  H7  <0> d          -1.895  -0.503  -0.857  0.00  0.00     0.054 H 
ATOM     13  H8  <0> d          -1.394  -0.162   2.098  0.00  0.00     0.034 H 
ATOM     14  H9  <0> d          -2.839   0.271   1.132  0.00  0.00     0.034 H 
ENDROOT
BRANCH   4  15
ATOM     15  C6  <0> d           0.002  -0.004   0.002  0.00  0.00     0.222 C 
ATOM     16  O1  <0> d           1.060  -0.596  -0.011  0.00  0.00    -0.273 OA
ATOM     17  N1  <0> d          -0.016   1.344   0.009  0.00  0.00    -0.356 N 
ATOM     18  H10 <0> d          -0.863   1.817   0.016  0.00  0.00     0.162 HD
BRANCH  17  19
ATOM     19  C7  <0> d           1.242   2.093   0.001  0.00  0.00     0.012 A 
ATOM     20  C9  <0> d           1.214   3.515  -0.562  0.00  0.00    -0.044 A 
ATOM     21  C8  <0> d           1.357   3.292   0.945  0.00  0.00    -0.044 A 
ATOM     22  H14 <0> d           2.094   3.859  -1.106  0.00  0.00     0.036 H 
ATOM     23  H15 <0> d           0.259   3.893  -0.927  0.00  0.00     0.036 H 
ATOM     24  H12 <0> d           0.495   3.523   1.572  0.00  0.00     0.036 H 
ATOM     25  H13 <0> d           2.331   3.489   1.393  0.00  0.00     0.036 H 
ATOM     26  H11 <0> d           2.141   1.501  -0.171  0.00  0.00     0.072 H 
ENDBRANCH  17  19
ENDBRANCH   4  15
TORSDOF 2
