REMARK  4 active torsions:
REMARK  status: ('A' for Active; 'I' for Inactive)
REMARK    1  A    between atoms: C1_1  and  C2_2 
REMARK    2  A    between atoms: C4_4  and  O2_10 
REMARK    3  A    between atoms: C5_5  and  C8_9 
REMARK    4  A    between atoms: C6_6  and  O1_8 
ROOT
ATOM      1  C2  <0> d           1.175   1.782   0.000  0.00  0.00    -0.057 A 
ATOM      2  C3  <0> d          -0.013   1.076   0.008  0.00  0.00    -0.045 A 
ATOM      3  C4  <0> d          -1.224   1.753   0.017  0.00  0.00     0.074 A 
ATOM      4  C5  <0> d          -1.242   3.139   0.029  0.00  0.00     0.004 A 
ATOM      5  C6  <0> d          -0.049   3.845   0.022  0.00  0.00     0.074 A 
ATOM      6  C7  <0> d           1.159   3.164   0.007  0.00  0.00    -0.045 A 
ATOM      7  H4  <0> d           0.002  -0.004   0.002  0.00  0.00     0.088 H 
ATOM      8  H5  <0> d           2.089   3.714   0.002  0.00  0.00     0.088 H 
ENDROOT
BRANCH   1   9
ATOM      9  C1  <0> d           2.489   1.045  -0.015  0.00  0.00    -0.051 C 
ATOM     10  H1  <0> d           2.796   0.872  -1.046  0.00  0.00     0.033 H 
ATOM     11  H2  <0> d           3.246   1.641   0.495  0.00  0.00     0.033 H 
ATOM     12  H3  <0> d           2.375   0.088   0.495  0.00  0.00     0.033 H 
ENDBRANCH   1   9
BRANCH   5  13
ATOM     13  O1  <0> d          -0.064   5.204   0.028  0.00  0.00    -0.360 OA
ATOM     14  H6  <0> d          -0.076   5.601  -0.854  0.00  0.00     0.217 HD
ENDBRANCH   5  13
BRANCH   3  15
ATOM     15  O2  <0> d          -2.392   1.057   0.019  0.00  0.00    -0.360 OA
ATOM     16  H10 <0> d          -2.725   0.852   0.903  0.00  0.00     0.217 HD
ENDBRANCH   3  15
BRANCH   4  17
ATOM     17  C8  <0> d          -2.556   3.876   0.045  0.00  0.00    -0.046 C 
ATOM     18  H7  <0> d          -2.883   4.059  -0.978  0.00  0.00     0.033 H 
ATOM     19  H8  <0> d          -3.304   3.276   0.563  0.00  0.00     0.033 H 
ATOM     20  H9  <0> d          -2.433   4.828   0.563  0.00  0.00     0.033 H 
ENDBRANCH   4  17
TORSDOF 4
