REMARK  2 active torsions:
REMARK  status: ('A' for Active; 'I' for Inactive)
REMARK    1  A    between atoms: C3_3  and  C6_9 
REMARK    2  A    between atoms: C4_5  and  C5_7 
ROOT
ATOM      1  C1  <0> d          -0.013   1.076   0.008  0.00  0.00    -0.117 C 
ATOM      2  C2  <0> d          -1.156   1.715   0.017  0.00  0.00    -0.058 A 
ATOM      3  C3  <0> d          -1.915   3.017   0.034  0.00  0.00     0.069 A 
ATOM      4  H1  <0> d          -1.921   3.609  -0.881  0.00  0.00     0.065 H 
ATOM      5  C4  <0> d          -2.662   1.681   0.024  0.00  0.00     0.069 A 
ATOM      6  H2  <0> d          -3.156   1.376   0.947  0.00  0.00     0.065 H 
ATOM      7  H3  <0> d           0.002  -0.004   0.002  0.00  0.00     0.067 H 
ATOM      8  H4  <0> d           0.915   1.629   0.002  0.00  0.00     0.067 H 
ENDROOT
BRANCH   3   9
ATOM      9  C6  <0> d          -1.922   3.803   1.319  0.00  0.00     0.182 C 
ATOM     10  O2  <0> d          -2.511   3.378   2.285  0.00  0.00    -0.647 OA
ATOM     11  O4  <0> d          -1.273   4.976   1.392  0.00  0.00    -0.647 OA
ENDBRANCH   3   9
BRANCH   5  12
ATOM     12  C5  <0> d          -3.356   1.275  -1.250  0.00  0.00     0.182 C 
ATOM     13  O1  <0> d          -3.318   1.999  -2.217  0.00  0.00    -0.647 OA
ATOM     14  O3  <0> d          -4.017   0.108  -1.312  0.00  0.00    -0.647 OA
ENDBRANCH   5  12
TORSDOF 2
