REMARK  1 active torsions:
REMARK  status: ('A' for Active; 'I' for Inactive)
REMARK    1  A    between atoms: C1_1  and  N1_2 
ROOT
ATOM      1  N1  <0> d          -1.309  -0.427   0.013  0.00  0.00    -0.360 N 
ATOM      2  C2  <0> d          -2.145   0.653   0.027  0.00  0.00    -0.020 A 
ATOM      3  C3  <0> d          -1.425   1.789   0.031  0.00  0.00    -0.054 A 
ATOM      4  C4  <0> d          -0.017   1.402   0.010  0.00  0.00     0.013 A 
ATOM      5  C5  <0> d           0.002  -0.004   0.002  0.00  0.00     0.045 A 
ATOM      6  C6  <0> d           1.221  -0.673  -0.013  0.00  0.00    -0.056 A 
ATOM      7  C7  <0> d           2.404   0.038  -0.021  0.00  0.00    -0.079 A 
ATOM      8  C8  <0> d           2.402   1.421  -0.014  0.00  0.00    -0.062 A 
ATOM      9  C9  <0> d           1.196   2.119   0.002  0.00  0.00     0.057 A 
ATOM     10  C10 <0> d           1.190   3.551   0.010  0.00  0.00     0.100 C 
ATOM     11  N2  <0> d           1.185   4.688   0.016  0.00  0.00    -0.191 NA
ATOM     12  H4  <0> d          -3.224   0.602   0.038  0.00  0.00     0.111 H 
ATOM     13  H5  <0> d          -1.814   2.796   0.042  0.00  0.00     0.087 H 
ATOM     14  H6  <0> d           1.242  -1.752  -0.020  0.00  0.00     0.087 H 
ATOM     15  H7  <0> d           3.345  -0.493  -0.033  0.00  0.00     0.083 H 
ATOM     16  H8  <0> d           3.337   1.961  -0.021  0.00  0.00     0.085 H 
ENDROOT
BRANCH   1  17
ATOM     17  C1  <0> d          -1.742  -1.827   0.010  0.00  0.00    -0.014 C 
ATOM     18  H1  <0> d          -1.839  -2.179   1.037  0.00  0.00     0.057 H 
ATOM     19  H2  <0> d          -2.704  -1.909  -0.494  0.00  0.00     0.057 H 
ATOM     20  H3  <0> d          -1.004  -2.434  -0.514  0.00  0.00     0.057 H 
ENDBRANCH   1  17
TORSDOF 1
