REMARK  1 active torsions:
REMARK  status: ('A' for Active; 'I' for Inactive)
REMARK    1  A    between atoms: C1_1  and  C2_2 
REMARK       I    between atoms: C2_2  and  N1_4 
ROOT
ATOM      1  C2  <0> d           1.328   4.504  -0.556  0.00  0.00     0.215 C 
ATOM      2  O1  <0> d           2.024   4.458  -1.548  0.00  0.00    -0.274 OA
ATOM      3  N1  <0> d           0.280   3.666  -0.428  0.00  0.00    -0.352 N 
ATOM      4  C3  <0> d          -0.063   2.784  -1.561  0.00  0.00    -0.002 C 
ATOM      5  C4  <0> d          -0.418   1.359  -1.101  0.00  0.00    -0.050 C 
ATOM      6  C5  <0> d           0.516   0.922   0.000  0.00  0.00    -0.064 C 
ATOM      7  C6  <0> d          -0.095   1.275   1.353  0.00  0.00    -0.064 C 
ATOM      8  C7  <0> d           0.171   2.651   1.797  0.00  0.00    -0.050 C 
ATOM      9  C8  <0> d          -0.461   3.667   0.813  0.00  0.00    -0.002 C 
ATOM     10  H4  <0> d           0.788   2.735  -2.241  0.00  0.00     0.064 H 
ATOM     11  H5  <0> d          -0.916   3.208  -2.092  0.00  0.00     0.064 H 
ATOM     12  H6  <0> d          -0.328   0.674  -1.944  0.00  0.00     0.035 H 
ATOM     13  H7  <0> d          -1.444   1.343  -0.732  0.00  0.00     0.035 H 
ATOM     14  H8  <0> d           0.670  -0.155  -0.059  0.00  0.00     0.033 H 
ATOM     15  H9  <0> d           1.473   1.432  -0.111  0.00  0.00     0.033 H 
ATOM     16  H10 <0> d          -1.174   1.134   1.292  0.00  0.00     0.033 H 
ATOM     17  H11 <0> d           0.299   0.588   2.101  0.00  0.00     0.033 H 
ATOM     18  H12 <0> d           1.248   2.814   1.840  0.00  0.00     0.035 H 
ATOM     19  H13 <0> d          -0.254   2.798   2.790  0.00  0.00     0.035 H 
ATOM     20  H14 <0> d          -0.432   4.664   1.252  0.00  0.00     0.064 H 
ATOM     21  H15 <0> d          -1.496   3.386   0.618  0.00  0.00     0.064 H 
ENDROOT
BRANCH   1  22
ATOM     22  C1  <0> d           1.634   5.499   0.534  0.00  0.00    -0.003 C 
ATOM     23  H1  <0> d           2.237   5.019   1.305  0.00  0.00     0.040 H 
ATOM     24  H2  <0> d           2.184   6.341   0.114  0.00  0.00     0.040 H 
ATOM     25  H3  <0> d           0.702   5.856   0.973  0.00  0.00     0.040 H 
ENDBRANCH   1  22
TORSDOF 1
