REMARK  1 active torsions:
REMARK  status: ('A' for Active; 'I' for Inactive)
REMARK    1  A    between atoms: C4_4  and  C7_7 
ROOT
ATOM      1  C1  <0> d          -0.056   4.248   0.025  0.00  0.00    -0.083 A 
ATOM      2  C2  <0> d           1.153   3.575   0.010  0.00  0.00    -0.082 A 
ATOM      3  C3  <0> d           1.178   2.195   0.003  0.00  0.00    -0.071 A 
ATOM      4  C4  <0> d          -0.018   1.480   0.010  0.00  0.00    -0.004 A 
ATOM      5  C5  <0> d          -1.233   2.163   0.020  0.00  0.00    -0.071 A 
ATOM      6  C6  <0> d          -1.246   3.543   0.033  0.00  0.00    -0.082 A 
ATOM      7  H1  <0> d          -0.070   5.328   0.032  0.00  0.00     0.083 H 
ATOM      8  H2  <0> d           2.079   4.131   0.004  0.00  0.00     0.083 H 
ATOM      9  H3  <0> d           2.122   1.671  -0.009  0.00  0.00     0.084 H 
ATOM     10  H4  <0> d          -2.162   1.613   0.021  0.00  0.00     0.084 H 
ATOM     11  H5  <0> d          -2.186   4.073   0.045  0.00  0.00     0.083 H 
ENDROOT
BRANCH   4  12
ATOM     12  C7  <0> d           0.002  -0.004   0.002  0.00  0.00     0.116 A 
ATOM     13  N2  <0> d           1.073  -0.756  -0.018  0.00  0.00    -0.103 NA
ATOM     14  O1  <0> d           0.649  -2.108  -0.016  0.00  0.00    -0.107 OA
ATOM     15  N1  <0> d          -0.768  -2.110  -0.002  0.00  0.00    -0.115 NA
ATOM     16  C8  <0> d          -1.171  -0.876   0.009  0.00  0.00     0.061 A 
ATOM     17  H6  <0> d          -2.200  -0.549   0.021  0.00  0.00     0.122 H 
ENDBRANCH   4  12
TORSDOF 1
