REMARK  3 active torsions:
REMARK  status: ('A' for Active; 'I' for Inactive)
REMARK    1  A    between atoms: C1_1  and  C2_2 
REMARK    2  A    between atoms: C2_2  and  C3_3 
REMARK    3  A    between atoms: C2_2  and  C4_4 
ROOT
ATOM      1  C4  <0> d          -1.300   1.645   0.017  0.00  0.00     0.092 C 
ATOM      2  H1  <0> d          -1.980   1.111   0.681  0.00  0.00     0.088 H 
ATOM      3  C5  <0> d          -1.163   3.062   0.494  0.00  0.00     0.241 C 
ATOM      4  O1  <0> d          -2.149   3.636   0.903  0.00  0.00    -0.271 OA
ATOM      5  N1  <0> d           0.002   3.718   0.482  0.00  0.00    -0.351 N 
ATOM      6  C6  <0> d           1.242   3.118   0.008  0.00  0.00     0.069 C 
ATOM      7  C7  <0> d           1.154   1.621  -0.000  0.00  0.00     0.236 C 
ATOM      8  O2  <0> d           2.182   0.978  -0.014  0.00  0.00    -0.272 OA
ATOM      9  N2  <0> d          -0.011   0.966   0.007  0.00  0.00    -0.346 N 
ATOM     10  H9  <0> d           0.022   4.633   0.802  0.00  0.00     0.163 HD
ATOM     11  H10 <0> d           2.059   3.423   0.662  0.00  0.00     0.078 H 
ATOM     12  H11 <0> d           1.444   3.469  -1.004  0.00  0.00     0.078 H 
ATOM     13  H12 <0> d           0.002  -0.004   0.002  0.00  0.00     0.163 HD
ENDROOT
BRANCH   1  14
ATOM     14  C2  <0> d          -1.879   1.642  -1.399  0.00  0.00    -0.033 C 
ATOM     15  H5  <0> d          -2.009   0.614  -1.736  0.00  0.00     0.042 H 
BRANCH  14  16
ATOM     16  C1  <0> d          -3.233   2.354  -1.398  0.00  0.00    -0.071 C 
ATOM     17  H2  <0> d          -3.645   2.352  -2.407  0.00  0.00     0.028 H 
ATOM     18  H3  <0> d          -3.916   1.835  -0.725  0.00  0.00     0.028 H 
ATOM     19  H4  <0> d          -3.102   3.382  -1.061  0.00  0.00     0.028 H 
ENDBRANCH  14  16
BRANCH  14  20
ATOM     20  C3  <0> d          -0.920   2.370  -2.343  0.00  0.00    -0.071 C 
ATOM     21  H6  <0> d           0.045   1.863  -2.344  0.00  0.00     0.028 H 
ATOM     22  H7  <0> d          -1.333   2.368  -3.352  0.00  0.00     0.028 H 
ATOM     23  H8  <0> d          -0.790   3.399  -2.006  0.00  0.00     0.028 H 
ENDBRANCH  14  20
ENDBRANCH   1  14
TORSDOF 3
