REMARK  2 active torsions:
REMARK  status: ('A' for Active; 'I' for Inactive)
REMARK    1  A    between atoms: C2_2  and  C3_3 
REMARK    2  A    between atoms: C3_3  and  O1_9 
ROOT
ATOM      1  C1  <0> d           0.018  -1.178  -0.004  0.00  0.00    -0.151 C 
ATOM      2  C2  <0> d           0.002  -0.004   0.002  0.00  0.00    -0.079 C 
ATOM      3  H1  <0> d           0.032  -2.228  -0.010  0.00  0.00     0.166 H 
ENDROOT
BRANCH   2   4
ATOM      4  C3  <0> d          -0.018   1.468   0.010  0.00  0.00     0.120 C 
ATOM      5  C8  <0> d          -0.758   1.975  -1.229  0.00  0.00    -0.026 C 
ATOM      6  C7  <0> d          -2.193   1.445  -1.219  0.00  0.00    -0.061 C 
ATOM      7  H10 <0> d          -0.773   3.064  -1.223  0.00  0.00     0.038 H 
ATOM      8  H11 <0> d          -0.248   1.623  -2.126  0.00  0.00     0.038 H 
ATOM      9  C6  <0> d          -2.909   1.938   0.040  0.00  0.00    -0.065 C 
ATOM     10  H8  <0> d          -2.720   1.806  -2.102  0.00  0.00     0.033 H 
ATOM     11  H9  <0> d          -2.179   0.355  -1.224  0.00  0.00     0.033 H 
ATOM     12  C5  <0> d          -2.169   1.432   1.280  0.00  0.00    -0.061 C 
ATOM     13  H6  <0> d          -2.924   3.028   0.046  0.00  0.00     0.033 H 
ATOM     14  H7  <0> d          -3.932   1.561   0.048  0.00  0.00     0.033 H 
ATOM     15  C4  <0> d          -0.734   1.961   1.269  0.00  0.00    -0.026 C 
ATOM     16  H4  <0> d          -2.680   1.783   2.177  0.00  0.00     0.033 H 
ATOM     17  H5  <0> d          -2.155   0.342   1.274  0.00  0.00     0.033 H 
ATOM     18  H2  <0> d          -0.207   1.600   2.152  0.00  0.00     0.038 H 
ATOM     19  H3  <0> d          -0.749   3.051   1.275  0.00  0.00     0.038 H 
BRANCH   4  20
ATOM     20  O1  <0> d           1.323   1.962  -0.000  0.00  0.00    -0.378 OA
ATOM     21  H12 <0> d           1.852   1.680   0.758  0.00  0.00     0.211 HD
ENDBRANCH   4  20
ENDBRANCH   2   4
TORSDOF 2
