REMARK  1 active torsions:
REMARK  status: ('A' for Active; 'I' for Inactive)
REMARK    1  A    between atoms: C6_8  and  C8_10 
ROOT
ATOM      1  C1  <0> d          -0.018   1.491   0.010  0.00  0.00    -0.061 C 
ATOM      2  C2  <0> d           1.533   1.264  -0.006  0.00  0.00    -0.061 C 
ATOM      3  C3  <0> d           1.146   0.273  -1.060  0.00  0.00    -0.050 C 
ATOM      4  H1  <0> d           0.779   0.729  -1.980  0.00  0.00     0.040 H 
ATOM      5  C4  <0> d           0.002  -0.004   0.002  0.00  0.00    -0.050 C 
ATOM      6  H2  <0> d           0.415  -0.431   0.916  0.00  0.00     0.040 H 
ATOM      7  C5  <0> d          -0.821  -1.004  -0.768  0.00  0.00    -0.049 C 
ATOM      8  C6  <0> d           0.235  -1.886  -1.497  0.00  0.00     0.031 C 
ATOM      9  C7  <0> d           1.580  -1.168  -1.242  0.00  0.00    -0.049 C 
ATOM     10  H3  <0> d          -0.403   1.935   0.928  0.00  0.00     0.033 H 
ATOM     11  H4  <0> d          -0.420   1.944  -0.896  0.00  0.00     0.033 H 
ATOM     12  H5  <0> d           2.111   2.113  -0.371  0.00  0.00     0.033 H 
ATOM     13  H6  <0> d           1.936   0.822   0.905  0.00  0.00     0.033 H 
ATOM     14  H7  <0> d          -1.420  -1.609  -0.088  0.00  0.00     0.034 H 
ATOM     15  H8  <0> d          -1.459  -0.496  -1.492  0.00  0.00     0.034 H 
ATOM     16  H9  <0> d           0.017  -1.937  -2.564  0.00  0.00     0.056 H 
ATOM     17  H10 <0> d           2.241  -1.272  -2.102  0.00  0.00     0.034 H 
ATOM     18  H11 <0> d           2.055  -1.550  -0.338  0.00  0.00     0.034 H 
ENDROOT
BRANCH   8  19
ATOM     19  C8  <0> d           0.265  -3.270  -0.900  0.00  0.00     0.177 C 
ATOM     20  O1  <0> d           0.383  -4.244  -1.624  0.00  0.00    -0.648 OA
ATOM     21  O2  <0> d           0.171  -3.415   0.307  0.00  0.00    -0.648 OA
ENDBRANCH   8  19
TORSDOF 1
