REMARK  4 active torsions:
REMARK  status: ('A' for Active; 'I' for Inactive)
REMARK    1  A    between atoms: C1_1  and  C2_2 
REMARK    2  A    between atoms: C2_2  and  C3_3 
REMARK    3  A    between atoms: C3_3  and  C4_4 
REMARK    4  A    between atoms: C7_9  and  O3_11 
ROOT
ATOM      1  C4  <0> d           0.762  -2.018   1.233  0.00  0.00    -0.020 A 
ATOM      2  C5  <0> d           1.740  -2.796   0.773  0.00  0.00    -0.003 A 
ATOM      3  C6  <0> d           1.359  -4.200   0.955  0.00  0.00     0.285 A 
ATOM      4  O1  <0> d           2.039  -5.155   0.636  0.00  0.00    -0.260 OA
ATOM      5  O2  <0> d           0.144  -4.271   1.528  0.00  0.00    -0.282 OA
ATOM      6  C7  <0> d          -0.320  -2.936   1.751  0.00  0.00     0.160 A 
ATOM      7  H1  <0> d          -0.477  -2.765   2.816  0.00  0.00     0.137 H 
ATOM      8  H9  <0> d           2.665  -2.448   0.337  0.00  0.00     0.093 H 
ENDROOT
BRANCH   1   9
ATOM      9  C3  <0> d           0.742  -0.511   1.242  0.00  0.00    -0.040 C 
ATOM     10  H7  <0> d           1.765  -0.134   1.234  0.00  0.00     0.039 H 
ATOM     11  H8  <0> d           0.232  -0.159   2.138  0.00  0.00     0.039 H 
BRANCH   9  12
ATOM     12  C2  <0> d           0.002  -0.004   0.002  0.00  0.00    -0.065 C 
ATOM     13  H5  <0> d          -1.020  -0.381   0.010  0.00  0.00     0.032 H 
ATOM     14  H6  <0> d           0.512  -0.356  -0.895  0.00  0.00     0.032 H 
BRANCH  12  15
ATOM     15  C1  <0> d          -0.019   1.526   0.010  0.00  0.00    -0.076 C 
ATOM     16  H2  <0> d           1.004   1.903   0.003  0.00  0.00     0.027 H 
ATOM     17  H3  <0> d          -0.546   1.887  -0.873  0.00  0.00     0.027 H 
ATOM     18  H4  <0> d          -0.529   1.877   0.907  0.00  0.00     0.027 H 
ENDBRANCH  12  15
ENDBRANCH   9  12
ENDBRANCH   1   9
BRANCH   6  19
ATOM     19  O3  <0> d          -1.535  -2.715   1.033  0.00  0.00    -0.367 OA
ATOM     20  H10 <0> d          -2.269  -3.276   1.321  0.00  0.00     0.213 HD
ENDBRANCH   6  19
TORSDOF 4
