REMARK  4 active torsions:
REMARK  status: ('A' for Active; 'I' for Inactive)
REMARK    1  A    between atoms: C1_1  and  C2_2 
REMARK    2  A    between atoms: C2_2  and  C3_4 
REMARK    3  A    between atoms: C2_2  and  C9_10 
REMARK    4  A    between atoms: C3_4  and  C4_5 
ROOT
ATOM      1  C4  <0> d           2.210  -0.086   1.169  0.00  0.00    -0.053 C 
ATOM      2  C5  <0> d           2.920  -0.833   0.020  0.00  0.00    -0.062 C 
ATOM      3  C6  <0> d           4.338  -1.118   0.573  0.00  0.00    -0.065 C 
ATOM      4  C7  <0> d           4.065  -1.452   2.060  0.00  0.00    -0.065 C 
ATOM      5  C8  <0> d           2.938  -0.480   2.466  0.00  0.00    -0.062 C 
ATOM      6  H7  <0> d           2.279   0.991   1.014  0.00  0.00     0.040 H 
ATOM      7  H8  <0> d           2.403  -1.766  -0.205  0.00  0.00     0.033 H 
ATOM      8  H9  <0> d           2.976  -0.203  -0.867  0.00  0.00     0.033 H 
ATOM      9  H10 <0> d           4.788  -1.970   0.062  0.00  0.00     0.033 H 
ATOM     10  H11 <0> d           4.972  -0.236   0.485  0.00  0.00     0.033 H 
ATOM     11  H12 <0> d           3.733  -2.485   2.165  0.00  0.00     0.033 H 
ATOM     12  H13 <0> d           4.957  -1.275   2.662  0.00  0.00     0.033 H 
ATOM     13  H14 <0> d           3.361   0.406   2.940  0.00  0.00     0.033 H 
ATOM     14  H15 <0> d           2.246  -0.974   3.147  0.00  0.00     0.033 H 
ENDROOT
BRANCH   1  15
ATOM     15  C3  <0> d           0.742  -0.511   1.242  0.00  0.00    -0.050 C 
ATOM     16  H5  <0> d           0.285  -0.087   2.136  0.00  0.00     0.034 H 
ATOM     17  H6  <0> d           0.680  -1.598   1.282  0.00  0.00     0.034 H 
BRANCH  15  18
ATOM     18  C2  <0> d           0.002  -0.004   0.002  0.00  0.00     0.027 C 
ATOM     19  H1  <0> d           0.512  -0.356  -0.895  0.00  0.00     0.056 H 
BRANCH  18  20
ATOM     20  C1  <0> d          -0.019   1.526   0.010  0.00  0.00    -0.064 C 
ATOM     21  H2  <0> d           1.004   1.903   0.003  0.00  0.00     0.028 H 
ATOM     22  H3  <0> d          -0.546   1.887  -0.873  0.00  0.00     0.028 H 
ATOM     23  H4  <0> d          -0.529   1.877   0.907  0.00  0.00     0.028 H 
ENDBRANCH  18  20
BRANCH  18  24
ATOM     24  C9  <0> d          -1.412  -0.526   0.013  0.00  0.00     0.176 C 
ATOM     25  O1  <0> d          -1.710  -1.492  -0.668  0.00  0.00    -0.648 OA
ATOM     26  O2  <0> d          -2.257   0.018   0.703  0.00  0.00    -0.648 OA
ENDBRANCH  18  24
ENDBRANCH  15  18
ENDBRANCH   1  15
TORSDOF 4
