REMARK  7 active torsions:
REMARK  status: ('A' for Active; 'I' for Inactive)
REMARK    1  A    between atoms: C1_1  and  C2_2 
REMARK    2  A    between atoms: C2_2  and  O1_3 
REMARK    3  A    between atoms: O1_3  and  C3_4 
REMARK    4  A    between atoms: C3_4  and  C4_6 
REMARK    5  A    between atoms: C4_6  and  C5_8 
REMARK    6  A    between atoms: C4_6  and  O3_11 
REMARK    7  A    between atoms: C6_9  and  C7_10 
ROOT
ATOM      1  C4  <0> d          -0.013   1.086   0.008  0.00  0.00     0.135 C 
ATOM      2  H1  <0> d           0.002  -0.004   0.002  0.00  0.00     0.105 H 
ENDROOT
BRANCH   1   3
ATOM      3  C3  <0> d           1.401   1.607  -0.003  0.00  0.00     0.291 C 
ATOM      4  O2  <0> d           1.752   2.384  -0.859  0.00  0.00    -0.262 OA
BRANCH   3   5
ATOM      5  O1  <0> d           2.271   1.209   0.939  0.00  0.00    -0.320 OA
BRANCH   5   6
ATOM      6  C2  <0> d           3.615   1.752   0.867  0.00  0.00     0.026 C 
ATOM      7  H5  <0> d           4.068   1.476  -0.085  0.00  0.00     0.074 H 
ATOM      8  H6  <0> d           3.573   2.838   0.948  0.00  0.00     0.074 H 
BRANCH   6   9
ATOM      9  C1  <0> d           4.456   1.188   2.014  0.00  0.00    -0.056 C 
ATOM     10  H2  <0> d           4.003   1.464   2.966  0.00  0.00     0.030 H 
ATOM     11  H3  <0> d           4.498   0.101   1.933  0.00  0.00     0.030 H 
ATOM     12  H4  <0> d           5.465   1.595   1.960  0.00  0.00     0.030 H 
ENDBRANCH   6   9
ENDBRANCH   5   6
ENDBRANCH   3   5
ENDBRANCH   1   3
BRANCH   1  13
ATOM     13  C5  <0> d          -0.718   1.572   1.248  0.00  0.00    -0.070 C 
ATOM     14  C6  <0> d          -1.847   2.228   1.145  0.00  0.00    -0.107 C 
ATOM     15  H8  <0> d          -2.273   2.420   0.171  0.00  0.00     0.075 H 
ATOM     16  H7  <0> d          -0.292   1.379   2.222  0.00  0.00     0.081 H 
BRANCH  14  17
ATOM     17  C7  <0> d          -2.553   2.713   2.384  0.00  0.00    -0.060 C 
ATOM     18  H9  <0> d          -2.800   1.863   3.019  0.00  0.00     0.032 H 
ATOM     19  H10 <0> d          -1.901   3.396   2.929  0.00  0.00     0.032 H 
ATOM     20  H11 <0> d          -3.468   3.233   2.102  0.00  0.00     0.032 H 
ENDBRANCH  14  17
ENDBRANCH   1  13
BRANCH   1  21
ATOM     21  O3  <0> d          -0.704   1.559  -1.150  0.00  0.00    -0.382 OA
ATOM     22  H12 <0> d          -0.756   2.523  -1.210  0.00  0.00     0.211 HD
ENDBRANCH   1  21
TORSDOF 7
