REMARK  6 active torsions:
REMARK  status: ('A' for Active; 'I' for Inactive)
REMARK    1  A    between atoms: C1_1  and  C2_2 
REMARK    2  A    between atoms: C4_6  and  C5_8 
REMARK    3  A    between atoms: C4_6  and  C6_9 
REMARK    4  A    between atoms: C6_9  and  C7_10 
REMARK    5  A    between atoms: C6_9  and  C8_11 
REMARK    6  A    between atoms: C6_9  and  C9_12 
ROOT
ATOM      1  C2  <0> d          -0.919   1.620   1.089  0.00  0.00     0.059 C 
ATOM      2  H1  <0> d          -0.965   2.709   1.092  0.00  0.00     0.086 H 
ATOM      3  C3  <0> d          -0.118   1.115   2.306  0.00  0.00     0.047 C 
ATOM      4  O1  <0> d          -1.050   0.310   3.058  0.00  0.00    -0.352 OA
ATOM      5  C4  <0> d          -2.039  -0.102   2.089  0.00  0.00     0.167 C 
ATOM      6  O2  <0> d          -2.238   1.059   1.254  0.00  0.00    -0.348 OA
ATOM      7  H5  <0> d           0.727   0.509   1.978  0.00  0.00     0.078 H 
ATOM      8  H6  <0> d           0.230   1.955   2.906  0.00  0.00     0.078 H 
ENDROOT
BRANCH   5   9
ATOM      9  C5  <0> d          -1.516  -1.275   1.259  0.00  0.00    -0.025 C 
ATOM     10  H7  <0> d          -1.500  -2.176   1.872  0.00  0.00     0.035 H 
ATOM     11  H8  <0> d          -2.167  -1.432   0.399  0.00  0.00     0.035 H 
ATOM     12  H9  <0> d          -0.506  -1.054   0.913  0.00  0.00     0.035 H 
ENDBRANCH   5   9
BRANCH   5  13
ATOM     13  C6  <0> d          -3.344  -0.485   2.789  0.00  0.00     0.005 C 
BRANCH  13  14
ATOM     14  C7  <0> d          -3.860   0.708   3.595  0.00  0.00    -0.065 C 
ATOM     15  H10 <0> d          -4.041   1.548   2.925  0.00  0.00     0.028 H 
ATOM     16  H11 <0> d          -4.790   0.435   4.094  0.00  0.00     0.028 H 
ATOM     17  H12 <0> d          -3.118   0.992   4.341  0.00  0.00     0.028 H 
ENDBRANCH  13  14
BRANCH  13  18
ATOM     18  C8  <0> d          -4.387  -0.883   1.743  0.00  0.00    -0.065 C 
ATOM     19  H13 <0> d          -4.019  -1.734   1.169  0.00  0.00     0.028 H 
ATOM     20  H14 <0> d          -5.316  -1.157   2.242  0.00  0.00     0.028 H 
ATOM     21  H15 <0> d          -4.567  -0.043   1.072  0.00  0.00     0.028 H 
ENDBRANCH  13  18
BRANCH  13  22
ATOM     22  C9  <0> d          -3.090  -1.665   3.731  0.00  0.00    -0.065 C 
ATOM     23  H16 <0> d          -2.348  -1.381   4.476  0.00  0.00     0.028 H 
ATOM     24  H17 <0> d          -4.020  -1.938   4.229  0.00  0.00     0.028 H 
ATOM     25  H18 <0> d          -2.722  -2.515   3.156  0.00  0.00     0.028 H 
ENDBRANCH  13  22
ENDBRANCH   5  13
BRANCH   1  26
ATOM     26  C1  <0> d          -0.286   1.118  -0.210  0.00  0.00    -0.050 C 
ATOM     27  H2  <0> d          -0.194   0.033  -0.174  0.00  0.00     0.031 H 
ATOM     28  H3  <0> d           0.702   1.563  -0.329  0.00  0.00     0.031 H 
ATOM     29  H4  <0> d          -0.916   1.401  -1.054  0.00  0.00     0.031 H 
ENDBRANCH   1  26
TORSDOF 6
