REMARK  6 active torsions:
REMARK  status: ('A' for Active; 'I' for Inactive)
REMARK    1  A    between atoms: C1_1  and  C2_2 
REMARK    2  A    between atoms: C2_2  and  C4_4 
REMARK    3  A    between atoms: C4_4  and  C5_5 
REMARK    4  A    between atoms: C5_5  and  C6_7 
REMARK    5  A    between atoms: C5_5  and  O1_10 
REMARK    6  A    between atoms: C6_7  and  C8_9 
ROOT
ATOM      1  C5  <0> d          -2.946   0.783   1.457  0.00  0.00     0.059 C 
ATOM      2  H1  <0> d          -3.024   1.764   1.927  0.00  0.00     0.090 H 
ENDROOT
BRANCH   1   3
ATOM      3  C4  <0> d          -2.451   0.944   0.019  0.00  0.00    -0.018 C 
ATOM      4  H7  <0> d          -3.196   1.485  -0.564  0.00  0.00     0.043 H 
ATOM      5  H8  <0> d          -2.288  -0.040  -0.422  0.00  0.00     0.043 H 
BRANCH   3   6
ATOM      6  C2  <0> d          -1.156   1.715   0.017  0.00  0.00    -0.090 C 
ATOM      7  C3  <0> d          -0.013   1.076   0.008  0.00  0.00    -0.119 C 
ATOM      8  H5  <0> d           0.002  -0.004   0.002  0.00  0.00     0.067 H 
ATOM      9  H6  <0> d           0.915   1.629   0.002  0.00  0.00     0.067 H 
BRANCH   6  10
ATOM     10  C1  <0> d          -1.176   3.222   0.025  0.00  0.00    -0.055 C 
ATOM     11  H2  <0> d          -0.154   3.599   0.022  0.00  0.00     0.033 H 
ATOM     12  H3  <0> d          -1.699   3.583  -0.860  0.00  0.00     0.033 H 
ATOM     13  H4  <0> d          -1.691   3.574   0.919  0.00  0.00     0.033 H 
ENDBRANCH   6  10
ENDBRANCH   3   6
ENDBRANCH   1   3
BRANCH   1  14
ATOM     14  C6  <0> d          -4.300   0.121   1.451  0.00  0.00    -0.065 C 
ATOM     15  C7  <0> d          -5.352   0.777   1.875  0.00  0.00    -0.117 C 
ATOM     16  H9  <0> d          -5.249   1.792   2.229  0.00  0.00     0.067 H 
ATOM     17  H10 <0> d          -6.322   0.302   1.871  0.00  0.00     0.067 H 
BRANCH  14  18
ATOM     18  C8  <0> d          -4.443  -1.296   0.958  0.00  0.00    -0.053 C 
ATOM     19  H11 <0> d          -4.312  -1.986   1.791  0.00  0.00     0.033 H 
ATOM     20  H12 <0> d          -5.435  -1.431   0.526  0.00  0.00     0.033 H 
ATOM     21  H13 <0> d          -3.687  -1.494   0.198  0.00  0.00     0.033 H 
ENDBRANCH  14  18
ENDBRANCH   1  14
BRANCH   1  22
ATOM     22  O1  <0> d          -2.024  -0.024   2.192  0.00  0.00    -0.391 OA
ATOM     23  H14 <0> d          -1.905  -0.913   1.830  0.00  0.00     0.210 HD
ENDBRANCH   1  22
TORSDOF 6
