REMARK  7 active torsions:
REMARK  status: ('A' for Active; 'I' for Inactive)
REMARK    1  A    between atoms: C1_1  and  C2_2 
REMARK    2  A    between atoms: C2_2  and  C3_3 
REMARK    3  A    between atoms: C2_2  and  C4_4 
REMARK    4  A    between atoms: C2_2  and  O1_5 
REMARK    5  A    between atoms: O1_5  and  C5_6 
REMARK    6  A    between atoms: C5_6  and  C6_7 
REMARK    7  A    between atoms: C6_7  and  C7_8 
ROOT
ATOM      1  C2  <0> d          -4.870   0.772   0.029  0.00  0.00     0.050 C 
ENDROOT
BRANCH   1   2
ATOM      2  C1  <0> d          -4.841  -0.118   1.274  0.00  0.00    -0.048 C 
ATOM      3  H1  <0> d          -4.854   0.506   2.167  0.00  0.00     0.031 H 
ATOM      4  H2  <0> d          -5.714  -0.771   1.274  0.00  0.00     0.031 H 
ATOM      5  H3  <0> d          -3.935  -0.724   1.266  0.00  0.00     0.031 H 
ENDBRANCH   1   2
BRANCH   1   6
ATOM      6  C3  <0> d          -6.143   1.622   0.040  0.00  0.00    -0.048 C 
ATOM      7  H4  <0> d          -6.163   2.256  -0.847  0.00  0.00     0.031 H 
ATOM      8  H5  <0> d          -7.016   0.969   0.041  0.00  0.00     0.031 H 
ATOM      9  H6  <0> d          -6.155   2.246   0.933  0.00  0.00     0.031 H 
ENDBRANCH   1   6
BRANCH   1  10
ATOM     10  C4  <0> d          -4.853  -0.104  -1.225  0.00  0.00    -0.048 C 
ATOM     11  H7  <0> d          -3.947  -0.710  -1.232  0.00  0.00     0.031 H 
ATOM     12  H8  <0> d          -5.726  -0.757  -1.224  0.00  0.00     0.031 H 
ATOM     13  H9  <0> d          -4.874   0.529  -2.111  0.00  0.00     0.031 H 
ENDBRANCH   1  10
BRANCH   1  14
ATOM     14  O1  <0> d          -3.726   1.627   0.029  0.00  0.00    -0.381 OA
BRANCH  14  15
ATOM     15  C5  <0> d          -2.479   0.930   0.019  0.00  0.00     0.029 C 
ATOM     16  H10 <0> d          -2.417   0.309  -0.875  0.00  0.00     0.075 H 
ATOM     17  H11 <0> d          -2.408   0.299   0.905  0.00  0.00     0.075 H 
BRANCH  15  18
ATOM     18  C6  <0> d          -1.329   1.940   0.019  0.00  0.00     0.035 C 
ATOM     19  H12 <0> d          -1.391   2.561   0.913  0.00  0.00     0.052 H 
ATOM     20  H13 <0> d          -1.400   2.570  -0.867  0.00  0.00     0.052 H 
BRANCH  18  21
ATOM     21  C7  <0> d          -0.014   1.204   0.009  0.00  0.00     0.174 C 
ATOM     22  O2  <0> d           0.002  -0.004   0.002  0.00  0.00    -0.648 OA
ATOM     23  O3  <0> d           1.139   1.891   0.001  0.00  0.00    -0.648 OA
ENDBRANCH  18  21
ENDBRANCH  15  18
ENDBRANCH  14  15
ENDBRANCH   1  14
TORSDOF 7
