REMARK  2 active torsions:
REMARK  status: ('A' for Active; 'I' for Inactive)
REMARK    1  A    between atoms: C1_1  and  O1_2 
REMARK    2  A    between atoms: O1_2  and  C2_3 
ROOT
ATOM      1  C2  <0> d          -0.670   3.237   0.026  0.00  0.00     0.068 A 
ATOM      2  C3  <0> d           0.669   3.135   0.013  0.00  0.00     0.012 A 
ATOM      3  C4  <0> d           1.061   1.779   0.002  0.00  0.00     0.243 A 
ATOM      4  O2  <0> d           2.216   1.396  -0.012  0.00  0.00    -0.269 OA
ATOM      5  N1  <0> d          -0.011   0.966   0.007  0.00  0.00    -0.351 N 
ATOM      6  C5  <0> d          -1.206   1.822   0.017  0.00  0.00     0.039 A 
ATOM      7  H4  <0> d           1.351   3.973   0.011  0.00  0.00     0.096 H 
ATOM      8  H5  <0> d           0.002  -0.004   0.002  0.00  0.00     0.163 HD
ATOM      9  H6  <0> d          -1.805   1.647  -0.877  0.00  0.00     0.074 H 
ATOM     10  H7  <0> d          -1.798   1.638   0.913  0.00  0.00     0.074 H 
ENDROOT
BRANCH   1  11
ATOM     11  O1  <0> d          -1.393   4.375   0.039  0.00  0.00    -0.358 OA
BRANCH  11  12
ATOM     12  C1  <0> d          -0.655   5.626   0.038  0.00  0.00     0.010 C 
ATOM     13  H1  <0> d          -0.019   5.673   0.922  0.00  0.00     0.066 H 
ATOM     14  H2  <0> d          -0.037   5.682  -0.858  0.00  0.00     0.066 H 
ATOM     15  H3  <0> d          -1.355   6.461   0.049  0.00  0.00     0.066 H 
ENDBRANCH  11  12
ENDBRANCH   1  11
TORSDOF 2
