REMARK  2 active torsions:
REMARK  status: ('A' for Active; 'I' for Inactive)
REMARK    1  A    between atoms: C1_1  and  N1_2 
REMARK    2  A    between atoms: N1_2  and  C2_3 
REMARK       I    between atoms: N1_2  and  C8_9 
REMARK       I    between atoms: C8_9  and  N2_11 
ROOT
ATOM      1  C2  <0> d          -0.044   3.842   0.019  0.00  0.00     0.038 A 
ATOM      2  C3  <0> d           1.170   3.169  -0.004  0.00  0.00    -0.057 A 
ATOM      3  C4  <0> d           1.192   1.788  -0.013  0.00  0.00    -0.081 A 
ATOM      4  C5  <0> d           0.006   1.076  -0.001  0.00  0.00    -0.083 A 
ATOM      5  C6  <0> d          -1.205   1.744   0.016  0.00  0.00    -0.081 A 
ATOM      6  C7  <0> d          -1.233   3.125   0.032  0.00  0.00    -0.057 A 
ATOM      7  H4  <0> d           2.096   3.724  -0.013  0.00  0.00     0.086 H 
ATOM      8  H5  <0> d           2.135   1.263  -0.030  0.00  0.00     0.083 H 
ATOM      9  H6  <0> d           0.025  -0.004  -0.009  0.00  0.00     0.083 H 
ATOM     10  H7  <0> d          -2.129   1.186   0.021  0.00  0.00     0.083 H 
ATOM     11  H8  <0> d          -2.179   3.646   0.049  0.00  0.00     0.086 H 
ENDROOT
BRANCH   1  12
ATOM     12  N1  <0> d          -0.069   5.242   0.028  0.00  0.00    -0.305 N 
ATOM     13  C8  <0> d          -0.582   5.913  -1.022  0.00  0.00     0.320 C 
ATOM     14  O1  <0> d          -1.110   5.306  -1.933  0.00  0.00    -0.247 OA
ATOM     15  N2  <0> d          -0.509   7.259  -1.062  0.00  0.00    -0.352 N 
ATOM     16  H9  <0> d          -0.088   7.743  -0.335  0.00  0.00     0.160 HD
ATOM     17  H10 <0> d          -0.878   7.742  -1.817  0.00  0.00     0.160 HD
BRANCH  12  18
ATOM     18  C1  <0> d           0.462   5.976   1.179  0.00  0.00    -0.009 C 
ATOM     19  H1  <0> d           1.522   6.178   1.024  0.00  0.00     0.057 H 
ATOM     20  H2  <0> d          -0.075   6.918   1.288  0.00  0.00     0.057 H 
ATOM     21  H3  <0> d           0.334   5.379   2.082  0.00  0.00     0.057 H 
ENDBRANCH  12  18
ENDBRANCH   1  12
TORSDOF 2
