REMARK  4 active torsions:
REMARK  status: ('A' for Active; 'I' for Inactive)
REMARK    1  A    between atoms: C1_1  and  C2_2 
REMARK    2  A    between atoms: C4_4  and  N3_10 
REMARK    3  A    between atoms: N2_6  and  C5_7 
REMARK    4  A    between atoms: C5_7  and  C6_8 
ROOT
ATOM      1  C2  <0> d          -3.034   0.459  -1.073  0.00  0.00     0.031 A 
ATOM      2  C3  <0> d          -3.994  -0.396  -0.653  0.00  0.00    -0.015 A 
ATOM      3  C4  <0> d          -3.983  -0.399   0.751  0.00  0.00     0.143 A 
ATOM      4  N1  <0> d          -3.043   0.424   1.152  0.00  0.00    -0.154 NA
ATOM      5  N2  <0> d          -2.430   0.973   0.019  0.00  0.00    -0.262 N 
ATOM      6  H4  <0> d          -4.654  -0.971  -1.285  0.00  0.00     0.092 H 
ENDROOT
BRANCH   5   7
ATOM      7  C5  <0> d          -1.329   1.940   0.019  0.00  0.00     0.097 C 
ATOM      8  H5  <0> d          -1.391   2.561   0.913  0.00  0.00     0.084 H 
ATOM      9  H6  <0> d          -1.400   2.570  -0.867  0.00  0.00     0.084 H 
BRANCH   7  10
ATOM     10  C6  <0> d          -0.014   1.204   0.009  0.00  0.00     0.193 C 
ATOM     11  O1  <0> d           0.002  -0.004   0.002  0.00  0.00    -0.647 OA
ATOM     12  O2  <0> d           1.139   1.891   0.001  0.00  0.00    -0.647 OA
ENDBRANCH   7  10
ENDBRANCH   5   7
BRANCH   1  13
ATOM     13  C1  <0> d          -2.697   0.779  -2.507  0.00  0.00    -0.036 C 
ATOM     14  H1  <0> d          -1.937   0.084  -2.865  0.00  0.00     0.035 H 
ATOM     15  H2  <0> d          -3.593   0.686  -3.121  0.00  0.00     0.035 H 
ATOM     16  H3  <0> d          -2.316   1.799  -2.572  0.00  0.00     0.035 H 
ENDBRANCH   1  13
BRANCH   3  17
ATOM     17  N3  <0> d          -4.828  -1.148   1.578  0.00  0.00    -0.383 N 
ATOM     18  H7  <0> d          -4.745  -1.083   2.543  0.00  0.00     0.157 HD
ATOM     19  H8  <0> d          -5.497  -1.732   1.187  0.00  0.00     0.157 HD
ENDBRANCH   3  17
TORSDOF 4
