REMARK  6 active torsions:
REMARK  status: ('A' for Active; 'I' for Inactive)
REMARK    1  A    between atoms: C1_1  and  C2_2 
REMARK    2  A    between atoms: C2_2  and  C3_4 
REMARK    3  A    between atoms: C2_2  and  O3_7 
REMARK    4  A    between atoms: O3_7  and  C4_8 
REMARK    5  A    between atoms: C4_8  and  C5_9 
REMARK    6  A    between atoms: C5_9  and  C6_10 
ROOT
ATOM      1  C4  <0> d          -0.013   1.086   0.008  0.00  0.00     0.024 C 
ATOM      2  H5  <0> d           1.019   1.466   0.000  0.00  0.00     0.074 H 
ATOM      3  H6  <0> d           0.002  -0.014   0.002  0.00  0.00     0.074 H 
ENDROOT
BRANCH   1   4
ATOM      4  O3  <0> d          -0.682   1.547   1.184  0.00  0.00    -0.375 OA
BRANCH   4   5
ATOM      5  C2  <0> d          -0.068   1.127   2.404  0.00  0.00     0.118 C 
ATOM      6  H1  <0> d           0.397   0.152   2.194  0.00  0.00     0.099 H 
BRANCH   5   7
ATOM      7  C1  <0> d           0.968   2.166   2.838  0.00  0.00    -0.043 C 
ATOM      8  H2  <0> d           1.736   2.266   2.057  0.00  0.00     0.031 H 
ATOM      9  H3  <0> d           1.440   1.842   3.777  0.00  0.00     0.031 H 
ATOM     10  H4  <0> d           0.472   3.135   2.992  0.00  0.00     0.031 H 
ENDBRANCH   5   7
BRANCH   5  11
ATOM     11  C3  <0> d          -1.120   0.989   3.474  0.00  0.00     0.202 C 
ATOM     12  O1  <0> d          -2.277   1.226   3.218  0.00  0.00    -0.646 OA
ATOM     13  O2  <0> d          -0.772   0.603   4.712  0.00  0.00    -0.646 OA
ENDBRANCH   5  11
ENDBRANCH   4   5
ENDBRANCH   1   4
BRANCH   1  14
ATOM     14  C5  <0> d          -0.753   1.593  -1.232  0.00  0.00    -0.031 C 
ATOM     15  H7  <0> d          -1.785   1.212  -1.224  0.00  0.00     0.042 H 
ATOM     16  H8  <0> d          -0.768   2.693  -1.225  0.00  0.00     0.042 H 
BRANCH  14  17
ATOM     17  C6  <0> d          -0.047   1.107  -2.471  0.00  0.00    -0.110 C 
ATOM     18  C7  <0> d          -0.708   0.432  -3.379  0.00  0.00    -0.125 C 
ATOM     19  H10 <0> d          -0.194   0.077  -4.284  0.00  0.00     0.066 H 
ATOM     20  H11 <0> d          -1.778   0.221  -3.237  0.00  0.00     0.066 H 
ATOM     21  H9  <0> d           1.023   1.318  -2.614  0.00  0.00     0.075 H 
ENDBRANCH  14  17
ENDBRANCH   1  14
TORSDOF 6
