REMARK  0 active torsions:
REMARK  status: ('A' for Active; 'I' for Inactive)
ROOT
ATOM      1  C1  <0> d           1.108   3.458   0.010  0.00  0.00     0.042 A 
ATOM      2  C2  <0> d           1.168   2.076   0.002  0.00  0.00     0.175 A 
ATOM      3  C3  <0> d          -0.016   1.347   0.009  0.00  0.00     0.196 A 
ATOM      4  C4  <0> d          -1.220   2.043   0.019  0.00  0.00     0.175 A 
ATOM      5  C5  <0> d          -1.197   3.426   0.031  0.00  0.00     0.042 A 
ATOM      6  N1  <0> d          -0.053   4.083   0.024  0.00  0.00    -0.267 NA
ATOM      7  F1  <0> d          -2.396   1.378   0.021  0.00  0.00    -0.201 F 
ATOM      8  F2  <0> d           0.002  -0.004   0.002  0.00  0.00    -0.199 F 
ATOM      9  F3  <0> d           2.361   1.442  -0.012  0.00  0.00    -0.201 F 
ATOM     10  H1  <0> d           2.023   4.032   0.004  0.00  0.00     0.119 H 
ATOM     11  H2  <0> d          -2.127   3.975   0.043  0.00  0.00     0.119 H 
ENDROOT
TORSDOF 0
