REMARK  3 active torsions:
REMARK  status: ('A' for Active; 'I' for Inactive)
REMARK    1  A    between atoms: C3_4  and  C8_10 
REMARK    2  A    between atoms: C4_6  and  C5_7 
REMARK    3  A    between atoms: C8_10  and  O1_11 
ROOT
ATOM      1  C1  <0> d          -0.017   1.382   0.010  0.00  0.00    -0.042 A 
ATOM      2  C2  <0> d           1.194   2.057   0.002  0.00  0.00     0.006 A 
ATOM      3  N1  <0> d           2.319   1.362  -0.013  0.00  0.00    -0.243 NA
ATOM      4  C3  <0> d           2.298   0.044  -0.020  0.00  0.00     0.149 A 
ATOM      5  N2  <0> d           1.167  -0.632  -0.013  0.00  0.00    -0.235 NA
ATOM      6  C4  <0> d           0.002  -0.004   0.002  0.00  0.00     0.042 A 
ATOM      7  H1  <0> d          -0.952   1.922   0.026  0.00  0.00     0.088 H 
ATOM      8  H2  <0> d           1.218   3.137   0.007  0.00  0.00     0.114 H 
ENDROOT
BRANCH   6   9
ATOM      9  C5  <0> d          -1.287  -0.785   0.011  0.00  0.00    -0.012 A 
ATOM     10  C7  <0> d          -1.965  -1.043  -1.336  0.00  0.00    -0.056 A 
ATOM     11  C6  <0> d          -2.569  -0.036  -0.355  0.00  0.00    -0.056 A 
ATOM     12  H6  <0> d          -1.480  -0.648  -2.228  0.00  0.00     0.034 H 
ATOM     13  H7  <0> d          -2.484  -1.993  -1.465  0.00  0.00     0.034 H 
ATOM     14  H4  <0> d          -3.485  -0.324   0.161  0.00  0.00     0.034 H 
ATOM     15  H5  <0> d          -2.481   1.022  -0.602  0.00  0.00     0.034 H 
ATOM     16  H3  <0> d          -1.358  -1.566   0.768  0.00  0.00     0.049 H 
ENDBRANCH   6   9
BRANCH   4  17
ATOM     17  C8  <0> d           3.603  -0.710  -0.037  0.00  0.00     0.073 C 
ATOM     18  H8  <0> d           3.467  -1.660  -0.554  0.00  0.00     0.086 H 
ATOM     19  H9  <0> d           4.358  -0.119  -0.555  0.00  0.00     0.086 H 
BRANCH  17  20
ATOM     20  O1  <0> d           4.029  -0.956   1.305  0.00  0.00    -0.393 OA
ATOM     21  H10 <0> d           4.864  -1.438   1.371  0.00  0.00     0.209 HD
ENDBRANCH  17  20
ENDBRANCH   4  17
TORSDOF 3
