REMARK  9 active torsions:
REMARK  status: ('A' for Active; 'I' for Inactive)
REMARK    1  A    between atoms: C1_1  and  C2_2 
REMARK    2  A    between atoms: C2_2  and  C3_3 
REMARK    3  A    between atoms: C3_3  and  C4_4 
REMARK    4  A    between atoms: C4_4  and  O1_5 
REMARK    5  A    between atoms: O1_5  and  C5_6 
REMARK    6  A    between atoms: C5_6  and  C6_7 
REMARK    7  A    between atoms: C6_7  and  C7_9 
REMARK    8  A    between atoms: C6_7  and  O2_11 
REMARK    9  A    between atoms: C7_9  and  C8_10 
ROOT
ATOM      1  O1  <0> d          -4.140   0.846   2.654  0.00  0.00    -0.389 OA
ENDROOT
BRANCH   1   2
ATOM      2  C4  <0> d          -4.862   1.147   3.850  0.00  0.00     0.020 C 
ATOM      3  H9  <0> d          -4.303   0.785   4.713  0.00  0.00     0.074 H 
ATOM      4  H10 <0> d          -4.996   2.226   3.931  0.00  0.00     0.074 H 
BRANCH   2   5
ATOM      5  C3  <0> d          -6.230   0.465   3.806  0.00  0.00    -0.045 C 
ATOM      6  H7  <0> d          -6.789   0.827   2.943  0.00  0.00     0.036 H 
ATOM      7  H8  <0> d          -6.096  -0.614   3.725  0.00  0.00     0.036 H 
BRANCH   5   8
ATOM      8  C2  <0> d          -7.003   0.788   5.087  0.00  0.00    -0.067 C 
ATOM      9  H5  <0> d          -6.444   0.426   5.949  0.00  0.00     0.032 H 
ATOM     10  H6  <0> d          -7.137   1.867   5.168  0.00  0.00     0.032 H 
BRANCH   8  11
ATOM     11  C1  <0> d          -8.371   0.106   5.043  0.00  0.00    -0.076 C 
ATOM     12  H2  <0> d          -8.922   0.336   5.955  0.00  0.00     0.027 H 
ATOM     13  H3  <0> d          -8.930   0.468   4.180  0.00  0.00     0.027 H 
ATOM     14  H4  <0> d          -8.237  -0.973   4.962  0.00  0.00     0.027 H 
ENDBRANCH   8  11
ENDBRANCH   5   8
ENDBRANCH   2   5
ENDBRANCH   1   2
BRANCH   1  15
ATOM     15  C5  <0> d          -2.841   1.438   2.594  0.00  0.00     0.043 C 
ATOM     16  H11 <0> d          -2.240   1.082   3.430  0.00  0.00     0.078 H 
ATOM     17  H12 <0> d          -2.934   2.523   2.648  0.00  0.00     0.078 H 
BRANCH  15  18
ATOM     18  C6  <0> d          -2.164   1.050   1.278  0.00  0.00     0.056 C 
ATOM     19  H1  <0> d          -2.152  -0.036   1.182  0.00  0.00     0.086 H 
BRANCH  18  20
ATOM     20  C7  <0> d          -0.729   1.579   1.267  0.00  0.00    -0.043 C 
ATOM     21  H13 <0> d          -0.202   1.218   2.150  0.00  0.00     0.036 H 
ATOM     22  H14 <0> d          -0.744   2.669   1.273  0.00  0.00     0.036 H 
BRANCH  20  23
ATOM     23  C8  <0> d          -0.013   1.086   0.008  0.00  0.00    -0.074 C 
ATOM     24  H15 <0> d           0.002  -0.004   0.002  0.00  0.00     0.027 H 
ATOM     25  H16 <0> d           1.010   1.463   0.000  0.00  0.00     0.027 H 
ATOM     26  H17 <0> d          -0.540   1.447  -0.875  0.00  0.00     0.027 H 
ENDBRANCH  20  23
ENDBRANCH  18  20
BRANCH  18  27
ATOM     27  O2  <0> d          -2.889   1.616   0.184  0.00  0.00    -0.393 OA
ATOM     28  H18 <0> d          -2.941   2.581   0.204  0.00  0.00     0.210 HD
ENDBRANCH  18  27
ENDBRANCH  15  18
ENDBRANCH   1  15
TORSDOF 9
