REMARK  9 active torsions:
REMARK  status: ('A' for Active; 'I' for Inactive)
REMARK    1  A    between atoms: C1_1  and  C2_2 
REMARK    2  A    between atoms: C2_2  and  C3_4 
REMARK    3  A    between atoms: C2_2  and  C9_10 
REMARK    4  A    between atoms: C3_4  and  C4_5 
REMARK    5  A    between atoms: C4_5  and  C5_6 
REMARK    6  A    between atoms: C6_7  and  C7_8 
REMARK    7  A    between atoms: C6_7  and  C8_9 
REMARK    8  A    between atoms: C9_10  and  C10_11 
REMARK    9  A    between atoms: C10_11  and  O1_12 
ROOT
ATOM      1  C3  <0> d           0.669  -0.433   1.386  0.00  0.00    -0.059 C 
ATOM      2  H5  <0> d           0.318   0.116   2.259  0.00  0.00     0.034 H 
ATOM      3  H6  <0> d           0.520  -1.501   1.544  0.00  0.00     0.034 H 
ENDROOT
BRANCH   1   4
ATOM      4  C2  <0> d          -0.115   0.015   0.151  0.00  0.00    -0.056 C 
ATOM      5  H1  <0> d           0.295  -0.469  -0.736  0.00  0.00     0.039 H 
BRANCH   4   6
ATOM      6  C1  <0> d          -0.006   1.533   0.001  0.00  0.00    -0.073 C 
ATOM      7  H2  <0> d           1.041   1.813  -0.113  0.00  0.00     0.028 H 
ATOM      8  H3  <0> d          -0.566   1.852  -0.879  0.00  0.00     0.028 H 
ATOM      9  H4  <0> d          -0.417   2.017   0.887  0.00  0.00     0.028 H 
ENDBRANCH   4   6
BRANCH   4  10
ATOM     10  C9  <0> d          -1.585  -0.378   0.311  0.00  0.00    -0.042 C 
ATOM     11  H16 <0> d          -1.656  -1.448   0.507  0.00  0.00     0.036 H 
ATOM     12  H17 <0> d          -2.020   0.173   1.145  0.00  0.00     0.036 H 
BRANCH  10  13
ATOM     13  C10 <0> d          -2.345  -0.043  -0.974  0.00  0.00     0.017 C 
ATOM     14  H18 <0> d          -2.274   1.027  -1.170  0.00  0.00     0.073 H 
ATOM     15  H19 <0> d          -1.911  -0.594  -1.808  0.00  0.00     0.073 H 
BRANCH  13  16
ATOM     16  O1  <0> d          -3.719  -0.410  -0.825  0.00  0.00    -0.401 OA
ATOM     17  H20 <0> d          -4.262  -0.225  -1.603  0.00  0.00     0.209 HD
ENDBRANCH  13  16
ENDBRANCH  10  13
ENDBRANCH   4  10
ENDBRANCH   1   4
BRANCH   1  18
ATOM     18  C4  <0> d           2.159  -0.153   1.173  0.00  0.00    -0.049 C 
ATOM     19  H7  <0> d           2.510  -0.703   0.300  0.00  0.00     0.038 H 
ATOM     20  H8  <0> d           2.308   0.915   1.015  0.00  0.00     0.038 H 
BRANCH  18  21
ATOM     21  C5  <0> d           2.931  -0.594   2.389  0.00  0.00    -0.101 C 
ATOM     22  C6  <0> d           3.954  -1.402   2.258  0.00  0.00    -0.091 C 
ATOM     23  H9  <0> d           2.642  -0.244   3.369  0.00  0.00     0.077 H 
BRANCH  22  24
ATOM     24  C7  <0> d           4.464  -1.755   0.884  0.00  0.00    -0.055 C 
ATOM     25  H10 <0> d           3.928  -1.171   0.136  0.00  0.00     0.033 H 
ATOM     26  H11 <0> d           5.529  -1.532   0.824  0.00  0.00     0.033 H 
ATOM     27  H12 <0> d           4.305  -2.817   0.699  0.00  0.00     0.033 H 
ENDBRANCH  22  24
BRANCH  22  28
ATOM     28  C8  <0> d           4.620  -1.980   3.480  0.00  0.00    -0.055 C 
ATOM     29  H13 <0> d           4.141  -2.923   3.743  0.00  0.00     0.033 H 
ATOM     30  H14 <0> d           5.676  -2.154   3.270  0.00  0.00     0.033 H 
ATOM     31  H15 <0> d           4.525  -1.280   4.310  0.00  0.00     0.033 H 
ENDBRANCH  22  28
ENDBRANCH  18  21
ENDBRANCH   1  18
TORSDOF 9
