REMARK  7 active torsions:
REMARK  status: ('A' for Active; 'I' for Inactive)
REMARK    1  A    between atoms: C1_1  and  O1_2 
REMARK    2  A    between atoms: O1_2  and  C2_3 
REMARK    3  A    between atoms: C2_3  and  C3_5 
REMARK    4  A    between atoms: C3_5  and  C4_6 
REMARK    5  A    between atoms: C3_5  and  N1_10 
REMARK    6  A    between atoms: C4_6  and  O4_8 
REMARK    7  A    between atoms: O4_8  and  C5_9 
ROOT
ATOM      1  C3  <0> d          -0.795   1.527  -1.120  0.00  0.00     0.245 C 
ENDROOT
BRANCH   1   2
ATOM      2  C2  <0> d          -0.875   3.029  -1.024  0.00  0.00     0.300 C 
ATOM      3  O2  <0> d          -0.069   3.635  -0.358  0.00  0.00    -0.262 OA
BRANCH   2   4
ATOM      4  O1  <0> d          -1.840   3.693  -1.679  0.00  0.00    -0.324 OA
BRANCH   4   5
ATOM      5  C1  <0> d          -1.855   5.139  -1.541  0.00  0.00     0.013 C 
ATOM      6  H1  <0> d          -2.690   5.554  -2.124  0.00  0.00     0.067 H 
ATOM      7  H2  <0> d          -0.906   5.552  -1.913  0.00  0.00     0.067 H 
ATOM      8  H3  <0> d          -1.980   5.405  -0.481  0.00  0.00     0.067 H 
ENDBRANCH   4   5
ENDBRANCH   2   4
ENDBRANCH   1   2
BRANCH   1   9
ATOM      9  C4  <0> d          -0.130   1.141  -2.416  0.00  0.00     0.300 C 
ATOM     10  O3  <0> d           1.037   0.829  -2.426  0.00  0.00    -0.262 OA
BRANCH   9  11
ATOM     11  O4  <0> d          -0.835   1.143  -3.558  0.00  0.00    -0.324 OA
BRANCH  11  12
ATOM     12  C5  <0> d          -0.129   0.760  -4.768  0.00  0.00     0.013 C 
ATOM     13  H4  <0> d          -0.819   0.805  -5.624  0.00  0.00     0.067 H 
ATOM     14  H5  <0> d           0.255  -0.265  -4.660  0.00  0.00     0.067 H 
ATOM     15  H6  <0> d           0.711   1.450  -4.937  0.00  0.00     0.067 H 
ENDBRANCH  11  12
ENDBRANCH   9  11
ENDBRANCH   1   9
BRANCH   1  16
ATOM     16  N1  <0> d          -0.012   1.005   0.008  0.00  0.00    -0.403 N 
ATOM     17  H7  <0> d           0.155  -0.078   0.107  0.00  0.00     0.151 HD
ATOM     18  H8  <0> d           0.409   1.697   0.752  0.00  0.00     0.151 HD
ENDBRANCH   1  16
TORSDOF 7
