REMARK  1 active torsions:
REMARK  status: ('A' for Active; 'I' for Inactive)
REMARK    1  A    between atoms: C3_6  and  C4_7 
ROOT
ATOM      1  C1  <0> d          -0.017   1.395   0.010  0.00  0.00    -0.041 A 
ATOM      2  C2  <0> d           1.265   1.828  -0.000  0.00  0.00    -0.002 A 
ATOM      3  N1  <0> d           2.066   0.743  -0.014  0.00  0.00    -0.289 N 
ATOM      4  H1  <0> d           3.036   0.750  -0.023  0.00  0.00     0.188 HD
ATOM      5  N2  <0> d           1.250  -0.396  -0.012  0.00  0.00    -0.180 NA
ATOM      6  C3  <0> d           0.002  -0.004   0.002  0.00  0.00     0.060 A 
ATOM      7  H2  <0> d          -0.899   2.018   0.025  0.00  0.00     0.088 H 
ATOM      8  H3  <0> d           1.588   2.859   0.002  0.00  0.00     0.113 H 
ENDROOT
BRANCH   6   9
ATOM      9  C4  <0> d          -1.206  -0.904   0.008  0.00  0.00    -0.010 A 
ATOM     10  C6  <0> d          -1.831  -1.239   1.364  0.00  0.00    -0.056 A 
ATOM     11  C5  <0> d          -2.547  -0.284   0.407  0.00  0.00    -0.056 A 
ATOM     12  H7  <0> d          -2.255  -2.235   1.492  0.00  0.00     0.034 H 
ATOM     13  H8  <0> d          -1.368  -0.807   2.252  0.00  0.00     0.034 H 
ATOM     14  H5  <0> d          -2.555   0.775   0.664  0.00  0.00     0.034 H 
ATOM     15  H6  <0> d          -3.441  -0.652  -0.096  0.00  0.00     0.034 H 
ATOM     16  H4  <0> d          -1.218  -1.681  -0.756  0.00  0.00     0.049 H 
ENDBRANCH   6   9
TORSDOF 1
