REMARK  2 active torsions:
REMARK  status: ('A' for Active; 'I' for Inactive)
REMARK    1  A    between atoms: C1_1  and  S1_2 
REMARK    2  A    between atoms: S1_2  and  C2_3 
ROOT
ATOM      1  C2  <0> d          -1.702  -0.454   0.016  0.00  0.00     0.183 A 
ATOM      2  C3  <0> d          -2.085  -1.823   0.018  0.00  0.00     0.286 A 
ATOM      3  O1  <0> d          -1.249  -2.710   0.011  0.00  0.00    -0.265 OA
ATOM      4  N1  <0> d          -3.407  -2.111   0.029  0.00  0.00    -0.282 N 
ATOM      5  H1  <0> d          -3.714  -3.032   0.032  0.00  0.00     0.172 HD
ATOM      6  C4  <0> d          -4.299  -1.081   0.038  0.00  0.00     0.299 A 
ATOM      7  O2  <0> d          -5.623  -1.343   0.049  0.00  0.00    -0.147 OA
ATOM      8  N2  <0> d          -3.882   0.166   0.036  0.00  0.00    -0.102 NA
ATOM      9  N3  <0> d          -2.635   0.473   0.030  0.00  0.00    -0.134 NA
ENDROOT
BRANCH   1  10
ATOM     10  S1  <0> d           0.002  -0.004   0.002  0.00  0.00    -0.107 SA
BRANCH  10  11
ATOM     11  C1  <0> d          -0.022   1.810   0.012  0.00  0.00    -0.029 C 
ATOM     12  H2  <0> d           1.000   2.187   0.004  0.00  0.00     0.042 H 
ATOM     13  H3  <0> d          -0.550   2.171  -0.871  0.00  0.00     0.042 H 
ATOM     14  H4  <0> d          -0.533   2.161   0.909  0.00  0.00     0.042 H 
ENDBRANCH  10  11
ENDBRANCH   1  10
TORSDOF 2
