REMARK  2 active torsions:
REMARK  status: ('A' for Active; 'I' for Inactive)
REMARK    1  A    between atoms: C1_1  and  C2_2 
REMARK    2  A    between atoms: C7_7  and  O1_8 
ROOT
ATOM      1  C2  <0> d           1.175   1.782   0.000  0.00  0.00    -0.029 A 
ATOM      2  C3  <0> d          -0.013   1.076   0.008  0.00  0.00    -0.072 A 
ATOM      3  C4  <0> d          -1.219   1.750   0.017  0.00  0.00    -0.045 A 
ATOM      4  C5  <0> d          -1.241   3.135   0.030  0.00  0.00     0.119 A 
ATOM      5  C6  <0> d          -0.054   3.845   0.022  0.00  0.00    -0.013 A 
ATOM      6  C7  <0> d           1.157   3.169   0.008  0.00  0.00     0.074 A 
ATOM      7  F1  <0> d          -2.421   3.792   0.044  0.00  0.00    -0.206 F 
ATOM      8  H4  <0> d           0.002  -0.004   0.002  0.00  0.00     0.084 H 
ATOM      9  H5  <0> d          -2.146   1.196   0.019  0.00  0.00     0.088 H 
ATOM     10  H6  <0> d          -0.070   4.925   0.028  0.00  0.00     0.092 H 
ENDROOT
BRANCH   1  11
ATOM     11  C1  <0> d           2.490   1.046  -0.016  0.00  0.00    -0.049 C 
ATOM     12  H1  <0> d           2.797   0.874  -1.048  0.00  0.00     0.033 H 
ATOM     13  H2  <0> d           3.247   1.642   0.494  0.00  0.00     0.033 H 
ATOM     14  H3  <0> d           2.377   0.089   0.494  0.00  0.00     0.033 H 
ENDBRANCH   1  11
BRANCH   6  15
ATOM     15  O1  <0> d           2.325   3.865   0.001  0.00  0.00    -0.360 OA
ATOM     16  H7  <0> d           2.654   4.071  -0.885  0.00  0.00     0.217 HD
ENDBRANCH   6  15
TORSDOF 2
