REMARK  0 active torsions:
REMARK  status: ('A' for Active; 'I' for Inactive)
ROOT
ATOM      1  C1  <0> d          -0.019   1.560   0.011  0.00  0.00    -0.056 C 
ATOM      2  C2  <0> d           1.480   1.937  -0.002  0.00  0.00    -0.021 C 
ATOM      3  H1  <0> d           1.721   2.838  -0.567  0.00  0.00     0.044 H 
ATOM      4  C3  <0> d           2.233   0.645  -0.410  0.00  0.00    -0.042 C 
ATOM      5  C4  <0> d           1.133  -0.250  -1.054  0.00  0.00    -0.058 C 
ATOM      6  C5  <0> d           0.002  -0.004   0.002  0.00  0.00    -0.053 C 
ATOM      7  C6  <0> d           0.763  -0.346   1.321  0.00  0.00    -0.056 C 
ATOM      8  C7  <0> d           2.169   0.264   1.094  0.00  0.00    -0.021 C 
ATOM      9  H2  <0> d           3.002  -0.311   1.499  0.00  0.00     0.044 H 
ATOM     10  C8  <0> d           2.151   1.809   1.375  0.00  0.00     0.080 C 
ATOM     11  O1  <0> d           3.455   2.391   1.433  0.00  0.00    -0.234 OA
ATOM     12  H3  <0> d          -0.502   1.933   0.914  0.00  0.00     0.034 H 
ATOM     13  H4  <0> d          -0.519   1.942  -0.879  0.00  0.00     0.034 H 
ATOM     14  H5  <0> d           3.201   0.719  -0.907  0.00  0.00     0.041 H 
ATOM     15  H6  <0> d           0.847   0.112  -2.041  0.00  0.00     0.034 H 
ATOM     16  H7  <0> d           1.434  -1.297  -1.084  0.00  0.00     0.034 H 
ATOM     17  H8  <0> d          -0.950  -0.506  -0.170  0.00  0.00     0.040 H 
ATOM     18  H9  <0> d           0.276   0.120   2.177  0.00  0.00     0.034 H 
ATOM     19  H10 <0> d           0.830  -1.425   1.456  0.00  0.00     0.034 H 
ATOM     20  H11 <0> d           1.512   2.114   2.204  0.00  0.00     0.089 H 
ENDROOT
TORSDOF 0
