REMARK  1 active torsions:
REMARK  status: ('A' for Active; 'I' for Inactive)
REMARK    1  A    between atoms: C1_1  and  C2_2 
ROOT
ATOM      1  C2  <0> d           0.002  -0.004   0.002  0.00  0.00    -0.061 A 
ATOM      2  C3  <0> d           0.006  -0.685  -1.208  0.00  0.00    -0.075 A 
ATOM      3  C4  <0> d           0.024  -2.063  -1.239  0.00  0.00    -0.056 A 
ATOM      4  C5  <0> d           0.040  -2.780  -0.047  0.00  0.00     0.045 A 
ATOM      5  C6  <0> d           0.037  -2.086   1.177  0.00  0.00    -0.009 A 
ATOM      6  C7  <0> d           0.023  -0.687   1.185  0.00  0.00    -0.065 A 
ATOM      7  C8  <0> d           0.053  -2.850   2.426  0.00  0.00    -0.066 A 
ATOM      8  C9  <0> d           0.072  -4.204   2.357  0.00  0.00    -0.017 A 
ATOM      9  C10 <0> d           0.074  -4.852   1.103  0.00  0.00     0.245 A 
ATOM     10  O1  <0> d           0.091  -6.070   1.064  0.00  0.00    -0.268 OA
ATOM     11  N1  <0> d           0.059  -4.159  -0.049  0.00  0.00    -0.323 N 
ATOM     12  H1  <0> d           0.061  -4.636  -0.893  0.00  0.00     0.169 HD
ATOM     13  H5  <0> d          -0.007  -0.130  -2.134  0.00  0.00     0.084 H 
ATOM     14  H6  <0> d           0.026  -2.584  -2.185  0.00  0.00     0.087 H 
ATOM     15  H7  <0> d           0.024  -0.150   2.122  0.00  0.00     0.085 H 
ATOM     16  H8  <0> d           0.052  -2.346   3.381  0.00  0.00     0.085 H 
ATOM     17  H9  <0> d           0.084  -4.789   3.265  0.00  0.00     0.092 H 
ENDROOT
BRANCH   1  18
ATOM     18  C1  <0> d          -0.018   1.503   0.010  0.00  0.00    -0.051 C 
ATOM     19  H2  <0> d           1.004   1.880   0.003  0.00  0.00     0.033 H 
ATOM     20  H3  <0> d          -0.545   1.864  -0.873  0.00  0.00     0.033 H 
ATOM     21  H4  <0> d          -0.529   1.854   0.907  0.00  0.00     0.033 H 
ENDBRANCH   1  18
TORSDOF 1
