REMARK  2 active torsions:
REMARK  status: ('A' for Active; 'I' for Inactive)
REMARK    1  A    between atoms: C1_1  and  N1_2 
REMARK    2  A    between atoms: C5_8  and  N3_9 
ROOT
ATOM      1  N1  <0> d          -0.698   1.558   1.213  0.00  0.00    -0.150 N 
ATOM      2  C2  <0> d          -1.192   0.671   2.104  0.00  0.00     0.262 A 
ATOM      3  O1  <0> d          -1.074  -0.529   1.917  0.00  0.00    -0.268 OA
ATOM      4  C3  <0> d          -1.844   1.157   3.251  0.00  0.00     0.001 A 
ATOM      5  C4  <0> d          -1.956   2.506   3.425  0.00  0.00     0.026 A 
ATOM      6  N2  <0> d          -1.452   3.340   2.518  0.00  0.00    -0.077 NA
ATOM      7  C5  <0> d          -0.835   2.892   1.442  0.00  0.00     0.702 A 
ATOM      8  H4  <0> d          -2.250   0.474   3.982  0.00  0.00     0.094 H 
ATOM      9  H5  <0> d          -2.454   2.897   4.299  0.00  0.00     0.116 H 
ENDROOT
BRANCH   1  10
ATOM     10  C1  <0> d          -0.013   1.086   0.008  0.00  0.00     0.006 C 
ATOM     11  H1  <0> d           0.002  -0.004   0.002  0.00  0.00     0.058 H 
ATOM     12  H2  <0> d           1.010   1.463   0.000  0.00  0.00     0.058 H 
ATOM     13  H3  <0> d          -0.540   1.447  -0.875  0.00  0.00     0.058 H 
ENDBRANCH   1  10
BRANCH   7  14
ATOM     14  N3  <0> d          -0.328   3.786   0.537  0.00  0.00    -0.233 N 
ATOM     15  H6  <0> d           0.125   3.465  -0.259  0.00  0.00     0.174 HD
ATOM     16  H7  <0> d          -0.420   4.739   0.693  0.00  0.00     0.174 HD
ENDBRANCH   7  14
TORSDOF 2
