REMARK  2 active torsions:
REMARK  status: ('A' for Active; 'I' for Inactive)
REMARK    1  A    between atoms: C1_1  and  C2_2 
REMARK    2  A    between atoms: C5_5  and  C7_8 
ROOT
ATOM      1  C7  <0> d          -0.018   1.468   0.010  0.00  0.00     0.040 C 
ATOM      2  C8  <0> d           0.002  -0.004   0.002  0.00  0.00     0.063 C 
ATOM      3  N2  <0> d           0.018  -1.140  -0.004  0.00  0.00    -0.197 NA
ATOM      4  H7  <0> d          -0.533   1.823   0.915  0.00  0.00     0.062 H 
ATOM      5  H8  <0> d          -0.550   1.832  -0.881  0.00  0.00     0.062 H 
ENDROOT
BRANCH   1   6
ATOM      6  C5  <0> d           1.396   1.989  -0.001  0.00  0.00    -0.028 A 
ATOM      7  C4  <0> d           2.043   2.239  -1.201  0.00  0.00    -0.073 A 
ATOM      8  C3  <0> d           3.343   2.718  -1.163  0.00  0.00    -0.059 A 
ATOM      9  H5  <0> d           1.546   2.064  -2.144  0.00  0.00     0.084 H 
ATOM     10  C2  <0> d           3.947   2.930   0.062  0.00  0.00     0.030 A 
ATOM     11  H4  <0> d           3.878   2.924  -2.079  0.00  0.00     0.086 H 
ATOM     12  N1  <0> d           3.301   2.682   1.185  0.00  0.00    -0.265 NA
ATOM     13  C6  <0> d           2.062   2.231   1.186  0.00  0.00     0.009 A 
ATOM     14  H6  <0> d           1.563   2.043   2.126  0.00  0.00     0.115 H 
BRANCH  10  15
ATOM     15  C1  <0> d           5.361   3.450   0.116  0.00  0.00    -0.035 C 
ATOM     16  H1  <0> d           5.736   3.598  -0.907  0.00  0.00     0.035 H 
ATOM     17  H2  <0> d           5.999   2.723   0.640  0.00  0.00     0.035 H 
ATOM     18  H3  <0> d           5.378   4.409   0.655  0.00  0.00     0.035 H 
ENDBRANCH  10  15
ENDBRANCH   1   6
TORSDOF 2
