REMARK  4 active torsions:
REMARK  status: ('A' for Active; 'I' for Inactive)
REMARK    1  A    between atoms: C1_1  and  C2_2 
REMARK    2  A    between atoms: C3_3  and  C6_8 
REMARK    3  A    between atoms: C6_8  and  O3_10 
REMARK    4  A    between atoms: O3_10  and  C7_11 
ROOT
ATOM      1  C2  <0> d          -0.718   1.572   1.248  0.00  0.00     0.021 A 
ATOM      2  C3  <0> d          -0.896   2.871   1.550  0.00  0.00     0.048 A 
ATOM      3  C4  <0> d          -1.646   2.897   2.866  0.00  0.00     0.041 A 
ATOM      4  C5  <0> d          -1.820   1.430   3.203  0.00  0.00     0.226 A 
ATOM      5  O1  <0> d          -2.367   0.966   4.181  0.00  0.00    -0.273 OA
ATOM      6  N1  <0> d          -1.244   0.746   2.196  0.00  0.00    -0.330 N 
ATOM      7  H4  <0> d          -2.616   3.382   2.750  0.00  0.00     0.054 H 
ATOM      8  H5  <0> d          -1.057   3.400   3.633  0.00  0.00     0.054 H 
ATOM      9  H6  <0> d          -1.208  -0.222   2.151  0.00  0.00     0.168 HD
ENDROOT
BRANCH   2  10
ATOM     10  C6  <0> d          -0.471   3.987   0.790  0.00  0.00     0.291 C 
ATOM     11  O2  <0> d           0.124   3.819  -0.258  0.00  0.00    -0.260 OA
BRANCH  10  12
ATOM     12  O3  <0> d          -0.726   5.238   1.228  0.00  0.00    -0.323 OA
BRANCH  12  13
ATOM     13  C7  <0> d          -0.268   6.317   0.411  0.00  0.00     0.013 C 
ATOM     14  H7  <0> d          -0.537   7.265   0.877  0.00  0.00     0.067 H 
ATOM     15  H8  <0> d           0.816   6.259   0.306  0.00  0.00     0.067 H 
ATOM     16  H9  <0> d          -0.733   6.251  -0.573  0.00  0.00     0.067 H 
ENDBRANCH  12  13
ENDBRANCH  10  12
ENDBRANCH   2  10
BRANCH   1  17
ATOM     17  C1  <0> d          -0.013   1.086   0.008  0.00  0.00    -0.037 C 
ATOM     18  H1  <0> d           0.002  -0.004   0.002  0.00  0.00     0.035 H 
ATOM     19  H2  <0> d           1.010   1.463   0.000  0.00  0.00     0.035 H 
ATOM     20  H3  <0> d          -0.540   1.447  -0.875  0.00  0.00     0.035 H 
ENDBRANCH   1  17
TORSDOF 4
