REMARK  2 active torsions:
REMARK  status: ('A' for Active; 'I' for Inactive)
REMARK    1  A    between atoms: C1_1  and  C2_2 
REMARK    2  A    between atoms: C2_2  and  C3_3 
REMARK       I    between atoms: N1_9  and  C8_10 
REMARK       I    between atoms: C8_10  and  N2_12 
ROOT
ATOM      1  C3  <0> d           0.763  -0.391  -1.266  0.00  0.00     0.016 C 
ATOM      2  H1  <0> d           1.758   0.053  -1.233  0.00  0.00     0.072 H 
ATOM      3  C4  <0> d           0.884  -1.915  -1.362  0.00  0.00    -0.046 C 
ATOM      4  C5  <0> d           1.532  -2.288  -2.697  0.00  0.00    -0.062 C 
ATOM      5  C6  <0> d           0.649  -1.800  -3.849  0.00  0.00    -0.050 C 
ATOM      6  C7  <0> d           0.525  -0.275  -3.781  0.00  0.00    -0.000 C 
ATOM      7  N1  <0> d           0.041   0.104  -2.446  0.00  0.00    -0.330 N 
ATOM      8  C8  <0> d          -1.047   0.887  -2.307  0.00  0.00     0.316 C 
ATOM      9  O1  <0> d          -1.382   1.272  -1.203  0.00  0.00    -0.247 OA
ATOM     10  N2  <0> d          -1.763   1.245  -3.391  0.00  0.00    -0.352 N 
ATOM     11  H7  <0> d           1.502  -2.284  -0.543  0.00  0.00     0.036 H 
ATOM     12  H8  <0> d          -0.107  -2.364  -1.301  0.00  0.00     0.036 H 
ATOM     13  H9  <0> d           2.514  -1.819  -2.768  0.00  0.00     0.033 H 
ATOM     14  H10 <0> d           1.642  -3.371  -2.758  0.00  0.00     0.033 H 
ATOM     15  H11 <0> d           1.100  -2.087  -4.799  0.00  0.00     0.035 H 
ATOM     16  H12 <0> d          -0.340  -2.250  -3.764  0.00  0.00     0.035 H 
ATOM     17  H13 <0> d           1.501   0.179  -3.955  0.00  0.00     0.064 H 
ATOM     18  H14 <0> d          -0.180   0.068  -4.537  0.00  0.00     0.064 H 
ATOM     19  H15 <0> d          -1.455   1.001  -4.278  0.00  0.00     0.160 HD
ATOM     20  H16 <0> d          -2.586   1.747  -3.284  0.00  0.00     0.160 HD
ENDROOT
BRANCH   1  21
ATOM     21  C2  <0> d          -0.008  -0.017   0.002  0.00  0.00    -0.049 C 
ATOM     22  H5  <0> d          -1.011  -0.441  -0.045  0.00  0.00     0.035 H 
ATOM     23  H6  <0> d          -0.075   1.068   0.079  0.00  0.00     0.035 H 
BRANCH  21  24
ATOM     24  C1  <0> d           0.724  -0.571   1.226  0.00  0.00    -0.075 C 
ATOM     25  H2  <0> d           0.712  -1.661   1.194  0.00  0.00     0.027 H 
ATOM     26  H3  <0> d           1.755  -0.219   1.223  0.00  0.00     0.027 H 
ATOM     27  H4  <0> d           0.225  -0.229   2.133  0.00  0.00     0.027 H 
ENDBRANCH  21  24
ENDBRANCH   1  21
TORSDOF 2
