REMARK  1 active torsions:
REMARK  status: ('A' for Active; 'I' for Inactive)
REMARK    1  A    between atoms: C4_7  and  N5_11 
ROOT
ATOM      1  C1  <0> d          -0.016   1.336   0.009  0.00  0.00     0.037 A 
ATOM      2  C2  <0> d           1.254   1.785  -0.000  0.00  0.00     0.024 A 
ATOM      3  N1  <0> d           2.071   0.681  -0.014  0.00  0.00    -0.111 N 
ATOM      4  C3  <0> d           3.426   0.513  -0.028  0.00  0.00     0.315 A 
ATOM      5  O1  <0> d           4.244   1.586  -0.029  0.00  0.00    -0.147 OA
ATOM      6  N2  <0> d           3.928  -0.704  -0.038  0.00  0.00    -0.017 NA
ATOM      7  C4  <0> d           3.126  -1.775  -0.037  0.00  0.00     0.739 A 
ATOM      8  N3  <0> d           1.811  -1.646  -0.024  0.00  0.00     0.131 NA
ATOM      9  C5  <0> d           1.254  -0.424  -0.012  0.00  0.00     0.751 A 
ATOM     10  N4  <0> d           0.002  -0.004   0.002  0.00  0.00    -0.073 NA
ATOM     11  H1  <0> d          -0.902   1.954   0.025  0.00  0.00     0.117 H 
ATOM     12  H2  <0> d           1.570   2.818   0.002  0.00  0.00     0.115 H 
ENDROOT
BRANCH   7  13
ATOM     13  N5  <0> d           3.682  -3.037  -0.049  0.00  0.00    -0.230 N 
ATOM     14  H3  <0> d           4.646  -3.142  -0.059  0.00  0.00     0.174 HD
ATOM     15  H4  <0> d           3.109  -3.820  -0.048  0.00  0.00     0.174 HD
ENDBRANCH   7  13
TORSDOF 1
