REMARK  3 active torsions:
REMARK  status: ('A' for Active; 'I' for Inactive)
REMARK    1  A    between atoms: C1_1  and  O1_2 
REMARK    2  A    between atoms: O1_2  and  C2_3 
REMARK    3  A    between atoms: C6_8  and  C8_11 
ROOT
ATOM      1  C2  <0> d           0.011   1.072   2.506  0.00  0.00     0.038 C 
ATOM      2  H1  <0> d           0.026  -0.018   2.500  0.00  0.00     0.083 H 
ATOM      3  C3  <0> d           1.446   1.602   2.495  0.00  0.00    -0.041 C 
ATOM      4  C4  <0> d           2.163   1.109   1.237  0.00  0.00    -0.062 C 
ATOM      5  C5  <0> d           1.423   1.615  -0.003  0.00  0.00    -0.052 C 
ATOM      6  C6  <0> d          -0.013   1.086   0.008  0.00  0.00     0.033 C 
ATOM      7  H2  <0> d           0.002  -0.004   0.002  0.00  0.00     0.056 H 
ATOM      8  C7  <0> d          -0.729   1.579   1.267  0.00  0.00    -0.028 C 
ATOM      9  H6  <0> d           1.974   1.241   3.378  0.00  0.00     0.036 H 
ATOM     10  H7  <0> d           1.432   2.692   2.502  0.00  0.00     0.036 H 
ATOM     11  H8  <0> d           2.178   0.019   1.231  0.00  0.00     0.033 H 
ATOM     12  H9  <0> d           3.185   1.486   1.229  0.00  0.00     0.033 H 
ATOM     13  H10 <0> d           1.933   1.264  -0.900  0.00  0.00     0.034 H 
ATOM     14  H11 <0> d           1.408   2.705   0.003  0.00  0.00     0.034 H 
ATOM     15  H12 <0> d          -0.744   2.669   1.273  0.00  0.00     0.038 H 
ATOM     16  H13 <0> d          -1.751   1.202   1.275  0.00  0.00     0.038 H 
ENDROOT
BRANCH   1  17
ATOM     17  O1  <0> d          -0.658   1.533   3.682  0.00  0.00    -0.391 OA
BRANCH  17  18
ATOM     18  C1  <0> d          -0.532   0.656   4.803  0.00  0.00     0.004 C 
ATOM     19  H3  <0> d          -0.955  -0.316   4.553  0.00  0.00     0.066 H 
ATOM     20  H4  <0> d           0.521   0.540   5.058  0.00  0.00     0.066 H 
ATOM     21  H5  <0> d          -1.067   1.077   5.655  0.00  0.00     0.066 H 
ENDBRANCH  17  18
ENDBRANCH   1  17
BRANCH   6  22
ATOM     22  C8  <0> d          -0.742   1.585  -1.213  0.00  0.00     0.177 C 
ATOM     23  O2  <0> d          -1.732   2.266  -1.089  0.00  0.00    -0.648 OA
ATOM     24  O3  <0> d          -0.290   1.274  -2.438  0.00  0.00    -0.648 OA
ENDBRANCH   6  22
TORSDOF 3
