REMARK  2 active torsions:
REMARK  status: ('A' for Active; 'I' for Inactive)
REMARK    1  A    between atoms: C2_2  and  C3_3 
REMARK    2  A    between atoms: C3_3  and  O3_13 
ROOT
ATOM      1  C1  <0> d          -3.510   0.174  -2.673  0.00  0.00    -0.150 C 
ATOM      2  C2  <0> d          -3.325   0.781  -1.686  0.00  0.00    -0.070 C 
ATOM      3  H3  <0> d          -3.676  -0.370  -3.556  0.00  0.00     0.166 H 
ENDROOT
BRANCH   2   4
ATOM      4  C3  <0> d          -3.092   1.543  -0.448  0.00  0.00     0.188 C 
ATOM      5  C8  <0> d          -1.825   2.388  -0.603  0.00  0.00     0.175 C 
ATOM      6  O1  <0> d          -0.754   1.585  -1.120  0.00  0.00    -0.354 OA
ATOM      7  H2  <0> d          -2.000   3.251  -1.244  0.00  0.00     0.136 H 
ATOM      8  O2  <0> d          -1.418   2.810   0.719  0.00  0.00    -0.346 OA
ATOM      9  C7  <0> d          -0.013   1.086   0.008  0.00  0.00     0.050 C 
ATOM     10  C6  <0> d          -0.789   1.611   1.245  0.00  0.00     0.078 C 
ATOM     11  H6  <0> d           0.002  -0.004   0.002  0.00  0.00     0.079 H 
ATOM     12  H7  <0> d           1.004   1.480   0.000  0.00  0.00     0.079 H 
ATOM     13  C5  <0> d          -1.899   0.610   1.497  0.00  0.00    -0.073 C 
ATOM     14  H1  <0> d          -0.153   1.796   2.111  0.00  0.00     0.093 H 
ATOM     15  C4  <0> d          -2.942   0.587   0.712  0.00  0.00    -0.055 C 
ATOM     16  H5  <0> d          -1.828  -0.082   2.324  0.00  0.00     0.080 H 
ATOM     17  H4  <0> d          -3.719  -0.140   0.895  0.00  0.00     0.083 H 
BRANCH   4  18
ATOM     18  O3  <0> d          -4.208   2.403  -0.208  0.00  0.00    -0.370 OA
ATOM     19  H8  <0> d          -5.048   1.937  -0.100  0.00  0.00     0.212 HD
ENDBRANCH   4  18
ENDBRANCH   2   4
TORSDOF 2
