REMARK  5 active torsions:
REMARK  status: ('A' for Active; 'I' for Inactive)
REMARK    1  A    between atoms: C1_1  and  N1_2 
REMARK    2  A    between atoms: N1_2  and  C2_3 
REMARK       I    between atoms: N1_2  and  C3_4 
REMARK       I    between atoms: C3_4  and  N2_6 
REMARK    3  A    between atoms: N2_6  and  C4_7 
REMARK    4  A    between atoms: N2_6  and  C5_8 
REMARK    5  A    between atoms: C5_8  and  C6_9 
ROOT
ATOM      1  C6  <0> d          -0.470   1.301   2.033  0.00  0.00     0.029 C 
ATOM      2  C7  <0> d          -0.566  -0.129   2.369  0.00  0.00     0.060 C 
ATOM      3  N3  <0> d          -0.640  -1.232   2.628  0.00  0.00    -0.197 NA
ATOM      4  H12 <0> d           0.507   1.680   2.334  0.00  0.00     0.057 H 
ATOM      5  H13 <0> d          -0.595   1.431   0.958  0.00  0.00     0.057 H 
ENDROOT
BRANCH   1   6
ATOM      6  C5  <0> d          -1.566   2.073   2.771  0.00  0.00     0.010 C 
ATOM      7  H10 <0> d          -2.542   1.694   2.470  0.00  0.00     0.065 H 
ATOM      8  H11 <0> d          -1.441   1.943   3.846  0.00  0.00     0.065 H 
BRANCH   6   9
ATOM      9  N2  <0> d          -1.470   3.496   2.436  0.00  0.00    -0.338 N 
ATOM     10  C3  <0> d          -2.148   3.987   1.380  0.00  0.00     0.319 C 
ATOM     11  N1  <0> d          -2.023   5.287   1.044  0.00  0.00    -0.343 N 
ATOM     12  O1  <0> d          -2.873   3.259   0.731  0.00  0.00    -0.247 OA
BRANCH  11  13
ATOM     13  C1  <0> d          -2.955   5.889   0.087  0.00  0.00    -0.015 C 
ATOM     14  H1  <0> d          -3.811   6.298   0.623  0.00  0.00     0.056 H 
ATOM     15  H2  <0> d          -2.451   6.688  -0.457  0.00  0.00     0.056 H 
ATOM     16  H3  <0> d          -3.295   5.129  -0.616  0.00  0.00     0.056 H 
ENDBRANCH  11  13
BRANCH  11  17
ATOM     17  C2  <0> d          -0.955   6.097   1.636  0.00  0.00    -0.015 C 
ATOM     18  H4  <0> d          -0.137   5.448   1.947  0.00  0.00     0.056 H 
ATOM     19  H5  <0> d          -0.592   6.813   0.899  0.00  0.00     0.056 H 
ATOM     20  H6  <0> d          -1.343   6.633   2.502  0.00  0.00     0.056 H 
ENDBRANCH  11  17
BRANCH   9  21
ATOM     21  C4  <0> d          -0.637   4.385   3.250  0.00  0.00    -0.015 C 
ATOM     22  H7  <0> d           0.381   4.386   2.860  0.00  0.00     0.056 H 
ATOM     23  H8  <0> d          -1.041   5.397   3.212  0.00  0.00     0.056 H 
ATOM     24  H9  <0> d          -0.631   4.034   4.282  0.00  0.00     0.056 H 
ENDBRANCH   9  21
ENDBRANCH   6   9
ENDBRANCH   1   6
TORSDOF 5
