REMARK  5 active torsions:
REMARK  status: ('A' for Active; 'I' for Inactive)
REMARK    1  A    between atoms: C1_1  and  C2_2 
REMARK    2  A    between atoms: C2_2  and  C3_3 
REMARK    3  A    between atoms: C3_3  and  O1_4 
REMARK    4  A    between atoms: O1_4  and  C4_5 
REMARK    5  A    between atoms: C4_5  and  C5_7 
ROOT
ATOM      1  O1  <0> d           0.002  -0.004   0.002  0.00  0.00    -0.317 OA
ENDROOT
BRANCH   1   2
ATOM      2  C3  <0> d          -0.018   1.448   0.010  0.00  0.00     0.029 C 
ATOM      3  H6  <0> d          -0.545   1.809  -0.873  0.00  0.00     0.075 H 
ATOM      4  H7  <0> d          -0.528   1.799   0.907  0.00  0.00     0.075 H 
BRANCH   2   5
ATOM      5  C2  <0> d           1.418   1.977  -0.001  0.00  0.00    -0.048 C 
ATOM      6  H4  <0> d           1.945   1.616   0.882  0.00  0.00     0.035 H 
ATOM      7  H5  <0> d           1.928   1.626  -0.898  0.00  0.00     0.035 H 
BRANCH   5   8
ATOM      8  C1  <0> d           1.397   3.507   0.008  0.00  0.00    -0.075 C 
ATOM      9  H1  <0> d           2.420   3.885  -0.000  0.00  0.00     0.027 H 
ATOM     10  H2  <0> d           0.870   3.868  -0.875  0.00  0.00     0.027 H 
ATOM     11  H3  <0> d           0.887   3.859   0.904  0.00  0.00     0.027 H 
ENDBRANCH   5   8
ENDBRANCH   2   5
ENDBRANCH   1   2
BRANCH   1  12
ATOM     12  C4  <0> d          -1.190  -0.632   0.010  0.00  0.00     0.295 C 
ATOM     13  O2  <0> d          -2.218   0.016   0.023  0.00  0.00    -0.259 OA
BRANCH  12  14
ATOM     14  C5  <0> d          -1.247  -2.103   0.003  0.00  0.00     0.063 A 
ATOM     15  C8  <0> d          -0.193  -2.970  -0.018  0.00  0.00     0.034 A 
ATOM     16  O3  <0> d          -0.673  -4.217  -0.015  0.00  0.00    -0.334 OA
ATOM     17  H10 <0> d           0.851  -2.695  -0.032  0.00  0.00     0.125 H 
ATOM     18  C7  <0> d          -2.015  -4.215  -0.002  0.00  0.00     0.019 A 
ATOM     19  C6  <0> d          -2.452  -2.946   0.010  0.00  0.00    -0.044 A 
ATOM     20  H9  <0> d          -2.643  -5.093  -0.000  0.00  0.00     0.123 H 
ATOM     21  H8  <0> d          -3.479  -2.613   0.022  0.00  0.00     0.088 H 
ENDBRANCH  12  14
ENDBRANCH   1  12
TORSDOF 5
