REMARK  1 active torsions:
REMARK  status: ('A' for Active; 'I' for Inactive)
REMARK    1  A    between atoms: C1_1  and  C2_2 
ROOT
ATOM      1  C2  <0> d           0.002  -0.004   0.002  0.00  0.00     0.036 A 
ATOM      2  N1  <0> d           0.006  -0.658  -1.111  0.00  0.00    -0.068 NA
ATOM      3  C3  <0> d           0.024  -2.015  -1.177  0.00  0.00     0.773 A 
ATOM      4  N2  <0> d           0.030  -2.829  -2.221  0.00  0.00     0.067 NA
ATOM      5  N3  <0> d           0.048  -4.054  -1.839  0.00  0.00    -0.007 NA
ATOM      6  N4  <0> d           0.055  -4.131  -0.552  0.00  0.00    -0.022 NA
ATOM      7  N5  <0> d           0.040  -2.812  -0.071  0.00  0.00    -0.004 N 
ATOM      8  C4  <0> d           0.038  -2.298   1.174  0.00  0.00     0.268 A 
ATOM      9  O1  <0> d           0.053  -3.010   2.150  0.00  0.00    -0.270 OA
ATOM     10  C5  <0> d           0.025  -0.786   1.300  0.00  0.00     0.049 A 
ATOM     11  H4  <0> d           0.907  -0.481   1.863  0.00  0.00     0.056 H 
ATOM     12  H5  <0> d          -0.854  -0.505   1.880  0.00  0.00     0.056 H 
ENDROOT
BRANCH   1  13
ATOM     13  C1  <0> d          -0.018   1.503   0.010  0.00  0.00    -0.038 C 
ATOM     14  H1  <0> d           1.004   1.880   0.003  0.00  0.00     0.035 H 
ATOM     15  H2  <0> d          -0.545   1.864  -0.873  0.00  0.00     0.035 H 
ATOM     16  H3  <0> d          -0.529   1.854   0.907  0.00  0.00     0.035 H 
ENDBRANCH   1  13
TORSDOF 1
