REMARK  2 active torsions:
REMARK  status: ('A' for Active; 'I' for Inactive)
REMARK    1  A    between atoms: C1_1  and  C2_2 
REMARK    2  A    between atoms: N1_4  and  C10_11 
ROOT
ATOM      1  C2  <0> d           1.076   1.861   0.002  0.00  0.00    -0.034 A 
ATOM      2  C3  <0> d          -0.013   1.076   0.008  0.00  0.00    -0.014 A 
ATOM      3  N1  <0> d          -1.144   1.846   0.017  0.00  0.00    -0.360 N 
ATOM      4  C4  <0> d          -0.802   3.180   0.027  0.00  0.00     0.044 A 
ATOM      5  C5  <0> d           0.604   3.248   0.014  0.00  0.00    -0.002 A 
ATOM      6  C6  <0> d           1.241   4.490   0.014  0.00  0.00    -0.070 A 
ATOM      7  C7  <0> d           0.495   5.635   0.028  0.00  0.00    -0.082 A 
ATOM      8  C8  <0> d          -0.891   5.573   0.041  0.00  0.00    -0.081 A 
ATOM      9  C9  <0> d          -1.541   4.358   0.040  0.00  0.00    -0.056 A 
ATOM     10  H4  <0> d           0.002  -0.004   0.002  0.00  0.00     0.112 H 
ATOM     11  H5  <0> d           2.319   4.546   0.004  0.00  0.00     0.084 H 
ATOM     12  H6  <0> d           0.988   6.596   0.028  0.00  0.00     0.083 H 
ATOM     13  H7  <0> d          -1.467   6.487   0.051  0.00  0.00     0.083 H 
ATOM     14  H8  <0> d          -2.620   4.320   0.051  0.00  0.00     0.087 H 
ENDROOT
BRANCH   1  15
ATOM     15  C1  <0> d           2.512   1.403  -0.015  0.00  0.00    -0.049 C 
ATOM     16  H1  <0> d           2.848   1.299  -1.047  0.00  0.00     0.033 H 
ATOM     17  H2  <0> d           3.133   2.138   0.496  0.00  0.00     0.033 H 
ATOM     18  H3  <0> d           2.592   0.442   0.493  0.00  0.00     0.033 H 
ENDBRANCH   1  15
BRANCH   3  19
ATOM     19  C10 <0> d          -2.514   1.329   0.020  0.00  0.00    -0.014 C 
ATOM     20  H9  <0> d          -2.850   1.195   1.048  0.00  0.00     0.057 H 
ATOM     21  H10 <0> d          -3.171   2.035  -0.488  0.00  0.00     0.057 H 
ATOM     22  H11 <0> d          -2.542   0.370  -0.499  0.00  0.00     0.057 H 
ENDBRANCH   3  19
TORSDOF 2
