REMARK  1 active torsions:
REMARK  status: ('A' for Active; 'I' for Inactive)
REMARK    1  A    between atoms: C1_1  and  C2_2 
ROOT
ATOM      1  C2  <0> d          -0.364   2.768   3.174  0.00  0.00     0.039 C 
ATOM      2  H1  <0> d          -1.369   3.106   3.428  0.00  0.00     0.082 H 
ATOM      3  C3  <0> d          -0.182   1.274   3.544  0.00  0.00    -0.036 C 
ATOM      4  C4  <0> d          -0.827   0.558   2.331  0.00  0.00    -0.011 C 
ATOM      5  C5  <0> d          -0.803   1.617   1.218  0.00  0.00     0.164 C 
ATOM      6  O1  <0> d          -0.168   2.789   1.743  0.00  0.00    -0.350 OA
ATOM      7  C6  <0> d          -0.013   1.086   0.008  0.00  0.00    -0.011 C 
ATOM      8  C7  <0> d          -0.834   1.635  -1.192  0.00  0.00    -0.040 C 
ATOM      9  C8  <0> d          -2.272   1.577  -0.616  0.00  0.00     0.023 C 
ATOM     10  O2  <0> d          -2.134   1.914   0.775  0.00  0.00    -0.355 OA
ATOM     11  H5  <0> d           0.875   1.020   3.629  0.00  0.00     0.036 H 
ATOM     12  H6  <0> d          -0.712   1.033   4.465  0.00  0.00     0.036 H 
ATOM     13  H7  <0> d          -1.852   0.266   2.560  0.00  0.00     0.041 H 
ATOM     14  H8  <0> d          -0.237  -0.312   2.043  0.00  0.00     0.041 H 
ATOM     15  H9  <0> d           0.002  -0.004   0.002  0.00  0.00     0.041 H 
ATOM     16  H10 <0> d           1.001   1.486   0.001  0.00  0.00     0.041 H 
ATOM     17  H11 <0> d          -0.546   2.659  -1.428  0.00  0.00     0.036 H 
ATOM     18  H12 <0> d          -0.734   0.990  -2.064  0.00  0.00     0.036 H 
ATOM     19  H13 <0> d          -2.910   2.303  -1.120  0.00  0.00     0.074 H 
ATOM     20  H14 <0> d          -2.683   0.573  -0.725  0.00  0.00     0.074 H 
ENDROOT
BRANCH   1  21
ATOM     21  C1  <0> d           0.689   3.629   3.875  0.00  0.00    -0.052 C 
ATOM     22  H2  <0> d           0.594   4.662   3.542  0.00  0.00     0.030 H 
ATOM     23  H3  <0> d           0.539   3.579   4.953  0.00  0.00     0.030 H 
ATOM     24  H4  <0> d           1.684   3.258   3.628  0.00  0.00     0.030 H 
ENDBRANCH   1  21
TORSDOF 1
