REMARK  3 active torsions:
REMARK  status: ('A' for Active; 'I' for Inactive)
REMARK    1  A    between atoms: C1_1  and  C2_2 
REMARK    2  A    between atoms: C2_2  and  C3_3 
REMARK    3  A    between atoms: C2_2  and  C4_4 
ROOT
ATOM      1  C4  <0> d          -1.412  -0.526   0.013  0.00  0.00    -0.027 A 
ATOM      2  C5  <0> d          -2.340  -0.296   0.954  0.00  0.00    -0.015 A 
ATOM      3  N1  <0> d          -3.506  -0.933   0.625  0.00  0.00    -0.365 N 
ATOM      4  H1  <0> d          -4.320  -0.914   1.153  0.00  0.00     0.165 HD
ATOM      5  C6  <0> d          -3.352  -1.605  -0.567  0.00  0.00     0.042 A 
ATOM      6  C7  <0> d          -2.035  -1.374  -1.006  0.00  0.00    -0.002 A 
ATOM      7  C8  <0> d          -1.593  -1.935  -2.205  0.00  0.00    -0.070 A 
ATOM      8  C9  <0> d          -2.443  -2.703  -2.950  0.00  0.00    -0.082 A 
ATOM      9  C10 <0> d          -3.744  -2.930  -2.523  0.00  0.00    -0.081 A 
ATOM     10  C11 <0> d          -4.199  -2.394  -1.337  0.00  0.00    -0.056 A 
ATOM     11  H9  <0> d          -2.190   0.302   1.841  0.00  0.00     0.112 H 
ATOM     12  H10 <0> d          -0.582  -1.761  -2.544  0.00  0.00     0.084 H 
ATOM     13  H11 <0> d          -2.101  -3.136  -3.878  0.00  0.00     0.083 H 
ATOM     14  H12 <0> d          -4.405  -3.539  -3.122  0.00  0.00     0.083 H 
ATOM     15  H13 <0> d          -5.213  -2.576  -1.014  0.00  0.00     0.086 H 
ENDROOT
BRANCH   1  16
ATOM     16  C2  <0> d           0.002  -0.004   0.002  0.00  0.00    -0.033 C 
ATOM     17  H5  <0> d           0.512  -0.356  -0.895  0.00  0.00     0.046 H 
BRANCH  16  18
ATOM     18  C1  <0> d          -0.019   1.526   0.010  0.00  0.00    -0.069 C 
ATOM     19  H2  <0> d           1.004   1.903   0.003  0.00  0.00     0.028 H 
ATOM     20  H3  <0> d          -0.546   1.887  -0.873  0.00  0.00     0.028 H 
ATOM     21  H4  <0> d          -0.529   1.877   0.907  0.00  0.00     0.028 H 
ENDBRANCH  16  18
BRANCH  16  22
ATOM     22  C3  <0> d           0.742  -0.511   1.242  0.00  0.00    -0.069 C 
ATOM     23  H6  <0> d           0.232  -0.159   2.138  0.00  0.00     0.028 H 
ATOM     24  H7  <0> d           0.757  -1.601   1.236  0.00  0.00     0.028 H 
ATOM     25  H8  <0> d           1.765  -0.134   1.234  0.00  0.00     0.028 H 
ENDBRANCH  16  22
ENDBRANCH   1  16
TORSDOF 3
