REMARK  5 active torsions:
REMARK  status: ('A' for Active; 'I' for Inactive)
REMARK    1  A    between atoms: C1_1  and  C2_2 
REMARK    2  A    between atoms: C2_2  and  C3_3 
REMARK    3  A    between atoms: C5_7  and  C8_10 
REMARK    4  A    between atoms: C6_8  and  C7_9 
REMARK    5  A    between atoms: C8_10  and  C9_11 
ROOT
ATOM      1  C3  <0> d           0.707  -0.490  -1.238  0.00  0.00    -0.035 A 
ATOM      2  C4  <0> d           0.124  -0.842  -2.402  0.00  0.00    -0.016 A 
ATOM      3  N1  <0> d           1.103  -1.223  -3.271  0.00  0.00    -0.368 N 
ATOM      4  H1  <0> d           0.964  -1.524  -4.182  0.00  0.00     0.165 HD
ATOM      5  C5  <0> d           2.311  -1.110  -2.647  0.00  0.00     0.015 A 
ATOM      6  C6  <0> d           2.098  -0.655  -1.396  0.00  0.00    -0.032 A 
ATOM      7  H7  <0> d          -0.935  -0.824  -2.610  0.00  0.00     0.112 H 
ENDROOT
BRANCH   1   8
ATOM      8  C2  <0> d           0.002  -0.004   0.002  0.00  0.00    -0.043 C 
ATOM      9  H5  <0> d           0.529  -0.365   0.885  0.00  0.00     0.039 H 
ATOM     10  H6  <0> d          -1.020  -0.381   0.010  0.00  0.00     0.039 H 
BRANCH   8  11
ATOM     11  C1  <0> d          -0.019   1.526   0.010  0.00  0.00    -0.073 C 
ATOM     12  H2  <0> d           1.004   1.903   0.003  0.00  0.00     0.028 H 
ATOM     13  H3  <0> d          -0.546   1.887  -0.873  0.00  0.00     0.028 H 
ATOM     14  H4  <0> d          -0.529   1.877   0.907  0.00  0.00     0.028 H 
ENDBRANCH   8  11
ENDBRANCH   1   8
BRANCH   6  15
ATOM     15  C7  <0> d           3.153  -0.377  -0.356  0.00  0.00    -0.049 C 
ATOM     16  H8  <0> d           3.330  -1.278   0.231  0.00  0.00     0.033 H 
ATOM     17  H9  <0> d           4.077  -0.076  -0.849  0.00  0.00     0.033 H 
ATOM     18  H10 <0> d           2.813   0.424   0.301  0.00  0.00     0.033 H 
ENDBRANCH   6  15
BRANCH   5  19
ATOM     19  C8  <0> d           3.652  -1.432  -3.254  0.00  0.00    -0.030 C 
ATOM     20  H11 <0> d           3.592  -1.339  -4.338  0.00  0.00     0.041 H 
ATOM     21  H12 <0> d           4.400  -0.738  -2.871  0.00  0.00     0.041 H 
BRANCH  19  22
ATOM     22  C9  <0> d           4.048  -2.863  -2.886  0.00  0.00    -0.071 C 
ATOM     23  H13 <0> d           5.018  -3.096  -3.325  0.00  0.00     0.028 H 
ATOM     24  H14 <0> d           4.108  -2.956  -1.802  0.00  0.00     0.028 H 
ATOM     25  H15 <0> d           3.300  -3.557  -3.270  0.00  0.00     0.028 H 
ENDBRANCH  19  22
ENDBRANCH   5  19
TORSDOF 5
