REMARK  4 active torsions:
REMARK  status: ('A' for Active; 'I' for Inactive)
REMARK    1  A    between atoms: C1_1  and  C2_2 
REMARK    2  A    between atoms: C5_6  and  C6_8 
REMARK    3  A    between atoms: C6_8  and  C7_9 
REMARK    4  A    between atoms: C7_9  and  O1_10 
ROOT
ATOM      1  C2  <0> d           0.002  -0.004   0.002  0.00  0.00     0.034 A 
ATOM      2  C3  <0> d           0.006  -0.700  -1.197  0.00  0.00    -0.043 A 
ATOM      3  C4  <0> d           0.025  -2.085  -1.155  0.00  0.00     0.006 A 
ATOM      4  N1  <0> d           0.039  -2.693   0.020  0.00  0.00    -0.245 NA
ATOM      5  C5  <0> d           0.034  -1.999   1.140  0.00  0.00     0.128 A 
ATOM      6  N2  <0> d           0.022  -0.681   1.139  0.00  0.00    -0.238 NA
ATOM      7  H4  <0> d          -0.006  -0.175  -2.141  0.00  0.00     0.088 H 
ATOM      8  H5  <0> d           0.028  -2.660  -2.069  0.00  0.00     0.114 H 
ENDROOT
BRANCH   5   9
ATOM      9  C6  <0> d           0.050  -2.731   2.457  0.00  0.00     0.011 C 
ATOM     10  H6  <0> d          -0.469  -2.136   3.210  0.00  0.00     0.047 H 
ATOM     11  H7  <0> d          -0.452  -3.692   2.345  0.00  0.00     0.047 H 
BRANCH   9  12
ATOM     12  C7  <0> d           1.498  -2.959   2.897  0.00  0.00     0.023 C 
ATOM     13  H8  <0> d           2.016  -3.554   2.144  0.00  0.00     0.074 H 
ATOM     14  H9  <0> d           1.999  -1.998   3.009  0.00  0.00     0.074 H 
BRANCH  12  15
ATOM     15  O1  <0> d           1.512  -3.654   4.146  0.00  0.00    -0.400 OA
ATOM     16  H10 <0> d           2.400  -3.833   4.486  0.00  0.00     0.209 HD
ENDBRANCH  12  15
ENDBRANCH   9  12
ENDBRANCH   5   9
BRANCH   1  17
ATOM     17  C1  <0> d          -0.018   1.503   0.010  0.00  0.00    -0.035 C 
ATOM     18  H1  <0> d           1.004   1.880   0.003  0.00  0.00     0.035 H 
ATOM     19  H2  <0> d          -0.545   1.864  -0.873  0.00  0.00     0.035 H 
ATOM     20  H3  <0> d          -0.529   1.854   0.907  0.00  0.00     0.035 H 
ENDBRANCH   1  17
TORSDOF 4
