REMARK  4 active torsions:
REMARK  status: ('A' for Active; 'I' for Inactive)
REMARK    1  A    between atoms: C1_1  and  C2_2 
REMARK    2  A    between atoms: C2_2  and  O1_3 
REMARK    3  A    between atoms: O1_3  and  C3_4 
REMARK    4  A    between atoms: C3_4  and  C4_6 
ROOT
ATOM      1  C2  <0> d           0.002  -0.004   0.002  0.00  0.00     0.025 C 
ATOM      2  H4  <0> d          -1.020  -0.381   0.010  0.00  0.00     0.074 H 
ATOM      3  H5  <0> d           0.512  -0.356  -0.895  0.00  0.00     0.074 H 
ENDROOT
BRANCH   1   4
ATOM      4  C1  <0> d          -0.019   1.526   0.010  0.00  0.00    -0.056 C 
ATOM      5  H1  <0> d           1.004   1.903   0.003  0.00  0.00     0.030 H 
ATOM      6  H2  <0> d          -0.546   1.887  -0.873  0.00  0.00     0.030 H 
ATOM      7  H3  <0> d          -0.529   1.877   0.907  0.00  0.00     0.030 H 
ENDBRANCH   1   4
BRANCH   1   8
ATOM      8  O1  <0> d           0.693  -0.477   1.160  0.00  0.00    -0.322 OA
BRANCH   8   9
ATOM      9  C3  <0> d           0.801  -1.808   1.304  0.00  0.00     0.254 C 
ATOM     10  O2  <0> d           0.324  -2.546   0.475  0.00  0.00    -0.266 OA
BRANCH   9  11
ATOM     11  C4  <0> d           1.516  -2.381   2.500  0.00  0.00     0.004 C 
ATOM     12  H6  <0> d           0.804  -2.534   3.311  0.00  0.00     0.041 H 
ATOM     13  H7  <0> d           1.969  -3.334   2.230  0.00  0.00     0.041 H 
ATOM     14  H8  <0> d           2.293  -1.688   2.825  0.00  0.00     0.041 H 
ENDBRANCH   9  11
ENDBRANCH   8   9
ENDBRANCH   1   8
TORSDOF 4
