REMARK  3 active torsions:
REMARK  status: ('A' for Active; 'I' for Inactive)
REMARK    1  A    between atoms: C1_1  and  C2_2 
REMARK    2  A    between atoms: C2_2  and  O1_3 
REMARK    3  A    between atoms: O1_3  and  C3_4 
ROOT
ATOM      1  C3  <0> d           1.095   1.998   0.002  0.00  0.00     0.185 A 
ATOM      2  C4  <0> d           2.333   1.358  -0.013  0.00  0.00    -0.027 A 
ATOM      3  C5  <0> d           2.347  -0.028  -0.021  0.00  0.00    -0.038 A 
ATOM      4  C6  <0> d           1.127  -0.693  -0.012  0.00  0.00     0.148 A 
ATOM      5  N1  <0> d           0.002  -0.004   0.002  0.00  0.00    -0.136 NA
ATOM      6  N2  <0> d          -0.015   1.279   0.009  0.00  0.00    -0.123 NA
ATOM      7 Cl1  <0> d           1.083  -2.428  -0.021  0.00  0.00    -0.061 Cl
ATOM      8  H6  <0> d           3.252   1.924  -0.018  0.00  0.00     0.090 H 
ATOM      9  H7  <0> d           3.278  -0.575  -0.032  0.00  0.00     0.088 H 
ENDROOT
BRANCH   1  10
ATOM     10  O1  <0> d           1.030   3.353   0.010  0.00  0.00    -0.334 OA
BRANCH  10  11
ATOM     11  C2  <0> d          -0.273   3.940   0.025  0.00  0.00     0.024 C 
ATOM     12  H4  <0> d          -0.824   3.625  -0.862  0.00  0.00     0.074 H 
ATOM     13  H5  <0> d          -0.807   3.616   0.918  0.00  0.00     0.074 H 
BRANCH  11  14
ATOM     14  C1  <0> d          -0.147   5.464   0.031  0.00  0.00    -0.056 C 
ATOM     15  H1  <0> d          -1.141   5.912   0.043  0.00  0.00     0.030 H 
ATOM     16  H2  <0> d           0.404   5.779   0.918  0.00  0.00     0.030 H 
ATOM     17  H3  <0> d           0.387   5.788  -0.862  0.00  0.00     0.030 H 
ENDBRANCH  11  14
ENDBRANCH  10  11
ENDBRANCH   1  10
TORSDOF 3
