REMARK  3 active torsions:
REMARK  status: ('A' for Active; 'I' for Inactive)
REMARK    1  A    between atoms: C4_4  and  C7_7 
REMARK    2  A    between atoms: C7_7  and  C8_8 
REMARK    3  A    between atoms: C8_8  and  N2_12 
ROOT
ATOM      1  C8  <0> d          -2.945   0.711   1.462  0.00  0.00     0.216 C 
ATOM      2  H1  <0> d          -2.154   0.203   2.034  0.00  0.00     0.112 H 
ATOM      3  C9  <0> d          -4.144  -0.144   1.465  0.00  0.00     0.095 C 
ATOM      4  N1  <0> d          -5.069  -0.803   1.468  0.00  0.00    -0.195 NA
ENDROOT
BRANCH   1   5
ATOM      5  C7  <0> d          -2.514   0.980   0.019  0.00  0.00    -0.000 C 
ATOM      6  H7  <0> d          -3.291   1.566  -0.492  0.00  0.00     0.044 H 
ATOM      7  H8  <0> d          -2.372   0.023  -0.505  0.00  0.00     0.044 H 
BRANCH   5   8
ATOM      8  C4  <0> d          -1.219   1.751   0.017  0.00  0.00    -0.055 A 
ATOM      9  C3  <0> d          -0.013   1.076   0.008  0.00  0.00    -0.077 A 
ATOM     10  C2  <0> d           1.175   1.783   0.000  0.00  0.00    -0.082 A 
ATOM     11  H4  <0> d           0.002  -0.004   0.002  0.00  0.00     0.084 H 
ATOM     12  C1  <0> d           1.156   3.165   0.008  0.00  0.00    -0.083 A 
ATOM     13  H3  <0> d           2.118   1.256  -0.011  0.00  0.00     0.083 H 
ATOM     14  C6  <0> d          -0.050   3.840   0.022  0.00  0.00    -0.082 A 
ATOM     15  H2  <0> d           2.084   3.718   0.001  0.00  0.00     0.083 H 
ATOM     16  C5  <0> d          -1.238   3.133   0.030  0.00  0.00    -0.077 A 
ATOM     17  H6  <0> d          -0.065   4.920   0.028  0.00  0.00     0.083 H 
ATOM     18  H5  <0> d          -2.180   3.660   0.041  0.00  0.00     0.084 H 
ENDBRANCH   5   8
ENDBRANCH   1   5
BRANCH   1  19
ATOM     19  N2  <0> d          -3.250   1.984   2.128  0.00  0.00     0.096 N 
ATOM     20  H9  <0> d          -3.560   1.791   3.165  0.00  0.00     0.314 HD
ATOM     21  H10 <0> d          -2.355   2.623   2.126  0.00  0.00     0.314 HD
ENDBRANCH   1  19
TORSDOF 3
