REMARK  0 active torsions:
REMARK  status: ('A' for Active; 'I' for Inactive)
ROOT
ATOM      1  C1  <0> d           0.733   3.190   0.012  0.00  0.00    -0.052 A 
ATOM      2  C2  <0> d          -0.808   3.155   0.026  0.00  0.00     0.028 A 
ATOM      3  C3  <0> d          -1.143   1.681   0.016  0.00  0.00     0.226 A 
ATOM      4  O1  <0> d          -2.263   1.218   0.019  0.00  0.00    -0.273 OA
ATOM      5  N1  <0> d          -0.011   0.966   0.007  0.00  0.00    -0.314 N 
ATOM      6  C4  <0> d           1.126   1.729   0.001  0.00  0.00     0.097 A 
ATOM      7  N2  <0> d           2.335   1.276  -0.013  0.00  0.00    -0.386 N 
ATOM      8  H1  <0> d           1.510   3.968   0.008  0.00  0.00     0.083 H 
ATOM      9  H2  <0> d          -1.240   3.635  -0.864  0.00  0.00     0.053 H 
ATOM     10  H3  <0> d          -1.224   3.620   0.932  0.00  0.00     0.053 H 
ATOM     11  H4  <0> d           3.185   1.975  -0.017  0.00  0.00     0.157 HD
ATOM     12  H5  <0> d           2.516   0.191  -0.020  0.00  0.00     0.157 HD
ATOM     13  H6  <0> d           0.063  -0.132   0.005  0.00  0.00     0.170 HD
ENDROOT
TORSDOF 0
