REMARK  3 active torsions:
REMARK  status: ('A' for Active; 'I' for Inactive)
REMARK    1  A    between atoms: C2_2  and  C5_10 
REMARK    2  A    between atoms: C3_4  and  N3_9 
REMARK    3  A    between atoms: C5_10  and  O2_11 
ROOT
ATOM      1  C1  <0> d          -3.581   2.922   0.035  0.00  0.00     0.010 A 
ATOM      2  C2  <0> d          -3.514   1.559   0.027  0.00  0.00     0.082 A 
ATOM      3  N1  <0> d          -2.332   0.948   0.018  0.00  0.00    -0.067 NA
ATOM      4  C3  <0> d          -1.206   1.634   0.017  0.00  0.00     0.701 A 
ATOM      5  N2  <0> d          -1.211   2.994   0.030  0.00  0.00    -0.155 N 
ATOM      6  H1  <0> d          -0.260   3.548   0.037  0.00  0.00     0.187 HD
ATOM      7  C4  <0> d          -2.385   3.661   0.034  0.00  0.00     0.261 A 
ATOM      8  O1  <0> d          -2.408   4.881   0.041  0.00  0.00    -0.268 OA
ATOM      9  H2  <0> d          -4.537   3.424   0.043  0.00  0.00     0.095 H 
ENDROOT
BRANCH   2  10
ATOM     10  C5  <0> d          -4.782   0.743   0.029  0.00  0.00     0.057 C 
ATOM     11  H5  <0> d          -4.764   0.040   0.874  0.00  0.00     0.083 H 
ATOM     12  H6  <0> d          -5.649   1.413   0.127  0.00  0.00     0.083 H 
BRANCH  10  13
ATOM     13  O2  <0> d          -4.880   0.013  -1.196  0.00  0.00    -0.395 OA
ATOM     14  H7  <0> d          -5.744  -0.642  -1.377  0.00  0.00     0.209 HD
ENDBRANCH  10  13
ENDBRANCH   2  10
BRANCH   4  15
ATOM     15  N3  <0> d          -0.011   0.966   0.007  0.00  0.00    -0.233 N 
ATOM     16  H3  <0> d           0.934   1.529   0.006  0.00  0.00     0.174 HD
ATOM     17  H4  <0> d           0.004  -0.134   0.001  0.00  0.00     0.174 HD
ENDBRANCH   4  15
TORSDOF 3
