REMARK  3 active torsions:
REMARK  status: ('A' for Active; 'I' for Inactive)
REMARK    1  A    between atoms: C2_2  and  C5_10 
REMARK    2  A    between atoms: C3_4  and  C4_6 
REMARK    3  A    between atoms: C5_10  and  O1_11 
ROOT
ATOM      1  C1  <0> d          -0.019   1.526   0.010  0.00  0.00    -0.047 A 
ATOM      2  C2  <0> d           1.317   0.779  -0.006  0.00  0.00    -0.021 A 
ATOM      3  H1  <0> d           1.906   0.782   0.910  0.00  0.00     0.044 H 
ATOM      4  C3  <0> d           0.002  -0.004   0.002  0.00  0.00     0.046 A 
ATOM      5  H2  <0> d          -0.290  -0.506  -0.920  0.00  0.00     0.054 H 
ATOM      6  H3  <0> d          -0.307   2.020   0.938  0.00  0.00     0.034 H 
ATOM      7  H4  <0> d          -0.325   2.030  -0.906  0.00  0.00     0.034 H 
ENDROOT
BRANCH   2   8
ATOM      8  C5  <0> d           2.120   0.797  -1.308  0.00  0.00     0.021 C 
ATOM      9  H5  <0> d           2.314  -0.226  -1.630  0.00  0.00     0.074 H 
ATOM     10  H6  <0> d           1.552   1.319  -2.079  0.00  0.00     0.074 H 
BRANCH   8  11
ATOM     11  O1  <0> d           3.361   1.472  -1.093  0.00  0.00    -0.400 OA
ATOM     12  H7  <0> d           3.923   1.522  -1.878  0.00  0.00     0.209 HD
ENDBRANCH   8  11
ENDBRANCH   2   8
BRANCH   4  13
ATOM     13  C4  <0> d          -0.384  -0.723   1.296  0.00  0.00     0.391 C 
ATOM     14  F1  <0> d          -1.606  -1.381   1.118  0.00  0.00    -0.171 F 
ATOM     15  F2  <0> d           0.605  -1.657   1.624  0.00  0.00    -0.171 F 
ATOM     16  F3  <0> d          -0.504   0.211   2.331  0.00  0.00    -0.171 F 
ENDBRANCH   4  13
TORSDOF 3
