REMARK  4 active torsions:
REMARK  status: ('A' for Active; 'I' for Inactive)
REMARK    1  A    between atoms: C1_1  and  C2_2 
REMARK    2  A    between atoms: C2_2  and  C3_3 
REMARK    3  A    between atoms: C4_4  and  C7_9 
REMARK    4  A    between atoms: C7_9  and  C8_10 
ROOT
ATOM      1  C3  <0> d           2.308  -0.014  -0.160  0.00  0.00     0.058 A 
ATOM      2  C4  <0> d           2.281   1.368  -0.104  0.00  0.00     0.058 A 
ATOM      3  N1  <0> d           1.131   2.001   0.044  0.00  0.00    -0.262 NA
ATOM      4  C5  <0> d           0.006   1.314   0.139  0.00  0.00     0.019 A 
ATOM      5  C6  <0> d           0.033  -0.068   0.083  0.00  0.00     0.019 A 
ATOM      6  N2  <0> d           1.183  -0.701  -0.065  0.00  0.00    -0.262 NA
ATOM      7  H6  <0> d          -0.935   1.832   0.255  0.00  0.00     0.117 H 
ATOM      8  H7  <0> d          -0.887  -0.629   0.160  0.00  0.00     0.117 H 
ENDROOT
BRANCH   1   9
ATOM      9  C2  <0> d           3.620  -0.737  -0.329  0.00  0.00    -0.026 C 
ATOM     10  H4  <0> d           4.420  -0.143   0.113  0.00  0.00     0.041 H 
ATOM     11  H5  <0> d           3.568  -1.705   0.170  0.00  0.00     0.041 H 
BRANCH   9  12
ATOM     12  C1  <0> d           3.900  -0.944  -1.818  0.00  0.00    -0.071 C 
ATOM     13  H1  <0> d           3.145  -1.606  -2.241  0.00  0.00     0.028 H 
ATOM     14  H2  <0> d           3.868   0.017  -2.331  0.00  0.00     0.028 H 
ATOM     15  H3  <0> d           4.886  -1.391  -1.944  0.00  0.00     0.028 H 
ENDBRANCH   9  12
ENDBRANCH   1   9
BRANCH   2  16
ATOM     16  C7  <0> d           3.564   2.151  -0.212  0.00  0.00    -0.026 C 
ATOM     17  H8  <0> d           4.283   1.591  -0.810  0.00  0.00     0.041 H 
ATOM     18  H9  <0> d           3.365   3.112  -0.688  0.00  0.00     0.041 H 
BRANCH  16  19
ATOM     19  C8  <0> d           4.138   2.385   1.187  0.00  0.00    -0.071 C 
ATOM     20  H10 <0> d           5.027   3.011   1.115  0.00  0.00     0.028 H 
ATOM     21  H11 <0> d           3.392   2.883   1.807  0.00  0.00     0.028 H 
ATOM     22  H12 <0> d           4.403   1.428   1.636  0.00  0.00     0.028 H 
ENDBRANCH  16  19
ENDBRANCH   2  16
TORSDOF 4
