REMARK  0 active torsions:
REMARK  status: ('A' for Active; 'I' for Inactive)
ROOT
ATOM      1  C1  <0> d           3.579  -0.698  -0.035  0.00  0.00    -0.045 A 
ATOM      2  C2  <0> d           3.491  -2.081  -0.042  0.00  0.00     0.025 A 
ATOM      3  N1  <0> d           2.310  -2.673  -0.034  0.00  0.00    -0.161 NA
ATOM      4  N2  <0> d           1.198  -2.028  -0.020  0.00  0.00    -0.129 NA
ATOM      5  C3  <0> d           1.164  -0.698  -0.013  0.00  0.00     0.188 A 
ATOM      6  C4  <0> d           2.383   0.018  -0.021  0.00  0.00     0.085 A 
ATOM      7  C5  <0> d           2.331   1.486  -0.012  0.00  0.00     0.282 A 
ATOM      8  O1  <0> d           3.346   2.157  -0.018  0.00  0.00    -0.265 OA
ATOM      9  N3  <0> d           1.104   2.062   0.003  0.00  0.00    -0.203 NA
ATOM     10  C6  <0> d          -0.015   1.295   0.009  0.00  0.00     0.092 A 
ATOM     11  N4  <0> d           0.002  -0.004   0.002  0.00  0.00    -0.220 NA
ATOM     12  H1  <0> d           4.535  -0.195  -0.042  0.00  0.00     0.087 H 
ATOM     13  H2  <0> d           4.391  -2.677  -0.053  0.00  0.00     0.117 H 
ATOM     14  H3  <0> d          -0.974   1.793   0.016  0.00  0.00     0.146 H 
ENDROOT
TORSDOF 0
