REMARK  2 active torsions:
REMARK  status: ('A' for Active; 'I' for Inactive)
REMARK    1  A    between atoms: C1_1  and  C2_2 
REMARK    2  A    between atoms: C8_11  and  C9_12 
ROOT
ATOM      1  C2  <0> d           0.546   4.051   0.019  0.00  0.00    -0.037 A 
ATOM      2  C3  <0> d           1.608   3.167   0.004  0.00  0.00    -0.062 A 
ATOM      3  C4  <0> d           1.325   1.799  -0.001  0.00  0.00     0.012 A 
ATOM      4  C5  <0> d           2.142   0.585  -0.015  0.00  0.00    -0.054 A 
ATOM      5  C6  <0> d           1.295  -0.455  -0.013  0.00  0.00    -0.020 A 
ATOM      6  N1  <0> d           0.002  -0.004   0.002  0.00  0.00    -0.350 N 
ATOM      7  H1  <0> d          -0.785  -0.571   0.007  0.00  0.00     0.166 HD
ATOM      8  C7  <0> d          -0.017   1.370   0.010  0.00  0.00     0.138 A 
ATOM      9  N2  <0> d          -0.996   2.265   0.029  0.00  0.00    -0.235 NA
ATOM     10  C8  <0> d          -0.750   3.558   0.028  0.00  0.00     0.039 A 
ATOM     11  H5  <0> d           2.628   3.523  -0.004  0.00  0.00     0.085 H 
ATOM     12  H6  <0> d           3.221   0.536  -0.026  0.00  0.00     0.087 H 
ATOM     13  H7  <0> d           1.589  -1.495  -0.021  0.00  0.00     0.111 H 
ENDROOT
BRANCH   1  14
ATOM     14  C1  <0> d           0.793   5.537   0.025  0.00  0.00    -0.049 C 
ATOM     15  H2  <0> d           0.843   5.902  -1.002  0.00  0.00     0.033 H 
ATOM     16  H3  <0> d          -0.020   6.039   0.549  0.00  0.00     0.033 H 
ATOM     17  H4  <0> d           1.736   5.747   0.531  0.00  0.00     0.033 H 
ENDBRANCH   1  14
BRANCH  10  18
ATOM     18  C9  <0> d          -1.905   4.526   0.044  0.00  0.00    -0.035 C 
ATOM     19  H8  <0> d          -2.193   4.764  -0.980  0.00  0.00     0.035 H 
ATOM     20  H9  <0> d          -2.750   4.074   0.564  0.00  0.00     0.035 H 
ATOM     21  H10 <0> d          -1.607   5.439   0.560  0.00  0.00     0.035 H 
ENDBRANCH  10  18
TORSDOF 2
