REMARK  2 active torsions:
REMARK  status: ('A' for Active; 'I' for Inactive)
REMARK    1  A    between atoms: C1_1  and  C2_2 
REMARK    2  A    between atoms: C4_4  and  O1_12 
ROOT
ATOM      1  C2  <0> d          -2.648   3.591   0.046  0.00  0.00    -0.052 A 
ATOM      2  C3  <0> d          -3.474   2.560   0.050  0.00  0.00    -0.065 A 
ATOM      3  C4  <0> d          -2.651   1.293   0.035  0.00  0.00     0.078 A 
ATOM      4  H1  <0> d          -2.872   0.710  -0.859  0.00  0.00     0.097 H 
ATOM      5  C5  <0> d          -1.212   1.748   0.017  0.00  0.00    -0.015 A 
ATOM      6  C6  <0> d          -1.242   3.144   0.030  0.00  0.00    -0.021 A 
ATOM      7  C7  <0> d          -0.038   3.851   0.022  0.00  0.00    -0.072 A 
ATOM      8  C8  <0> d           1.160   3.168   0.007  0.00  0.00    -0.082 A 
ATOM      9  C9  <0> d           1.177   1.785   0.000  0.00  0.00    -0.082 A 
ATOM     10  C10 <0> d          -0.013   1.076   0.008  0.00  0.00    -0.073 A 
ATOM     11  H5  <0> d          -4.553   2.614   0.061  0.00  0.00     0.082 H 
ATOM     12  H6  <0> d          -0.045   4.931   0.026  0.00  0.00     0.084 H 
ATOM     13  H7  <0> d           2.091   3.716   0.000  0.00  0.00     0.083 H 
ATOM     14  H8  <0> d           2.119   1.257  -0.011  0.00  0.00     0.083 H 
ATOM     15  H9  <0> d           0.002  -0.004   0.002  0.00  0.00     0.084 H 
ENDROOT
BRANCH   1  16
ATOM     16  C1  <0> d          -3.083   5.033   0.058  0.00  0.00    -0.051 C 
ATOM     17  H2  <0> d          -3.199   5.386  -0.967  0.00  0.00     0.033 H 
ATOM     18  H3  <0> d          -4.035   5.121   0.582  0.00  0.00     0.033 H 
ATOM     19  H4  <0> d          -2.332   5.636   0.567  0.00  0.00     0.033 H 
ENDBRANCH   1  16
BRANCH   3  20
ATOM     20  O1  <0> d          -2.915   0.518   1.207  0.00  0.00    -0.387 OA
ATOM     21  H10 <0> d          -3.835   0.230   1.290  0.00  0.00     0.210 HD
ENDBRANCH   3  20
TORSDOF 2
