REMARK  8 active torsions:
REMARK  status: ('A' for Active; 'I' for Inactive)
REMARK    1  A    between atoms: C1_1  and  C2_2 
REMARK    2  A    between atoms: C2_2  and  C3_3 
REMARK    3  A    between atoms: C3_3  and  C4_4 
REMARK    4  A    between atoms: C4_4  and  C5_6 
REMARK    5  A    between atoms: C4_4  and  O1_8 
REMARK    6  A    between atoms: C5_6  and  C6_7 
REMARK    7  A    between atoms: O1_8  and  C7_9 
REMARK    8  A    between atoms: C7_9  and  C8_11 
ROOT
ATOM      1  C4  <0> d          -2.164   1.050   1.278  0.00  0.00     0.047 C 
ATOM      2  H1  <0> d          -2.664   1.336   0.353  0.00  0.00     0.084 H 
ENDROOT
BRANCH   1   3
ATOM      3  C3  <0> d          -2.918   1.643   2.470  0.00  0.00    -0.041 C 
ATOM      4  H7  <0> d          -2.471   1.284   3.397  0.00  0.00     0.036 H 
ATOM      5  H8  <0> d          -2.856   2.731   2.434  0.00  0.00     0.036 H 
BRANCH   3   6
ATOM      6  C2  <0> d          -4.385   1.213   2.411  0.00  0.00    -0.066 C 
ATOM      7  H5  <0> d          -4.832   1.572   1.484  0.00  0.00     0.032 H 
ATOM      8  H6  <0> d          -4.447   0.126   2.447  0.00  0.00     0.032 H 
BRANCH   6   9
ATOM      9  C1  <0> d          -5.138   1.807   3.603  0.00  0.00    -0.076 C 
ATOM     10  H2  <0> d          -5.077   2.894   3.567  0.00  0.00     0.027 H 
ATOM     11  H3  <0> d          -6.184   1.500   3.561  0.00  0.00     0.027 H 
ATOM     12  H4  <0> d          -4.692   1.448   4.530  0.00  0.00     0.027 H 
ENDBRANCH   6   9
ENDBRANCH   3   6
ENDBRANCH   1   3
BRANCH   1  13
ATOM     13  C5  <0> d          -0.729   1.579   1.267  0.00  0.00    -0.044 C 
ATOM     14  H9  <0> d          -0.202   1.218   2.150  0.00  0.00     0.036 H 
ATOM     15  H10 <0> d          -0.744   2.669   1.273  0.00  0.00     0.036 H 
BRANCH  13  16
ATOM     16  C6  <0> d          -0.013   1.086   0.008  0.00  0.00    -0.074 C 
ATOM     17  H11 <0> d           0.002  -0.004   0.002  0.00  0.00     0.027 H 
ATOM     18  H12 <0> d           1.010   1.463   0.000  0.00  0.00     0.027 H 
ATOM     19  H13 <0> d          -0.540   1.447  -0.875  0.00  0.00     0.027 H 
ENDBRANCH  13  16
ENDBRANCH   1  13
BRANCH   1  20
ATOM     20  O1  <0> d          -2.145  -0.398   1.389  0.00  0.00    -0.316 OA
BRANCH  20  21
ATOM     21  C7  <0> d          -2.112  -1.097   0.243  0.00  0.00     0.255 C 
ATOM     22  O2  <0> d          -2.100  -0.518  -0.817  0.00  0.00    -0.266 OA
BRANCH  21  23
ATOM     23  C8  <0> d          -2.091  -2.603   0.280  0.00  0.00     0.004 C 
ATOM     24  H14 <0> d          -2.107  -2.942   1.316  0.00  0.00     0.041 H 
ATOM     25  H15 <0> d          -2.966  -2.992  -0.242  0.00  0.00     0.041 H 
ATOM     26  H16 <0> d          -1.186  -2.966  -0.207  0.00  0.00     0.041 H 
ENDBRANCH  21  23
ENDBRANCH  20  21
ENDBRANCH   1  20
TORSDOF 8
