REMARK  0 active torsions:
REMARK  status: ('A' for Active; 'I' for Inactive)
ROOT
ATOM      1  C1  <0> d           1.105   3.541   0.010  0.00  0.00    -0.043 A 
ATOM      2  C2  <0> d          -0.136   4.151   0.025  0.00  0.00     0.004 A 
ATOM      3  N1  <0> d          -1.246   3.438   0.031  0.00  0.00    -0.271 NA
ATOM      4  C3  <0> d          -1.228   2.121   0.019  0.00  0.00     0.024 A 
ATOM      5  C4  <0> d          -0.017   1.428   0.010  0.00  0.00     0.083 A 
ATOM      6  C5  <0> d           1.180   2.158   0.002  0.00  0.00     0.057 A 
ATOM      7 Cl1  <0> d           2.716   1.349  -0.017  0.00  0.00    -0.083 Cl
ATOM      8  C6  <0> d           0.002  -0.004   0.002  0.00  0.00     0.102 C 
ATOM      9  N2  <0> d           0.018  -1.140  -0.004  0.00  0.00    -0.191 NA
ATOM     10  H1  <0> d           2.006   4.136   0.005  0.00  0.00     0.088 H 
ATOM     11  H2  <0> d          -0.197   5.229   0.031  0.00  0.00     0.114 H 
ATOM     12  H3  <0> d          -2.159   1.573   0.021  0.00  0.00     0.117 H 
ENDROOT
TORSDOF 0
