REMARK  2 active torsions:
REMARK  status: ('A' for Active; 'I' for Inactive)
REMARK    1  A    between atoms: C6_6  and  C7_7 
REMARK    2  A    between atoms: C7_7  and  C8_8 
ROOT
ATOM      1  C8  <0> d          -0.753   1.593  -1.232  0.00  0.00     0.018 C 
ATOM      2  C9  <0> d          -0.064   1.118  -2.443  0.00  0.00     0.059 C 
ATOM      3  N1  <0> d           0.468   0.752  -3.377  0.00  0.00    -0.197 NA
ATOM      4  H7  <0> d          -1.785   1.212  -1.224  0.00  0.00     0.055 H 
ATOM      5  H8  <0> d          -0.768   2.693  -1.225  0.00  0.00     0.055 H 
ENDROOT
BRANCH   1   6
ATOM      6  C7  <0> d          -0.013   1.086   0.008  0.00  0.00    -0.030 C 
ATOM      7  H5  <0> d           1.019   1.466   0.000  0.00  0.00     0.041 H 
ATOM      8  H6  <0> d           0.002  -0.014   0.002  0.00  0.00     0.041 H 
BRANCH   6   9
ATOM      9  C6  <0> d          -0.718   1.572   1.248  0.00  0.00    -0.057 A 
ATOM     10  C1  <0> d          -0.359   2.779   1.818  0.00  0.00    -0.074 A 
ATOM     11  C2  <0> d          -1.009   3.228   2.953  0.00  0.00    -0.045 A 
ATOM     12  H1  <0> d           0.426   3.373   1.375  0.00  0.00     0.084 H 
ATOM     13  C3  <0> d          -2.012   2.463   3.524  0.00  0.00     0.116 A 
ATOM     14  H2  <0> d          -0.731   4.173   3.396  0.00  0.00     0.088 H 
ATOM     15  C4  <0> d          -2.367   1.252   2.955  0.00  0.00    -0.045 A 
ATOM     16  F1  <0> d          -2.644   2.899   4.635  0.00  0.00    -0.206 F 
ATOM     17  C5  <0> d          -1.719   0.807   1.817  0.00  0.00    -0.074 A 
ATOM     18  H3  <0> d          -3.149   0.655   3.399  0.00  0.00     0.088 H 
ATOM     19  H4  <0> d          -1.996  -0.137   1.373  0.00  0.00     0.084 H 
ENDBRANCH   6   9
ENDBRANCH   1   6
TORSDOF 2
