REMARK  5 active torsions:
REMARK  status: ('A' for Active; 'I' for Inactive)
REMARK    1  A    between atoms: C4_4  and  C7_7 
REMARK    2  A    between atoms: C7_7  and  O1_8 
REMARK    3  A    between atoms: O1_8  and  C8_9 
REMARK    4  A    between atoms: C8_9  and  C9_10 
REMARK    5  A    between atoms: C9_10  and  O2_11 
ROOT
ATOM      1  C7  <0> d           0.002  -0.004   0.002  0.00  0.00     0.043 C 
ATOM      2  H6  <0> d          -0.888  -0.377  -0.505  0.00  0.00     0.081 H 
ATOM      3  H7  <0> d           0.892  -0.352  -0.522  0.00  0.00     0.081 H 
ENDROOT
BRANCH   1   4
ATOM      4  C4  <0> d          -0.018   1.503   0.010  0.00  0.00    -0.035 A 
ATOM      5  C3  <0> d           1.169   2.210   0.003  0.00  0.00    -0.075 A 
ATOM      6  C2  <0> d           1.151   3.592   0.010  0.00  0.00    -0.082 A 
ATOM      7  H3  <0> d           2.112   1.683  -0.009  0.00  0.00     0.084 H 
ATOM      8  C1  <0> d          -0.056   4.267   0.025  0.00  0.00    -0.083 A 
ATOM      9  H2  <0> d           2.078   4.145   0.004  0.00  0.00     0.083 H 
ATOM     10  C6  <0> d          -1.244   3.560   0.032  0.00  0.00    -0.082 A 
ATOM     11  H1  <0> d          -0.070   5.347   0.031  0.00  0.00     0.083 H 
ATOM     12  C5  <0> d          -1.225   2.178   0.020  0.00  0.00    -0.075 A 
ATOM     13  H5  <0> d          -2.186   4.087   0.044  0.00  0.00     0.083 H 
ATOM     14  H4  <0> d          -2.153   1.625   0.021  0.00  0.00     0.084 H 
ENDBRANCH   1   4
BRANCH   1  15
ATOM     15  O1  <0> d           0.021  -0.488   1.347  0.00  0.00    -0.385 OA
BRANCH  15  16
ATOM     16  C8  <0> d           0.042  -1.913   1.452  0.00  0.00     0.039 C 
ATOM     17  H8  <0> d          -0.847  -2.325   0.974  0.00  0.00     0.077 H 
ATOM     18  H9  <0> d           0.932  -2.301   0.957  0.00  0.00     0.077 H 
BRANCH  16  19
ATOM     19  C9  <0> d           0.061  -2.315   2.928  0.00  0.00     0.036 C 
ATOM     20  H10 <0> d           0.166  -3.397   3.008  0.00  0.00     0.077 H 
ATOM     21  H11 <0> d           0.901  -1.830   3.425  0.00  0.00     0.077 H 
BRANCH  19  22
ATOM     22  O2  <0> d          -1.160  -1.908   3.549  0.00  0.00    -0.399 OA
ATOM     23  H12 <0> d          -1.217  -2.131   4.488  0.00  0.00     0.209 HD
ENDBRANCH  19  22
ENDBRANCH  16  19
ENDBRANCH  15  16
ENDBRANCH   1  15
TORSDOF 5
