REMARK  2 active torsions:
REMARK  status: ('A' for Active; 'I' for Inactive)
REMARK    1  A    between atoms: C3_3  and  C4_4 
REMARK    2  A    between atoms: C4_4  and  O1_5 
ROOT
ATOM      1  C1  <0> d          -0.019   1.526   0.010  0.00  0.00    -0.042 A 
ATOM      2  C2  <0> d           1.317   0.779  -0.006  0.00  0.00    -0.042 A 
ATOM      3  C3  <0> d           0.002  -0.004   0.002  0.00  0.00     0.070 A 
ATOM      4  C5  <0> d          -0.369  -0.696   1.247  0.00  0.00     0.071 C 
ATOM      5  N1  <0> d          -0.656  -1.229   2.208  0.00  0.00    -0.196 NA
ATOM      6  H1  <0> d          -0.307   2.020   0.938  0.00  0.00     0.035 H 
ATOM      7  H2  <0> d          -0.325   2.030  -0.906  0.00  0.00     0.035 H 
ATOM      8  H3  <0> d           1.889   0.792  -0.934  0.00  0.00     0.035 H 
ATOM      9  H4  <0> d           1.906   0.782   0.910  0.00  0.00     0.035 H 
ENDROOT
BRANCH   3  10
ATOM     10  C4  <0> d          -0.408  -0.709  -1.292  0.00  0.00     0.036 C 
ATOM     11  H5  <0> d          -1.432  -0.433  -1.547  0.00  0.00     0.076 H 
ATOM     12  H6  <0> d           0.261  -0.407  -2.098  0.00  0.00     0.076 H 
BRANCH  10  13
ATOM     13  O1  <0> d          -0.328  -2.124  -1.110  0.00  0.00    -0.399 OA
ATOM     14  H7  <0> d          -0.574  -2.636  -1.893  0.00  0.00     0.209 HD
ENDBRANCH  10  13
ENDBRANCH   3  10
TORSDOF 2
