REMARK  4 active torsions:
REMARK  status: ('A' for Active; 'I' for Inactive)
REMARK    1  A    between atoms: C1_1  and  C2_2 
REMARK    2  A    between atoms: C2_2  and  C5_7 
REMARK    3  A    between atoms: C5_7  and  C6_8 
REMARK    4  A    between atoms: C6_8  and  C7_9 
ROOT
ATOM      1  C2  <0> d          -2.090   1.877  -0.641  0.00  0.00     0.161 C 
ATOM      2  O1  <0> d          -0.766   1.591  -1.112  0.00  0.00    -0.353 OA
ATOM      3  C3  <0> d          -0.013   1.086   0.008  0.00  0.00     0.043 C 
ATOM      4  C4  <0> d          -0.799   1.616   1.233  0.00  0.00     0.043 C 
ATOM      5  O2  <0> d          -2.168   1.538   0.753  0.00  0.00    -0.353 OA
ATOM      6  H4  <0> d           0.012  -0.013  -0.033  0.00  0.00     0.077 H 
ATOM      7  H5  <0> d           1.014   1.478  -0.034  0.00  0.00     0.077 H 
ATOM      8  H6  <0> d          -0.605   0.969   2.101  0.00  0.00     0.077 H 
ATOM      9  H7  <0> d          -0.475   2.642   1.460  0.00  0.00     0.077 H 
ENDROOT
BRANCH   1  10
ATOM     10  C1  <0> d          -2.391   3.366  -0.824  0.00  0.00    -0.025 C 
ATOM     11  H1  <0> d          -2.331   3.624  -1.892  0.00  0.00     0.035 H 
ATOM     12  H2  <0> d          -1.656   3.960  -0.261  0.00  0.00     0.035 H 
ATOM     13  H3  <0> d          -3.402   3.584  -0.450  0.00  0.00     0.035 H 
ENDBRANCH   1  10
BRANCH   1  14
ATOM     14  C5  <0> d          -3.106   1.047  -1.429  0.00  0.00    -0.004 C 
ATOM     15  H8  <0> d          -4.119   1.258  -1.057  0.00  0.00     0.041 H 
ATOM     16  H9  <0> d          -3.045   1.308  -2.496  0.00  0.00     0.041 H 
BRANCH  14  17
ATOM     17  C6  <0> d          -2.797  -0.441  -1.250  0.00  0.00     0.020 C 
ATOM     18  H10 <0> d          -1.784  -0.653  -1.622  0.00  0.00     0.049 H 
ATOM     19  H11 <0> d          -2.858  -0.703  -0.184  0.00  0.00     0.049 H 
BRANCH  17  20
ATOM     20  C7  <0> d          -3.798  -1.258  -2.026  0.00  0.00     0.172 C 
ATOM     21  O3  <0> d          -4.668  -0.708  -2.657  0.00  0.00    -0.648 OA
ATOM     22  O4  <0> d          -3.722  -2.599  -2.016  0.00  0.00    -0.648 OA
ENDBRANCH  17  20
ENDBRANCH  14  17
ENDBRANCH   1  14
TORSDOF 4
