REMARK  4 active torsions:
REMARK  status: ('A' for Active; 'I' for Inactive)
REMARK    1  A    between atoms: C1_1  and  C2_2 
REMARK    2  A    between atoms: C2_2  and  C7_8 
REMARK    3  A    between atoms: C7_8  and  O3_10 
REMARK    4  A    between atoms: O3_10  and  C8_11 
ROOT
ATOM      1  C2  <0> d           0.002  -0.004   0.002  0.00  0.00     0.144 C 
ATOM      2  C3  <0> d          -1.434  -0.534   0.014  0.00  0.00    -0.027 C 
ATOM      3  C4  <0> d          -2.124  -0.086   1.306  0.00  0.00    -0.060 C 
ATOM      4  C5  <0> d          -1.311  -0.582   2.506  0.00  0.00    -0.045 C 
ATOM      5  C6  <0> d           0.120  -0.050   2.397  0.00  0.00     0.021 C 
ATOM      6  O1  <0> d           0.693  -0.478   1.160  0.00  0.00    -0.370 OA
ATOM      7  H4  <0> d          -1.976  -0.138  -0.845  0.00  0.00     0.038 H 
ATOM      8  H5  <0> d          -1.421  -1.623  -0.033  0.00  0.00     0.038 H 
ATOM      9  H6  <0> d          -2.182   1.002   1.330  0.00  0.00     0.033 H 
ATOM     10  H7  <0> d          -3.129  -0.506   1.347  0.00  0.00     0.033 H 
ATOM     11  H8  <0> d          -1.765  -0.221   3.428  0.00  0.00     0.036 H 
ATOM     12  H9  <0> d          -1.296  -1.672   2.509  0.00  0.00     0.036 H 
ATOM     13  H10 <0> d           0.107   1.039   2.434  0.00  0.00     0.074 H 
ATOM     14  H11 <0> d           0.715  -0.435   3.225  0.00  0.00     0.074 H 
ENDROOT
BRANCH   1  15
ATOM     15  C1  <0> d          -0.019   1.526   0.010  0.00  0.00    -0.039 C 
ATOM     16  H1  <0> d           1.004   1.903   0.003  0.00  0.00     0.032 H 
ATOM     17  H2  <0> d          -0.546   1.887  -0.873  0.00  0.00     0.032 H 
ATOM     18  H3  <0> d          -0.529   1.877   0.907  0.00  0.00     0.032 H 
ENDBRANCH   1  15
BRANCH   1  19
ATOM     19  C7  <0> d           0.707  -0.490  -1.238  0.00  0.00     0.293 C 
ATOM     20  O2  <0> d           0.068  -0.781  -2.221  0.00  0.00    -0.262 OA
BRANCH  19  21
ATOM     21  O3  <0> d           2.045  -0.600  -1.250  0.00  0.00    -0.324 OA
BRANCH  21  22
ATOM     22  C8  <0> d           2.646  -1.068  -2.459  0.00  0.00     0.013 C 
ATOM     23  H12 <0> d           2.268  -2.063  -2.692  0.00  0.00     0.067 H 
ATOM     24  H13 <0> d           2.401  -0.386  -3.274  0.00  0.00     0.067 H 
ATOM     25  H14 <0> d           3.728  -1.110  -2.334  0.00  0.00     0.067 H 
ENDBRANCH  21  22
ENDBRANCH  19  21
ENDBRANCH   1  19
TORSDOF 4
