REMARK  6 active torsions:
REMARK  status: ('A' for Active; 'I' for Inactive)
REMARK    1  A    between atoms: C1_1  and  C2_2 
REMARK    2  A    between atoms: C2_2  and  C3_3 
REMARK    3  A    between atoms: C3_3  and  C4_4 
REMARK    4  A    between atoms: C4_4  and  C5_6 
REMARK    5  A    between atoms: C4_4  and  C6_7 
REMARK    6  A    between atoms: C6_7  and  C8_11 
REMARK       I    between atoms: C8_11  and  N2_13 
ROOT
ATOM      1  C6  <0> d          -0.750   3.109   1.275  0.00  0.00     0.110 C 
ATOM      2  H2  <0> d          -1.277   3.470   0.392  0.00  0.00     0.078 H 
ATOM      3  C7  <0> d           0.631   3.619   1.265  0.00  0.00     0.073 C 
ATOM      4  N1  <0> d           1.697   4.012   1.257  0.00  0.00    -0.196 NA
ENDROOT
BRANCH   1   5
ATOM      5  C4  <0> d          -0.729   1.579   1.267  0.00  0.00    -0.034 C 
ATOM      6  H1  <0> d          -0.202   1.218   2.150  0.00  0.00     0.042 H 
BRANCH   5   7
ATOM      7  C3  <0> d          -2.164   1.050   1.278  0.00  0.00    -0.061 C 
ATOM      8  H8  <0> d          -2.701   1.472   2.127  0.00  0.00     0.033 H 
ATOM      9  H9  <0> d          -2.664   1.336   0.353  0.00  0.00     0.033 H 
BRANCH   7  10
ATOM     10  C2  <0> d          -2.144  -0.476   1.395  0.00  0.00    -0.068 C 
ATOM     11  H6  <0> d          -1.607  -0.898   0.546  0.00  0.00     0.032 H 
ATOM     12  H7  <0> d          -1.644  -0.762   2.320  0.00  0.00     0.032 H 
BRANCH  10  13
ATOM     13  C1  <0> d          -3.580  -1.005   1.406  0.00  0.00    -0.077 C 
ATOM     14  H3  <0> d          -3.565  -2.092   1.490  0.00  0.00     0.027 H 
ATOM     15  H4  <0> d          -4.116  -0.583   2.255  0.00  0.00     0.027 H 
ATOM     16  H5  <0> d          -4.080  -0.719   0.481  0.00  0.00     0.027 H 
ENDBRANCH  10  13
ENDBRANCH   7  10
ENDBRANCH   5   7
BRANCH   5  17
ATOM     17  C5  <0> d          -0.013   1.086   0.008  0.00  0.00    -0.071 C 
ATOM     18  H10 <0> d           0.002  -0.004   0.002  0.00  0.00     0.028 H 
ATOM     19  H11 <0> d           1.010   1.463   0.000  0.00  0.00     0.028 H 
ATOM     20  H12 <0> d          -0.540   1.447  -0.875  0.00  0.00     0.028 H 
ENDBRANCH   5  17
ENDBRANCH   1   5
BRANCH   1  21
ATOM     21  C8  <0> d          -1.455   3.595   2.515  0.00  0.00     0.233 C 
ATOM     22  O1  <0> d          -1.897   2.796   3.313  0.00  0.00    -0.272 OA
ATOM     23  N2  <0> d          -1.594   4.917   2.737  0.00  0.00    -0.369 N 
ATOM     24  H13 <0> d          -1.240   5.556   2.098  0.00  0.00     0.159 HD
ATOM     25  H14 <0> d          -2.048   5.230   3.535  0.00  0.00     0.159 HD
ENDBRANCH   1  21
TORSDOF 6
