REMARK  5 active torsions:
REMARK  status: ('A' for Active; 'I' for Inactive)
REMARK    1  A    between atoms: C1_1  and  C2_2 
REMARK    2  A    between atoms: C2_2  and  C3_3 
REMARK    3  A    between atoms: C2_2  and  O1_4 
REMARK    4  A    between atoms: O1_4  and  C4_5 
REMARK    5  A    between atoms: C7_8  and  N1_11 
ROOT
ATOM      1  C4  <0> d           1.200  -0.698  -0.228  0.00  0.00     0.069 A 
ATOM      2  C5  <0> d          -0.012  -0.053  -0.425  0.00  0.00    -0.049 A 
ATOM      3  C6  <0> d          -0.043   1.312  -0.635  0.00  0.00    -0.055 A 
ATOM      4  C7  <0> d           1.141   2.039  -0.649  0.00  0.00     0.025 A 
ATOM      5  C8  <0> d           2.354   1.393  -0.450  0.00  0.00    -0.055 A 
ATOM      6  C9  <0> d           2.383   0.028  -0.241  0.00  0.00    -0.049 A 
ATOM      7  H8  <0> d          -0.932  -0.618  -0.414  0.00  0.00     0.087 H 
ATOM      8  H9  <0> d          -0.986   1.813  -0.793  0.00  0.00     0.087 H 
ATOM      9  H10 <0> d           3.274   1.957  -0.460  0.00  0.00     0.087 H 
ATOM     10  H11 <0> d           3.326  -0.475  -0.087  0.00  0.00     0.087 H 
ENDROOT
BRANCH   1  11
ATOM     11  O1  <0> d           1.230  -2.041  -0.022  0.00  0.00    -0.347 OA
BRANCH  11  12
ATOM     12  C2  <0> d          -0.029  -2.707   0.098  0.00  0.00     0.038 C 
ATOM     13  H4  <0> d          -0.739  -2.054   0.606  0.00  0.00     0.082 H 
BRANCH  12  14
ATOM     14  C1  <0> d          -0.559  -3.050  -1.296  0.00  0.00    -0.052 C 
ATOM     15  H1  <0> d           0.150  -3.702  -1.804  0.00  0.00     0.030 H 
ATOM     16  H2  <0> d          -1.519  -3.557  -1.205  0.00  0.00     0.030 H 
ATOM     17  H3  <0> d          -0.686  -2.133  -1.872  0.00  0.00     0.030 H 
ENDBRANCH  12  14
BRANCH  12  18
ATOM     18  C3  <0> d           0.149  -3.994   0.906  0.00  0.00    -0.052 C 
ATOM     19  H5  <0> d           0.527  -3.750   1.899  0.00  0.00     0.030 H 
ATOM     20  H6  <0> d          -0.811  -4.502   0.997  0.00  0.00     0.030 H 
ATOM     21  H7  <0> d           0.859  -4.647   0.398  0.00  0.00     0.030 H 
ENDBRANCH  12  18
ENDBRANCH  11  12
ENDBRANCH   1  11
BRANCH   4  22
ATOM     22  N1  <0> d           1.110   3.421  -0.862  0.00  0.00    -0.399 N 
ATOM     23  H12 <0> d           0.263   3.872  -1.000  0.00  0.00     0.156 HD
ATOM     24  H13 <0> d           1.937   3.929  -0.872  0.00  0.00     0.156 HD
ENDBRANCH   4  22
TORSDOF 5
