REMARK  1 active torsions:
REMARK  status: ('A' for Active; 'I' for Inactive)
REMARK    1  A    between atoms: C1_1  and  C2_2 
ROOT
ATOM      1  C2  <0> d          -0.742   1.585  -1.213  0.00  0.00     0.097 A 
ATOM      2  N1  <0> d          -2.021   1.851  -1.384  0.00  0.00    -0.145 NA
ATOM      3  N2  <0> d          -2.417   2.265  -2.510  0.00  0.00    -0.113 NA
ATOM      4  C3  <0> d          -1.589   2.440  -3.519  0.00  0.00     0.264 A 
ATOM      5  S1  <0> d          -0.114   1.992  -2.836  0.00  0.00    -0.024 SA
ATOM      6  O1  <0> d          -1.853   2.873  -4.777  0.00  0.00    -0.160 OA
ENDROOT
BRANCH   1   7
ATOM      7  C1  <0> d          -0.013   1.086   0.008  0.00  0.00    -0.028 C 
ATOM      8  H1  <0> d           0.002  -0.004   0.002  0.00  0.00     0.036 H 
ATOM      9  H2  <0> d           1.010   1.463   0.000  0.00  0.00     0.036 H 
ATOM     10  H3  <0> d          -0.523   1.437   0.905  0.00  0.00     0.036 H 
ENDBRANCH   1   7
TORSDOF 1
