REMARK  7 active torsions:
REMARK  status: ('A' for Active; 'I' for Inactive)
REMARK    1  A    between atoms: C1_1  and  O1_2 
REMARK    2  A    between atoms: O1_2  and  C2_3 
REMARK    3  A    between atoms: C2_3  and  C3_5 
REMARK    4  A    between atoms: C3_5  and  C4_6 
REMARK    5  A    between atoms: C4_6  and  C5_7 
REMARK    6  A    between atoms: C5_7  and  C6_8 
REMARK    7  A    between atoms: C6_8  and  C7_9 
ROOT
ATOM      1  C4  <0> d           2.755   5.077   0.003  0.00  0.00    -0.056 C 
ATOM      2  H6  <0> d           2.248   5.465  -0.880  0.00  0.00     0.033 H 
ATOM      3  H7  <0> d           2.265   5.455   0.900  0.00  0.00     0.033 H 
ENDROOT
BRANCH   1   4
ATOM      4  C3  <0> d           4.217   5.531  -0.009  0.00  0.00     0.016 C 
ATOM      5  H4  <0> d           4.724   5.143   0.875  0.00  0.00     0.048 H 
ATOM      6  H5  <0> d           4.707   5.152  -0.905  0.00  0.00     0.048 H 
BRANCH   4   7
ATOM      7  C2  <0> d           4.275   7.036  -0.001  0.00  0.00     0.258 C 
ATOM      8  O2  <0> d           3.253   7.681   0.012  0.00  0.00    -0.265 OA
BRANCH   7   9
ATOM      9  O1  <0> d           5.463   7.662  -0.009  0.00  0.00    -0.326 OA
BRANCH   9  10
ATOM     10  C1  <0> d           5.443   9.114  -0.001  0.00  0.00     0.013 C 
ATOM     11  H1  <0> d           4.916   9.475  -0.884  0.00  0.00     0.067 H 
ATOM     12  H2  <0> d           4.933   9.465   0.896  0.00  0.00     0.067 H 
ATOM     13  H3  <0> d           6.465   9.491  -0.009  0.00  0.00     0.067 H 
ENDBRANCH   9  10
ENDBRANCH   7   9
ENDBRANCH   4   7
ENDBRANCH   1   4
BRANCH   1  14
ATOM     14  C5  <0> d           2.696   3.548  -0.005  0.00  0.00    -0.056 C 
ATOM     15  H8  <0> d           3.204   3.160   0.878  0.00  0.00     0.033 H 
ATOM     16  H9  <0> d           3.187   3.170  -0.901  0.00  0.00     0.033 H 
BRANCH  14  17
ATOM     17  C6  <0> d           1.235   3.094   0.007  0.00  0.00     0.016 C 
ATOM     18  H10 <0> d           0.727   3.482  -0.876  0.00  0.00     0.049 H 
ATOM     19  H11 <0> d           0.744   3.473   0.904  0.00  0.00     0.049 H 
BRANCH  17  20
ATOM     20  C7  <0> d           1.177   1.588  -0.001  0.00  0.00     0.172 C 
ATOM     21  O3  <0> d           2.199   0.944  -0.014  0.00  0.00    -0.648 OA
ATOM     22  O4  <0> d          -0.011   0.963   0.007  0.00  0.00    -0.648 OA
ENDBRANCH  17  20
ENDBRANCH  14  17
ENDBRANCH   1  14
TORSDOF 7
