REMARK  0 active torsions:
REMARK  status: ('A' for Active; 'I' for Inactive)
ROOT
ATOM      1  C1  <0> d          -0.013   1.086   0.008  0.00  0.00    -0.050 C 
ATOM      2  C2  <0> d          -0.926   1.682  -1.125  0.00  0.00    -0.035 C 
ATOM      3  H1  <0> d          -0.584   1.547  -2.151  0.00  0.00     0.046 H 
ATOM      4  C3  <0> d          -2.294   1.023  -0.760  0.00  0.00    -0.026 C 
ATOM      5  C4  <0> d          -2.289   1.002   0.788  0.00  0.00     0.133 C 
ATOM      6  C5  <0> d          -0.904   1.670   1.164  0.00  0.00    -0.004 C 
ATOM      7  H2  <0> d          -0.549   1.512   2.183  0.00  0.00     0.050 H 
ATOM      8  C6  <0> d          -1.030   3.122   0.689  0.00  0.00    -0.099 C 
ATOM      9  C7  <0> d          -1.043   3.129  -0.631  0.00  0.00    -0.102 C 
ATOM     10  C8  <0> d          -2.364  -0.381   1.287  0.00  0.00     0.086 C 
ATOM     11  N1  <0> d          -2.421  -1.449   1.672  0.00  0.00    -0.195 NA
ATOM     12 Cl1  <0> d          -3.655   1.983   1.440  0.00  0.00    -0.102 Cl
ATOM     13  H3  <0> d           0.002  -0.004   0.002  0.00  0.00     0.035 H 
ATOM     14  H4  <0> d           0.992   1.509   0.001  0.00  0.00     0.035 H 
ATOM     15  H5  <0> d          -3.122   1.627  -1.132  0.00  0.00     0.038 H 
ATOM     16  H6  <0> d          -2.350   0.010  -1.159  0.00  0.00     0.038 H 
ATOM     17  H7  <0> d          -1.096   3.992   1.326  0.00  0.00     0.077 H 
ATOM     18  H8  <0> d          -1.121   4.006  -1.257  0.00  0.00     0.076 H 
ENDROOT
TORSDOF 0
