REMARK  2 active torsions:
REMARK  status: ('A' for Active; 'I' for Inactive)
REMARK    1  A    between atoms: C2_2  and  C4_5 
REMARK    2  A    between atoms: C2_2  and  N2_9 
ROOT
ATOM      1  C1  <0> d          -0.018   1.471   0.010  0.00  0.00     0.155 C 
ATOM      2  C2  <0> d           1.517   1.436  -0.005  0.00  0.00     0.302 C 
ATOM      3  C3  <0> d           1.308   0.073  -0.679  0.00  0.00     0.155 C 
ATOM      4  N1  <0> d           0.002  -0.004   0.002  0.00  0.00     0.089 N 
ATOM      5  H1  <0> d          -0.434   1.894   0.924  0.00  0.00     0.084 H 
ATOM      6  H2  <0> d          -0.451   1.904  -0.891  0.00  0.00     0.084 H 
ATOM      7  H3  <0> d           1.228   0.134  -1.765  0.00  0.00     0.084 H 
ATOM      8  H4  <0> d           2.015  -0.688  -0.350  0.00  0.00     0.084 H 
ATOM      9  H5  <0> d           0.103  -0.369   0.937  0.00  0.00     0.316 HD
ENDROOT
BRANCH   2  10
ATOM     10  C4  <0> d           2.158   2.491  -0.909  0.00  0.00     0.426 C 
ATOM     11  F1  <0> d           1.780   3.767  -0.477  0.00  0.00    -0.168 F 
ATOM     12  F2  <0> d           3.551   2.372  -0.848  0.00  0.00    -0.168 F 
ATOM     13  F3  <0> d           1.730   2.298  -2.227  0.00  0.00    -0.168 F 
ENDBRANCH   2  10
BRANCH   2  14
ATOM     14  N2  <0> d           2.130   1.360   1.328  0.00  0.00     0.100 N 
ATOM     15  H6  <0> d           3.136   1.340   1.263  0.00  0.00     0.314 HD
ATOM     16  H7  <0> d           1.820   2.122   1.913  0.00  0.00     0.314 HD
ENDBRANCH   2  14
TORSDOF 2
