REMARK  3 active torsions:
REMARK  status: ('A' for Active; 'I' for Inactive)
REMARK    1  A    between atoms: C1_1  and  C2_2 
REMARK    2  A    between atoms: C4_5  and  C5_8 
REMARK    3  A    between atoms: N2_6  and  N3_7 
ROOT
ATOM      1  C2  <0> d          -2.082   1.763  -1.040  0.00  0.00     0.044 A 
ATOM      2  C3  <0> d          -2.387   2.221  -2.269  0.00  0.00     0.027 A 
ATOM      3  N1  <0> d          -1.263   2.227  -3.001  0.00  0.00    -0.244 NA
ATOM      4  C4  <0> d          -0.271   1.796  -2.270  0.00  0.00     0.116 A 
ATOM      5  N2  <0> d          -0.741   1.490  -1.041  0.00  0.00    -0.269 N 
ATOM      6  H4  <0> d          -3.366   2.528  -2.607  0.00  0.00     0.117 H 
ENDROOT
BRANCH   1   7
ATOM      7  C1  <0> d          -3.034   1.587   0.115  0.00  0.00    -0.035 C 
ATOM      8  H1  <0> d          -3.068   2.505   0.701  0.00  0.00     0.035 H 
ATOM      9  H2  <0> d          -4.030   1.362  -0.267  0.00  0.00     0.035 H 
ATOM     10  H3  <0> d          -2.692   0.765   0.745  0.00  0.00     0.035 H 
ENDBRANCH   1   7
BRANCH   5  11
ATOM     11  N3  <0> d          -0.012   1.005   0.008  0.00  0.00    -0.241 NA
ATOM     12  H5  <0> d           0.002  -0.004   0.002  0.00  0.00     0.143 HD
ATOM     13  H6  <0> d           0.925   1.379   0.001  0.00  0.00     0.143 HD
ENDBRANCH   5  11
BRANCH   4  14
ATOM     14  C5  <0> d           1.159   1.659  -2.723  0.00  0.00    -0.020 C 
ATOM     15  H7  <0> d           1.314   0.666  -3.143  0.00  0.00     0.037 H 
ATOM     16  H8  <0> d           1.374   2.413  -3.481  0.00  0.00     0.037 H 
ATOM     17  H9  <0> d           1.825   1.800  -1.871  0.00  0.00     0.037 H 
ENDBRANCH   4  14
TORSDOF 3
