REMARK  1 active torsions:
REMARK  status: ('A' for Active; 'I' for Inactive)
REMARK    1  A    between atoms: C6_6  and  N1_7 
ROOT
ATOM      1  C1  <0> d          -4.290   1.022   2.359  0.00  0.00    -0.057 A 
ATOM      2  C2  <0> d          -2.940   1.298   2.360  0.00  0.00    -0.074 A 
ATOM      3  C3  <0> d          -2.208   1.258   1.180  0.00  0.00    -0.052 A 
ATOM      4  C4  <0> d          -2.834   0.933  -0.004  0.00  0.00    -0.050 A 
ATOM      5  C5  <0> d          -4.194   0.657  -0.009  0.00  0.00    -0.051 A 
ATOM      6  C6  <0> d          -4.926   0.700   1.167  0.00  0.00     0.026 A 
ATOM      7  C7  <0> d          -2.100   0.863  -1.317  0.00  0.00    -0.040 C 
ATOM      8  C8  <0> d          -0.765   1.599  -1.226  0.00  0.00    -0.061 C 
ATOM      9  C9  <0> d          -0.013   1.086   0.008  0.00  0.00    -0.061 C 
ATOM     10  C10 <0> d          -0.738   1.583   1.256  0.00  0.00    -0.040 C 
ATOM     11  H1  <0> d          -4.851   1.056   3.281  0.00  0.00     0.086 H 
ATOM     12  H2  <0> d          -2.446   1.548   3.288  0.00  0.00     0.084 H 
ATOM     13  H3  <0> d          -4.686   0.405  -0.938  0.00  0.00     0.087 H 
ATOM     14  H6  <0> d          -2.710   1.321  -2.095  0.00  0.00     0.040 H 
ATOM     15  H7  <0> d          -1.918  -0.181  -1.571  0.00  0.00     0.040 H 
ATOM     16  H8  <0> d          -0.942   2.670  -1.129  0.00  0.00     0.033 H 
ATOM     17  H9  <0> d          -0.175   1.404  -2.122  0.00  0.00     0.033 H 
ATOM     18  H10 <0> d           0.002  -0.004   0.002  0.00  0.00     0.033 H 
ATOM     19  H11 <0> d           1.008   1.467   0.000  0.00  0.00     0.033 H 
ATOM     20  H12 <0> d          -0.308   1.105   2.137  0.00  0.00     0.040 H 
ATOM     21  H13 <0> d          -0.613   2.663   1.338  0.00  0.00     0.040 H 
ENDROOT
BRANCH   6  22
ATOM     22  N1  <0> d          -6.294   0.420   1.154  0.00  0.00    -0.399 N 
ATOM     23  H4  <0> d          -6.735   0.195   0.320  0.00  0.00     0.156 HD
ATOM     24  H5  <0> d          -6.804   0.452   1.979  0.00  0.00     0.156 HD
ENDBRANCH   6  22
TORSDOF 1
