REMARK  1 active torsions:
REMARK  status: ('A' for Active; 'I' for Inactive)
REMARK    1  A    between atoms: C5_5  and  O2_12 
ROOT
ATOM      1  C1  <0> d           0.002  -0.004   0.002  0.00  0.00    -0.065 C 
ATOM      2  C2  <0> d           0.805  -0.396  -1.296  0.00  0.00    -0.065 C 
ATOM      3  C3  <0> d           1.851  -1.435  -0.824  0.00  0.00    -0.062 C 
ATOM      4  C4  <0> d           2.817  -0.983   0.278  0.00  0.00    -0.035 C 
ATOM      5  C5  <0> d           3.614   0.237  -0.274  0.00  0.00     0.092 C 
ATOM      6  H1  <0> d           4.568  -0.025  -0.417  0.00  0.00     0.095 H 
ATOM      7  C6  <0> d           3.467   1.320   0.792  0.00  0.00     0.155 C 
ATOM      8  O1  <0> d           4.464   1.815   1.260  0.00  0.00    -0.295 OA
ATOM      9  C7  <0> d           2.105   1.800   1.286  0.00  0.00    -0.007 C 
ATOM     10  C8  <0> d           1.344   2.248   0.001  0.00  0.00    -0.059 C 
ATOM     11  C9  <0> d          -0.019   1.543   0.011  0.00  0.00    -0.065 C 
ATOM     12  H2  <0> d           0.510  -0.381   0.890  0.00  0.00     0.033 H 
ATOM     13  H3  <0> d          -1.014  -0.396  -0.046  0.00  0.00     0.033 H 
ATOM     14  H4  <0> d           0.138  -0.839  -2.034  0.00  0.00     0.033 H 
ATOM     15  H5  <0> d           1.301   0.481  -1.712  0.00  0.00     0.033 H 
ATOM     16  H6  <0> d           1.315  -2.313  -0.464  0.00  0.00     0.033 H 
ATOM     17  H7  <0> d           2.442  -1.734  -1.689  0.00  0.00     0.033 H 
ATOM     18  H8  <0> d           2.256  -0.689   1.166  0.00  0.00     0.037 H 
ATOM     19  H9  <0> d           3.503  -1.794   0.525  0.00  0.00     0.037 H 
ATOM     20  H10 <0> d           1.639   1.052   1.759  0.00  0.00     0.044 H 
ATOM     21  H11 <0> d           2.224   2.642   1.968  0.00  0.00     0.044 H 
ATOM     22  H12 <0> d           1.907   1.954  -0.884  0.00  0.00     0.033 H 
ATOM     23  H13 <0> d           1.203   3.328   0.011  0.00  0.00     0.033 H 
ATOM     24  H14 <0> d          -0.578   1.878  -0.863  0.00  0.00     0.033 H 
ATOM     25  H15 <0> d          -0.561   1.868   0.898  0.00  0.00     0.033 H 
ENDROOT
BRANCH   5  26
ATOM     26  O2  <0> d           3.050   0.678  -1.511  0.00  0.00    -0.388 OA
ATOM     27  H16 <0> d           3.506   1.437  -1.903  0.00  0.00     0.210 HD
ENDBRANCH   5  26
TORSDOF 1
