REMARK  2 active torsions:
REMARK  status: ('A' for Active; 'I' for Inactive)
REMARK    1  A    between atoms: C4_4  and  N2_10 
REMARK    2  A    between atoms: C6_6  and  C7_7 
REMARK       I    between atoms: C7_7  and  N1_9 
ROOT
ATOM      1  C1  <0> d          -1.325   3.329   0.032  0.00  0.00    -0.065 A 
ATOM      2  C2  <0> d          -2.530   4.001   0.036  0.00  0.00    -0.042 A 
ATOM      3  C3  <0> d          -3.721   3.295   0.037  0.00  0.00     0.142 A 
ATOM      4  C4  <0> d          -3.709   1.902   0.030  0.00  0.00     0.065 A 
ATOM      5  C5  <0> d          -2.505   1.220   0.021  0.00  0.00    -0.039 A 
ATOM      6  C6  <0> d          -1.304   1.933   0.019  0.00  0.00     0.034 A 
ATOM      7  F1  <0> d          -4.897   3.959   0.046  0.00  0.00    -0.204 F 
ATOM      8  H1  <0> d          -0.398   3.882   0.035  0.00  0.00     0.085 H 
ATOM      9  H2  <0> d          -2.544   5.080   0.042  0.00  0.00     0.088 H 
ATOM     10  H3  <0> d          -2.493   0.140   0.015  0.00  0.00     0.088 H 
ENDROOT
BRANCH   6  11
ATOM     11  C7  <0> d          -0.014   1.212   0.009  0.00  0.00     0.249 C 
ATOM     12  O1  <0> d           0.002  -0.004   0.002  0.00  0.00    -0.268 OA
ATOM     13  N1  <0> d           1.143   1.901   0.001  0.00  0.00    -0.366 N 
ATOM     14  H4  <0> d           2.103   1.364  -0.006  0.00  0.00     0.159 HD
ATOM     15  H5  <0> d           1.129   3.001   0.003  0.00  0.00     0.159 HD
ENDBRANCH   6  11
BRANCH   4  16
ATOM     16  N2  <0> d          -4.915   1.193   0.031  0.00  0.00    -0.397 N 
ATOM     17  H6  <0> d          -4.906   0.093   0.025  0.00  0.00     0.156 HD
ATOM     18  H7  <0> d          -5.872   1.735   0.038  0.00  0.00     0.156 HD
ENDBRANCH   4  16
TORSDOF 2
