REMARK  2 active torsions:
REMARK  status: ('A' for Active; 'I' for Inactive)
REMARK    1  A    between atoms: C1_1  and  C2_2 
REMARK    2  A    between atoms: C2_2  and  C3_4 
ROOT
ATOM      1  C3  <0> d           1.079   1.794   0.001  0.00  0.00     0.173 A 
ATOM      2  N1  <0> d          -0.011   0.966   0.007  0.00  0.00    -0.346 N 
ATOM      3  H1  <0> d           0.003  -0.034   0.006  0.00  0.00     0.167 HD
ATOM      4  C4  <0> d          -1.110   1.754   0.016  0.00  0.00    -0.004 A 
ATOM      5  C5  <0> d          -0.679   3.043   0.025  0.00  0.00     0.019 A 
ATOM      6  N2  <0> d           0.649   3.041   0.012  0.00  0.00    -0.238 NA
ATOM      7  H5  <0> d          -2.137   1.422   0.019  0.00  0.00     0.113 H 
ATOM      8  H6  <0> d          -1.310   3.919   0.036  0.00  0.00     0.117 H 
ENDROOT
BRANCH   1   9
ATOM      9  C2  <0> d           2.481   1.368  -0.014  0.00  0.00     0.191 C 
ATOM     10  O1  <0> d           2.756   0.187  -0.022  0.00  0.00    -0.290 OA
BRANCH   9  11
ATOM     11  C1  <0> d           3.581   2.398  -0.019  0.00  0.00    -0.014 C 
ATOM     12  H2  <0> d           3.180   3.314  -0.011  0.00  0.00     0.038 H 
ATOM     13  H3  <0> d           4.206   2.267   0.865  0.00  0.00     0.038 H 
ATOM     14  H4  <0> d           4.189   2.276  -0.915  0.00  0.00     0.038 H 
ENDBRANCH   9  11
ENDBRANCH   1   9
TORSDOF 2
