REMARK  6 active torsions:
REMARK  status: ('A' for Active; 'I' for Inactive)
REMARK    1  A    between atoms: C1_1  and  C2_2 
REMARK    2  A    between atoms: C2_2  and  C3_4 
REMARK    3  A    between atoms: C2_2  and  O3_8 
REMARK    4  A    between atoms: C3_4  and  O2_6 
REMARK    5  A    between atoms: O2_6  and  C4_7 
REMARK    6  A    between atoms: O3_8  and  C5_9 
ROOT
ATOM      1  C2  <0> d          -1.244  -2.135   0.003  0.00  0.00     0.118 C 
ATOM      2  H1  <0> d          -0.677  -2.517  -0.847  0.00  0.00     0.098 H 
ENDROOT
BRANCH   1   3
ATOM      3  C1  <0> d          -0.642  -2.676   1.301  0.00  0.00    -0.043 C 
ATOM      4  H2  <0> d          -1.209  -2.294   2.151  0.00  0.00     0.031 H 
ATOM      5  H3  <0> d          -0.684  -3.765   1.296  0.00  0.00     0.031 H 
ATOM      6  H4  <0> d           0.396  -2.353   1.383  0.00  0.00     0.031 H 
ENDBRANCH   1   3
BRANCH   1   7
ATOM      7  C3  <0> d          -1.185  -0.630   0.010  0.00  0.00     0.287 C 
ATOM      8  O1  <0> d          -2.208   0.015   0.023  0.00  0.00    -0.262 OA
BRANCH   7   9
ATOM      9  O2  <0> d           0.002  -0.004   0.002  0.00  0.00    -0.324 OA
BRANCH   9  10
ATOM     10  C4  <0> d          -0.018   1.448   0.010  0.00  0.00     0.013 C 
ATOM     11  H5  <0> d           1.005   1.825   0.002  0.00  0.00     0.067 H 
ATOM     12  H6  <0> d          -0.545   1.809  -0.873  0.00  0.00     0.067 H 
ATOM     13  H7  <0> d          -0.528   1.799   0.907  0.00  0.00     0.067 H 
ENDBRANCH   9  10
ENDBRANCH   7   9
ENDBRANCH   1   7
BRANCH   1  14
ATOM     14  O3  <0> d          -2.605  -2.559  -0.104  0.00  0.00    -0.381 OA
BRANCH  14  15
ATOM     15  C5  <0> d          -2.773  -3.810  -0.774  0.00  0.00     0.005 C 
ATOM     16  H8  <0> d          -3.833  -4.060  -0.814  0.00  0.00     0.066 H 
ATOM     17  H9  <0> d          -2.379  -3.735  -1.788  0.00  0.00     0.066 H 
ATOM     18  H10 <0> d          -2.236  -4.588  -0.233  0.00  0.00     0.066 H 
ENDBRANCH  14  15
ENDBRANCH   1  14
TORSDOF 6
