REMARK  3 active torsions:
REMARK  status: ('A' for Active; 'I' for Inactive)
REMARK    1  A    between atoms: C1_1  and  C2_2 
REMARK    2  A    between atoms: C2_2  and  C3_3 
REMARK    3  A    between atoms: C3_3  and  N1_4 
ROOT
ATOM      1  N1  <0> d          -1.413  -1.998   0.005  0.00  0.00    -0.325 N 
ATOM      2  C4  <0> d          -1.421  -2.663  -1.179  0.00  0.00    -0.017 A 
ATOM      3  C5  <0> d          -1.398  -4.016  -1.212  0.00  0.00    -0.068 A 
ATOM      4  C6  <0> d          -1.377  -4.745  -0.015  0.00  0.00    -0.076 A 
ATOM      5  C7  <0> d          -1.375  -4.076   1.174  0.00  0.00    -0.017 A 
ATOM      6  C8  <0> d          -1.393  -2.670   1.172  0.00  0.00     0.247 A 
ATOM      7  O1  <0> d          -1.392  -2.059   2.228  0.00  0.00    -0.268 OA
ATOM      8  H8  <0> d          -1.442  -2.107  -2.104  0.00  0.00     0.111 H 
ATOM      9  H9  <0> d          -1.401  -4.534  -2.160  0.00  0.00     0.085 H 
ATOM     10  H10 <0> d          -1.363  -5.825  -0.033  0.00  0.00     0.083 H 
ATOM     11  H11 <0> d          -1.359  -4.620   2.107  0.00  0.00     0.092 H 
ENDROOT
BRANCH   1  12
ATOM     12  C3  <0> d          -1.433  -0.534   0.013  0.00  0.00     0.002 C 
ATOM     13  H6  <0> d          -1.944  -0.182   0.910  0.00  0.00     0.065 H 
ATOM     14  H7  <0> d          -1.960  -0.173  -0.870  0.00  0.00     0.065 H 
BRANCH  12  15
ATOM     15  C2  <0> d           0.002  -0.004   0.002  0.00  0.00    -0.053 C 
ATOM     16  H4  <0> d           0.512  -0.356  -0.895  0.00  0.00     0.034 H 
ATOM     17  H5  <0> d           0.529  -0.365   0.885  0.00  0.00     0.034 H 
BRANCH  15  18
ATOM     18  C1  <0> d          -0.019   1.526   0.010  0.00  0.00    -0.075 C 
ATOM     19  H1  <0> d           1.004   1.903   0.003  0.00  0.00     0.027 H 
ATOM     20  H2  <0> d          -0.546   1.887  -0.873  0.00  0.00     0.027 H 
ATOM     21  H3  <0> d          -0.529   1.877   0.907  0.00  0.00     0.027 H 
ENDBRANCH  15  18
ENDBRANCH  12  15
ENDBRANCH   1  12
TORSDOF 3
