REMARK  3 active torsions:
REMARK  status: ('A' for Active; 'I' for Inactive)
REMARK    1  A    between atoms: C1_1  and  C2_2 
REMARK    2  A    between atoms: C2_2  and  C3_4 
REMARK    3  A    between atoms: C2_2  and  C7_9 
ROOT
ATOM      1  C2  <0> d           0.002  -0.004   0.002  0.00  0.00     0.053 C 
ATOM      2  H1  <0> d          -1.020  -0.381   0.010  0.00  0.00     0.063 H 
ENDROOT
BRANCH   1   3
ATOM      3  C1  <0> d          -0.019   1.526   0.010  0.00  0.00    -0.060 C 
ATOM      4  H2  <0> d           1.004   1.903   0.003  0.00  0.00     0.029 H 
ATOM      5  H3  <0> d          -0.546   1.887  -0.873  0.00  0.00     0.029 H 
ATOM      6  H4  <0> d          -0.529   1.877   0.907  0.00  0.00     0.029 H 
ENDBRANCH   1   3
BRANCH   1   7
ATOM      7  C3  <0> d           0.731  -0.503   1.223  0.00  0.00    -0.037 A 
ATOM      8  C6  <0> d           2.026  -0.166   1.437  0.00  0.00    -0.038 A 
ATOM      9  S1  <0> d           2.376  -0.999   2.976  0.00  0.00    -0.113 SA
ATOM     10  H7  <0> d           2.678   0.448   0.833  0.00  0.00     0.095 H 
ATOM     11  C5  <0> d           0.774  -1.748   3.226  0.00  0.00    -0.045 A 
ATOM     12  C4  <0> d           0.090  -1.317   2.139  0.00  0.00    -0.069 A 
ATOM     13  H6  <0> d           0.438  -2.381   4.034  0.00  0.00     0.095 H 
ATOM     14  H5  <0> d          -0.940  -1.604   1.990  0.00  0.00     0.085 H 
ENDBRANCH   1   7
BRANCH   1  15
ATOM     15  C7  <0> d           0.707  -0.490  -1.238  0.00  0.00     0.181 C 
ATOM     16  O1  <0> d           1.709  -1.178  -1.139  0.00  0.00    -0.647 OA
ATOM     17  O2  <0> d           0.276  -0.195  -2.340  0.00  0.00    -0.647 OA
ENDBRANCH   1  15
TORSDOF 3
