REMARK  0 active torsions:
REMARK  status: ('A' for Active; 'I' for Inactive)
ROOT
ATOM      1  C1  <0> d          -0.013   1.076   0.008  0.00  0.00    -0.079 A 
ATOM      2  C2  <0> d          -1.220   1.753   0.017  0.00  0.00    -0.074 A 
ATOM      3  C3  <0> d          -1.235   3.130   0.030  0.00  0.00    -0.019 A 
ATOM      4  C4  <0> d          -0.051   3.855   0.023  0.00  0.00     0.080 A 
ATOM      5  C5  <0> d           1.162   3.167   0.008  0.00  0.00     0.143 A 
ATOM      6  C6  <0> d           1.174   1.785   0.000  0.00  0.00    -0.043 A 
ATOM      7  F1  <0> d           2.326   3.852   0.001  0.00  0.00    -0.204 F 
ATOM      8  N1  <0> d          -0.324   5.225   0.034  0.00  0.00    -0.324 N 
ATOM      9  C7  <0> d          -1.643   5.480   0.047  0.00  0.00     0.226 A 
ATOM     10  O1  <0> d          -2.164   6.575   0.059  0.00  0.00    -0.273 OA
ATOM     11  C8  <0> d          -2.356   4.145   0.046  0.00  0.00     0.036 A 
ATOM     12  H1  <0> d           0.002  -0.004   0.002  0.00  0.00     0.083 H 
ATOM     13  H2  <0> d          -2.148   1.202   0.019  0.00  0.00     0.084 H 
ATOM     14  H3  <0> d           2.116   1.256  -0.011  0.00  0.00     0.088 H 
ATOM     15  H4  <0> d           0.360   5.912   0.031  0.00  0.00     0.169 HD
ATOM     16  H5  <0> d          -2.959   4.033   0.947  0.00  0.00     0.054 H 
ATOM     17  H6  <0> d          -2.977   4.044  -0.843  0.00  0.00     0.054 H 
ENDROOT
TORSDOF 0
