REMARK  6 active torsions:
REMARK  status: ('A' for Active; 'I' for Inactive)
REMARK    1  A    between atoms: C1_1  and  C2_2 
REMARK    2  A    between atoms: C2_2  and  C3_4 
REMARK    3  A    between atoms: C2_2  and  O2_8 
REMARK    4  A    between atoms: C3_4  and  C4_5 
REMARK    5  A    between atoms: C3_4  and  C5_6 
REMARK    6  A    between atoms: C3_4  and  O1_7 
ROOT
ATOM      1  C3  <0> d          -0.729   1.579   1.267  0.00  0.00     0.076 C 
ENDROOT
BRANCH   1   2
ATOM      2  C2  <0> d           0.011   1.072   2.506  0.00  0.00     0.061 C 
ATOM      3  H1  <0> d           0.026  -0.018   2.500  0.00  0.00     0.086 H 
BRANCH   2   4
ATOM      4  C1  <0> d          -0.705   1.566   3.765  0.00  0.00    -0.050 C 
ATOM      5  H2  <0> d          -1.728   1.188   3.773  0.00  0.00     0.031 H 
ATOM      6  H3  <0> d          -0.178   1.205   4.648  0.00  0.00     0.031 H 
ATOM      7  H4  <0> d          -0.720   2.656   3.771  0.00  0.00     0.031 H 
ENDBRANCH   2   4
BRANCH   2   8
ATOM      8  O2  <0> d           1.352   1.567   2.496  0.00  0.00    -0.393 OA
ATOM      9  H12 <0> d           1.415   2.532   2.501  0.00  0.00     0.210 HD
ENDBRANCH   2   8
ENDBRANCH   1   2
BRANCH   1  10
ATOM     10  C4  <0> d          -0.013   1.086   0.008  0.00  0.00    -0.046 C 
ATOM     11  H5  <0> d           0.002  -0.004   0.002  0.00  0.00     0.031 H 
ATOM     12  H6  <0> d           1.010   1.463   0.000  0.00  0.00     0.031 H 
ATOM     13  H7  <0> d          -0.540   1.447  -0.875  0.00  0.00     0.031 H 
ENDBRANCH   1  10
BRANCH   1  14
ATOM     14  C5  <0> d          -0.750   3.109   1.275  0.00  0.00    -0.046 C 
ATOM     15  H8  <0> d          -1.277   3.470   0.392  0.00  0.00     0.031 H 
ATOM     16  H9  <0> d          -1.260   3.461   2.172  0.00  0.00     0.031 H 
ATOM     17  H10 <0> d           0.273   3.486   1.268  0.00  0.00     0.031 H 
ENDBRANCH   1  14
BRANCH   1  18
ATOM     18  O1  <0> d          -2.070   1.085   1.277  0.00  0.00    -0.388 OA
ATOM     19  H11 <0> d          -2.599   1.367   0.518  0.00  0.00     0.210 HD
ENDBRANCH   1  18
TORSDOF 6
