REMARK  2 active torsions:
REMARK  status: ('A' for Active; 'I' for Inactive)
REMARK    1  A    between atoms: C1_1  and  C2_2 
REMARK    2  A    between atoms: C3_3  and  O3_9 
ROOT
ATOM      1  C2  <0> d           0.002  -0.004   0.002  0.00  0.00     0.085 A 
ATOM      2  C3  <0> d          -1.164  -0.687   0.004  0.00  0.00     0.145 A 
ATOM      3  C4  <0> d          -1.127  -2.109  -0.004  0.00  0.00     0.209 A 
ATOM      4  O1  <0> d          -2.159  -2.763  -0.004  0.00  0.00    -0.285 OA
ATOM      5  C5  <0> d           0.139  -2.745  -0.015  0.00  0.00    -0.010 A 
ATOM      6  C6  <0> d           1.253  -1.985  -0.016  0.00  0.00     0.023 A 
ATOM      7  O2  <0> d           1.177  -0.649  -0.013  0.00  0.00    -0.324 OA
ATOM      8  H4  <0> d           0.210  -3.823  -0.021  0.00  0.00     0.092 H 
ATOM      9  H5  <0> d           2.222  -2.462  -0.023  0.00  0.00     0.123 H 
ENDROOT
BRANCH   1  10
ATOM     10  C1  <0> d          -0.018   1.503   0.010  0.00  0.00    -0.029 C 
ATOM     11  H1  <0> d           1.004   1.880   0.003  0.00  0.00     0.036 H 
ATOM     12  H2  <0> d          -0.545   1.864  -0.873  0.00  0.00     0.036 H 
ATOM     13  H3  <0> d          -0.529   1.854   0.907  0.00  0.00     0.036 H 
ENDBRANCH   1  10
BRANCH   2  14
ATOM     14  O3  <0> d          -2.353  -0.025   0.014  0.00  0.00    -0.355 OA
ATOM     15  H6  <0> d          -3.126  -0.606   0.015  0.00  0.00     0.218 HD
ENDBRANCH   2  14
TORSDOF 2
