REMARK  6 active torsions:
REMARK  status: ('A' for Active; 'I' for Inactive)
REMARK    1  A    between atoms: C1_1  and  C2_2 
REMARK    2  A    between atoms: C2_2  and  C3_3 
REMARK    3  A    between atoms: C3_3  and  C4_5 
REMARK    4  A    between atoms: C3_3  and  C5_6 
REMARK       I    between atoms: C5_6  and  N1_8 
REMARK    5  A    between atoms: N1_8  and  C6_9 
REMARK    6  A    between atoms: C6_9  and  C7_10 
ROOT
ATOM      1  C3  <0> d          -2.482   0.853   0.018  0.00  0.00     0.020 C 
ATOM      2  H1  <0> d          -2.535   0.230  -0.875  0.00  0.00     0.054 H 
ENDROOT
BRANCH   1   3
ATOM      3  C2  <0> d          -3.658   1.831   0.029  0.00  0.00    -0.057 C 
ATOM      4  H5  <0> d          -3.655   2.392   0.964  0.00  0.00     0.033 H 
ATOM      5  H6  <0> d          -3.565   2.521  -0.809  0.00  0.00     0.033 H 
BRANCH   3   6
ATOM      6  C1  <0> d          -4.970   1.053  -0.094  0.00  0.00    -0.076 C 
ATOM      7  H2  <0> d          -4.973   0.492  -1.029  0.00  0.00     0.027 H 
ATOM      8  H3  <0> d          -5.064   0.363   0.744  0.00  0.00     0.027 H 
ATOM      9  H4  <0> d          -5.808   1.750  -0.087  0.00  0.00     0.027 H 
ENDBRANCH   3   6
ENDBRANCH   1   3
BRANCH   1  10
ATOM     10  C4  <0> d          -2.545  -0.035   1.263  0.00  0.00    -0.065 C 
ATOM     11  H7  <0> d          -3.482  -0.593   1.265  0.00  0.00     0.028 H 
ATOM     12  H8  <0> d          -1.707  -0.732   1.255  0.00  0.00     0.028 H 
ATOM     13  H9  <0> d          -2.492   0.588   2.156  0.00  0.00     0.028 H 
ENDBRANCH   1  10
BRANCH   1  14
ATOM     14  C5  <0> d          -1.187   1.624   0.017  0.00  0.00     0.221 C 
ATOM     15  O1  <0> d          -1.204   2.837   0.023  0.00  0.00    -0.273 OA
ATOM     16  N1  <0> d          -0.011   0.966   0.007  0.00  0.00    -0.351 N 
ATOM     17  H10 <0> d           0.002  -0.004   0.002  0.00  0.00     0.163 HD
BRANCH  16  18
ATOM     18  C6  <0> d           1.248   1.716  -0.001  0.00  0.00     0.075 C 
ATOM     19  H11 <0> d           1.288   2.348  -0.888  0.00  0.00     0.080 H 
ATOM     20  H12 <0> d           1.305   2.338   0.892  0.00  0.00     0.080 H 
BRANCH  18  21
ATOM     21  C7  <0> d           2.406   0.752  -0.017  0.00  0.00     0.191 C 
ATOM     22  O2  <0> d           2.201  -0.439  -0.021  0.00  0.00    -0.647 OA
ATOM     23  O3  <0> d           3.665   1.216  -0.026  0.00  0.00    -0.647 OA
ENDBRANCH  18  21
ENDBRANCH  16  18
ENDBRANCH   1  14
TORSDOF 6
