REMARK  1 active torsions:
REMARK  status: ('A' for Active; 'I' for Inactive)
REMARK    1  A    between atoms: C6_6  and  N1_7 
ROOT
ATOM      1  C1  <0> d          -0.017   1.384   0.010  0.00  0.00    -0.056 A 
ATOM      2  C2  <0> d           1.171   2.087   0.002  0.00  0.00    -0.055 A 
ATOM      3  C3  <0> d           2.384   1.408  -0.012  0.00  0.00     0.034 A 
ATOM      4  C4  <0> d           2.405   0.022  -0.016  0.00  0.00    -0.029 A 
ATOM      5  C5  <0> d           1.213  -0.681  -0.011  0.00  0.00    -0.050 A 
ATOM      6  C6  <0> d           0.002  -0.004   0.002  0.00  0.00     0.026 A 
ATOM      7  C7  <0> d           3.702  -0.745  -0.020  0.00  0.00    -0.037 C 
ATOM      8  C8  <0> d           4.844   0.136  -0.526  0.00  0.00    -0.047 C 
ATOM      9  C9  <0> d           4.842   1.452   0.262  0.00  0.00    -0.007 C 
ATOM     10  N2  <0> d           3.578   2.144  -0.024  0.00  0.00    -0.389 N 
ATOM     11  H1  <0> d          -0.958   1.913   0.026  0.00  0.00     0.087 H 
ATOM     12  H2  <0> d           1.159   3.167   0.007  0.00  0.00     0.087 H 
ATOM     13  H3  <0> d           1.225  -1.761  -0.018  0.00  0.00     0.087 H 
ATOM     14  H6  <0> d           3.926  -1.078   0.993  0.00  0.00     0.040 H 
ATOM     15  H7  <0> d           3.603  -1.615  -0.670  0.00  0.00     0.040 H 
ATOM     16  H8  <0> d           5.794  -0.377  -0.378  0.00  0.00     0.035 H 
ATOM     17  H9  <0> d           4.701   0.345  -1.587  0.00  0.00     0.035 H 
ATOM     18  H10 <0> d           4.915   1.244   1.329  0.00  0.00     0.064 H 
ATOM     19  H11 <0> d           5.681   2.072  -0.053  0.00  0.00     0.064 H 
ATOM     20  H12 <0> d           3.569   3.095  -0.218  0.00  0.00     0.159 HD
ENDROOT
BRANCH   6  21
ATOM     21  N1  <0> d          -1.201  -0.721   0.008  0.00  0.00    -0.399 N 
ATOM     22  H4  <0> d          -2.047  -0.247   0.018  0.00  0.00     0.156 HD
ATOM     23  H5  <0> d          -1.188  -1.690   0.003  0.00  0.00     0.156 HD
ENDBRANCH   6  21
TORSDOF 1
