REMARK  3 active torsions:
REMARK  status: ('A' for Active; 'I' for Inactive)
REMARK    1  A    between atoms: C1_1  and  C2_2 
REMARK    2  A    between atoms: C6_6  and  O1_8 
REMARK    3  A    between atoms: O1_8  and  C8_9 
ROOT
ATOM      1  C2  <0> d          -0.718   1.572   1.248  0.00  0.00    -0.059 A 
ATOM      2  C3  <0> d          -2.083   1.789   1.225  0.00  0.00    -0.075 A 
ATOM      3  C4  <0> d          -2.735   2.230   2.362  0.00  0.00    -0.059 A 
ATOM      4  C5  <0> d          -2.020   2.466   3.522  0.00  0.00     0.067 A 
ATOM      5  C6  <0> d          -0.648   2.253   3.545  0.00  0.00     0.090 A 
ATOM      6  C7  <0> d           0.001   1.805   2.404  0.00  0.00    -0.043 A 
ATOM      7 Cl1  <0> d          -2.837   3.025   4.948  0.00  0.00    -0.081 Cl
ATOM      8  H4  <0> d          -2.643   1.610   0.319  0.00  0.00     0.084 H 
ATOM      9  H5  <0> d          -3.802   2.395   2.343  0.00  0.00     0.086 H 
ATOM     10  H6  <0> d           1.068   1.639   2.420  0.00  0.00     0.088 H 
ENDROOT
BRANCH   5  11
ATOM     11  O1  <0> d           0.057   2.483   4.684  0.00  0.00    -0.354 OA
BRANCH  11  12
ATOM     12  C8  <0> d           1.465   2.242   4.635  0.00  0.00     0.010 C 
ATOM     13  H7  <0> d           1.906   2.464   5.607  0.00  0.00     0.066 H 
ATOM     14  H8  <0> d           1.647   1.197   4.384  0.00  0.00     0.066 H 
ATOM     15  H9  <0> d           1.917   2.882   3.877  0.00  0.00     0.066 H 
ENDBRANCH  11  12
ENDBRANCH   5  11
BRANCH   1  16
ATOM     16  C1  <0> d          -0.013   1.086   0.008  0.00  0.00    -0.051 C 
ATOM     17  H1  <0> d           0.002  -0.004   0.002  0.00  0.00     0.033 H 
ATOM     18  H2  <0> d           1.010   1.463   0.000  0.00  0.00     0.033 H 
ATOM     19  H3  <0> d          -0.540   1.447  -0.875  0.00  0.00     0.033 H 
ENDBRANCH   1  16
TORSDOF 3
