REMARK  2 active torsions:
REMARK  status: ('A' for Active; 'I' for Inactive)
REMARK    1  A    between atoms: C1_1  and  C2_2 
REMARK    2  A    between atoms: C3_5  and  N4_9 
ROOT
ATOM      1  C2  <0> d           0.002  -0.004   0.002  0.00  0.00     0.048 A 
ATOM      2  N1  <0> d           0.008  -0.792  -1.086  0.00  0.00    -0.279 N 
ATOM      3  N2  <0> d           0.028  -2.128  -0.670  0.00  0.00    -0.155 NA
ATOM      4  C3  <0> d           0.034  -2.164   0.639  0.00  0.00     0.164 A 
ATOM      5  C4  <0> d           0.024  -0.826   1.111  0.00  0.00     0.115 A 
ATOM      6  C5  <0> d           0.031  -0.407   2.481  0.00  0.00     0.105 C 
ATOM      7  N3  <0> d           0.037  -0.075   3.567  0.00  0.00    -0.191 NA
ATOM      8  H6  <0> d           0.000  -0.486  -2.006  0.00  0.00     0.189 HD
ENDROOT
BRANCH   1   9
ATOM      9  C1  <0> d          -0.018   1.503   0.010  0.00  0.00    -0.035 C 
ATOM     10  H1  <0> d           1.004   1.880   0.003  0.00  0.00     0.035 H 
ATOM     11  H2  <0> d          -0.545   1.864  -0.873  0.00  0.00     0.035 H 
ATOM     12  H3  <0> d          -0.529   1.854   0.907  0.00  0.00     0.035 H 
ENDBRANCH   1   9
BRANCH   4  13
ATOM     13  N4  <0> d           0.053  -3.314   1.430  0.00  0.00    -0.381 N 
ATOM     14  H4  <0> d           0.063  -4.189   1.012  0.00  0.00     0.157 HD
ATOM     15  H5  <0> d           0.055  -3.238   2.397  0.00  0.00     0.157 HD
ENDBRANCH   4  13
TORSDOF 2
