REMARK  4 active torsions:
REMARK  status: ('A' for Active; 'I' for Inactive)
REMARK    1  A    between atoms: C1_1  and  C2_2 
REMARK    2  A    between atoms: N1_5  and  C5_7 
REMARK    3  A    between atoms: C5_7  and  C6_9 
REMARK    4  A    between atoms: C5_7  and  C7_10 
ROOT
ATOM      1  C2  <0> d           4.437   4.713   0.404  0.00  0.00     0.052 A 
ATOM      2  C3  <0> d           4.777   3.626  -0.407  0.00  0.00    -0.041 A 
ATOM      3  C4  <0> d           3.651   2.914  -0.643  0.00  0.00     0.001 A 
ATOM      4  N1  <0> d           2.634   3.529  -0.004  0.00  0.00    -0.266 N 
ATOM      5  N2  <0> d           3.151   4.659   0.642  0.00  0.00    -0.177 NA
ATOM      6  H5  <0> d           5.765   3.396  -0.779  0.00  0.00     0.088 H 
ATOM      7  H6  <0> d           3.579   2.014  -1.236  0.00  0.00     0.114 H 
ENDROOT
BRANCH   4   8
ATOM      8  C5  <0> d           1.235   3.094   0.007  0.00  0.00     0.114 C 
ATOM      9  H1  <0> d           0.744   3.473   0.904  0.00  0.00     0.092 H 
BRANCH   8  10
ATOM     10  C6  <0> d           0.522   3.639  -1.233  0.00  0.00    -0.046 C 
ATOM     11  H7  <0> d           1.013   3.260  -2.130  0.00  0.00     0.031 H 
ATOM     12  H8  <0> d          -0.519   3.315  -1.224  0.00  0.00     0.031 H 
ATOM     13  H9  <0> d           0.564   4.728  -1.227  0.00  0.00     0.031 H 
ENDBRANCH   8  10
BRANCH   8  14
ATOM     14  C7  <0> d           1.177   1.588  -0.001  0.00  0.00     0.198 C 
ATOM     15  O1  <0> d           2.199   0.944  -0.014  0.00  0.00    -0.646 OA
ATOM     16  O2  <0> d          -0.011   0.963   0.007  0.00  0.00    -0.646 OA
ENDBRANCH   8  14
ENDBRANCH   4   8
BRANCH   1  17
ATOM     17  C1  <0> d           5.385   5.769   0.912  0.00  0.00    -0.034 C 
ATOM     18  H2  <0> d           5.431   6.590   0.197  0.00  0.00     0.035 H 
ATOM     19  H3  <0> d           5.032   6.143   1.873  0.00  0.00     0.035 H 
ATOM     20  H4  <0> d           6.378   5.337   1.033  0.00  0.00     0.035 H 
ENDBRANCH   1  17
TORSDOF 4
