REMARK  1 active torsions:
REMARK  status: ('A' for Active; 'I' for Inactive)
REMARK    1  A    between atoms: C1_1  and  C2_2 
ROOT
ATOM      1  C2  <0> d           1.171   2.086   0.002  0.00  0.00    -0.062 A 
ATOM      2  C3  <0> d          -0.017   1.378   0.010  0.00  0.00    -0.074 A 
ATOM      3  C4  <0> d           0.002  -0.004   0.002  0.00  0.00    -0.045 A 
ATOM      4  C5  <0> d           1.211  -0.679  -0.013  0.00  0.00     0.116 A 
ATOM      5  C6  <0> d           2.399   0.031  -0.021  0.00  0.00    -0.045 A 
ATOM      6  C7  <0> d           2.378   1.413  -0.013  0.00  0.00    -0.074 A 
ATOM      7  F1  <0> d           1.230  -2.030  -0.020  0.00  0.00    -0.206 F 
ATOM      8  H4  <0> d          -0.959   1.905   0.017  0.00  0.00     0.084 H 
ATOM      9  H5  <0> d          -0.926  -0.557   0.008  0.00  0.00     0.088 H 
ATOM     10  H6  <0> d           3.343  -0.495  -0.032  0.00  0.00     0.088 H 
ATOM     11  H7  <0> d           3.305   1.967  -0.019  0.00  0.00     0.084 H 
ENDROOT
BRANCH   1  12
ATOM     12  C1  <0> d           1.149   3.593   0.010  0.00  0.00    -0.051 C 
ATOM     13  H1  <0> d           1.153   3.950   1.040  0.00  0.00     0.033 H 
ATOM     14  H2  <0> d           2.029   3.971  -0.510  0.00  0.00     0.033 H 
ATOM     15  H3  <0> d           0.249   3.946  -0.493  0.00  0.00     0.033 H 
ENDBRANCH   1  12
TORSDOF 1
