REMARK  7 active torsions:
REMARK  status: ('A' for Active; 'I' for Inactive)
REMARK    1  A    between atoms: C1_1  and  C2_2 
REMARK    2  A    between atoms: C2_2  and  C3_3 
REMARK    3  A    between atoms: C3_3  and  O1_4 
REMARK    4  A    between atoms: O1_4  and  C4_5 
REMARK       I    between atoms: C4_5  and  N1_7 
REMARK    5  A    between atoms: N1_7  and  C5_8 
REMARK    6  A    between atoms: C5_8  and  C6_9 
REMARK    7  A    between atoms: C6_9  and  O3_10 
ROOT
ATOM      1  C4  <0> d           0.306   4.819   1.500  0.00  0.00     0.360 C 
ATOM      2  O2  <0> d           0.614   5.646   0.664  0.00  0.00    -0.239 OA
ATOM      3  N1  <0> d           0.530   3.511   1.268  0.00  0.00    -0.335 N 
ATOM      4  H8  <0> d           0.285   2.851   1.935  0.00  0.00     0.164 HD
ENDROOT
BRANCH   1   5
ATOM      5  O1  <0> d          -0.258   5.210   2.658  0.00  0.00    -0.304 OA
BRANCH   5   6
ATOM      6  C3  <0> d          -0.470   6.635   2.840  0.00  0.00     0.030 C 
ATOM      7  H6  <0> d           0.488   7.154   2.791  0.00  0.00     0.075 H 
ATOM      8  H7  <0> d          -1.126   7.009   2.054  0.00  0.00     0.075 H 
BRANCH   6   9
ATOM      9  C2  <0> d          -1.116   6.885   4.204  0.00  0.00    -0.048 C 
ATOM     10  H4  <0> d          -2.073   6.366   4.253  0.00  0.00     0.035 H 
ATOM     11  H5  <0> d          -0.460   6.511   4.991  0.00  0.00     0.035 H 
BRANCH   9  12
ATOM     12  C1  <0> d          -1.339   8.386   4.396  0.00  0.00    -0.075 C 
ATOM     13  H1  <0> d          -1.799   8.564   5.368  0.00  0.00     0.027 H 
ATOM     14  H2  <0> d          -0.381   8.905   4.348  0.00  0.00     0.027 H 
ATOM     15  H3  <0> d          -1.995   8.759   3.610  0.00  0.00     0.027 H 
ENDBRANCH   9  12
ENDBRANCH   6   9
ENDBRANCH   5   6
ENDBRANCH   1   5
BRANCH   3  16
ATOM     16  C5  <0> d           1.145   3.085   0.008  0.00  0.00     0.017 C 
ATOM     17  H9  <0> d           2.130   3.542  -0.089  0.00  0.00     0.067 H 
ATOM     18  H10 <0> d           0.516   3.397  -0.827  0.00  0.00     0.067 H 
BRANCH  16  19
ATOM     19  C6  <0> d           1.286   1.562  -0.002  0.00  0.00     0.031 C 
ATOM     20  H11 <0> d           1.840   1.243   0.881  0.00  0.00     0.076 H 
ATOM     21  H12 <0> d           1.823   1.252  -0.899  0.00  0.00     0.076 H 
BRANCH  19  22
ATOM     22  O3  <0> d          -0.011   0.963   0.007  0.00  0.00    -0.399 OA
ATOM     23  H13 <0> d           0.002  -0.004   0.002  0.00  0.00     0.209 HD
ENDBRANCH  19  22
ENDBRANCH  16  19
ENDBRANCH   3  16
TORSDOF 7
