REMARK  3 active torsions:
REMARK  status: ('A' for Active; 'I' for Inactive)
REMARK    1  A    between atoms: C1_1  and  O1_2 
REMARK    2  A    between atoms: O1_2  and  C2_3 
REMARK    3  A    between atoms: C5_7  and  N3_9 
ROOT
ATOM      1  C2  <0> d          -0.151   1.184   2.375  0.00  0.00     0.269 A 
ATOM      2  N1  <0> d           0.938   0.429   2.388  0.00  0.00    -0.218 NA
ATOM      3  C3  <0> d           1.495   0.054   3.526  0.00  0.00     0.030 A 
ATOM      4  C4  <0> d           0.913   0.456   4.732  0.00  0.00     0.107 A 
ATOM      5  C5  <0> d          -0.250   1.254   4.676  0.00  0.00     0.148 A 
ATOM      6  N2  <0> d          -0.739   1.589   3.488  0.00  0.00    -0.188 NA
ATOM      7  C6  <0> d           1.479   0.068   5.989  0.00  0.00     0.105 C 
ATOM      8  N4  <0> d           1.929  -0.241   6.986  0.00  0.00    -0.191 NA
ATOM      9  H4  <0> d           2.385  -0.557   3.525  0.00  0.00     0.117 H 
ENDROOT
BRANCH   5  10
ATOM     10  N3  <0> d          -0.866   1.680   5.835  0.00  0.00    -0.383 N 
ATOM     11  H5  <0> d          -1.665   2.228   5.787  0.00  0.00     0.157 HD
ATOM     12  H6  <0> d          -0.501   1.430   6.699  0.00  0.00     0.157 HD
ENDBRANCH   5  10
BRANCH   1  13
ATOM     13  O1  <0> d          -0.682   1.547   1.184  0.00  0.00    -0.324 OA
BRANCH  13  14
ATOM     14  C1  <0> d          -0.013   1.086   0.008  0.00  0.00     0.013 C 
ATOM     15  H1  <0> d           0.002  -0.004   0.002  0.00  0.00     0.067 H 
ATOM     16  H2  <0> d           1.010   1.463   0.000  0.00  0.00     0.067 H 
ATOM     17  H3  <0> d          -0.540   1.447  -0.875  0.00  0.00     0.067 H 
ENDBRANCH  13  14
ENDBRANCH   1  13
TORSDOF 3
