REMARK  6 active torsions:
REMARK  status: ('A' for Active; 'I' for Inactive)
REMARK    1  A    between atoms: C1_1  and  O1_2 
REMARK    2  A    between atoms: O1_2  and  C2_3 
REMARK    3  A    between atoms: C2_3  and  C3_5 
REMARK    4  A    between atoms: C3_5  and  C4_7 
REMARK    5  A    between atoms: C3_5  and  N1_9 
REMARK    6  A    between atoms: C4_7  and  O3_8 
ROOT
ATOM      1  C3  <0> d          -0.729   1.579   1.267  0.00  0.00     0.232 C 
ATOM      2  H1  <0> d          -1.794   1.306   1.246  0.00  0.00     0.107 H 
ENDROOT
BRANCH   1   3
ATOM      3  C2  <0> d          -0.074   0.981   2.485  0.00  0.00     0.293 C 
ATOM      4  O2  <0> d           0.713   1.633   3.130  0.00  0.00    -0.263 OA
BRANCH   3   5
ATOM      5  O1  <0> d          -0.364  -0.277   2.853  0.00  0.00    -0.325 OA
BRANCH   5   6
ATOM      6  C1  <0> d           0.304  -0.788   4.036  0.00  0.00     0.013 C 
ATOM      7  H2  <0> d          -0.022  -1.822   4.224  0.00  0.00     0.067 H 
ATOM      8  H3  <0> d           0.048  -0.160   4.902  0.00  0.00     0.067 H 
ATOM      9  H4  <0> d           1.393  -0.770   3.879  0.00  0.00     0.067 H 
ENDBRANCH   5   6
ENDBRANCH   3   5
ENDBRANCH   1   3
BRANCH   1  10
ATOM     10  C4  <0> d          -0.013   1.086   0.008  0.00  0.00     0.054 C 
ATOM     11  H5  <0> d           1.019   1.466   0.000  0.00  0.00     0.078 H 
ATOM     12  H6  <0> d           0.002  -0.014   0.002  0.00  0.00     0.078 H 
BRANCH  10  13
ATOM     13  O3  <0> d          -0.704   1.559  -1.150  0.00  0.00    -0.398 OA
ATOM     14  H7  <0> d          -0.334   1.304  -2.154  0.00  0.00     0.209 HD
ENDBRANCH  10  13
ENDBRANCH   1  10
BRANCH   1  15
ATOM     15  N1  <0> d          -0.644   3.044   1.336  0.00  0.00     0.094 N 
ATOM     16  H8  <0> d          -1.123   3.481   0.447  0.00  0.00     0.314 HD
ATOM     17  H9  <0> d          -1.159   3.399   2.241  0.00  0.00     0.314 HD
ENDBRANCH   1  15
TORSDOF 6
