REMARK  4 active torsions:
REMARK  status: ('A' for Active; 'I' for Inactive)
REMARK    1  A    between atoms: C1_1  and  C2_2 
REMARK    2  A    between atoms: C2_2  and  C3_3 
REMARK    3  A    between atoms: C2_2  and  C4_4 
REMARK    4  A    between atoms: C6_6  and  C7_9 
ROOT
ATOM      1  C2  <0> d           0.002  -0.004   0.002  0.00  0.00    -0.017 C 
ATOM      2  H4  <0> d           0.512  -0.356  -0.895  0.00  0.00     0.048 H 
ENDROOT
BRANCH   1   3
ATOM      3  C1  <0> d          -0.019   1.526   0.010  0.00  0.00    -0.068 C 
ATOM      4  H1  <0> d           1.004   1.903   0.003  0.00  0.00     0.028 H 
ATOM      5  H2  <0> d          -0.546   1.887  -0.873  0.00  0.00     0.028 H 
ATOM      6  H3  <0> d          -0.529   1.877   0.907  0.00  0.00     0.028 H 
ENDBRANCH   1   3
BRANCH   1   7
ATOM      7  C3  <0> d           0.742  -0.511   1.242  0.00  0.00    -0.068 C 
ATOM      8  H5  <0> d           0.232  -0.159   2.138  0.00  0.00     0.028 H 
ATOM      9  H6  <0> d           0.757  -1.601   1.236  0.00  0.00     0.028 H 
ATOM     10  H7  <0> d           1.765  -0.134   1.234  0.00  0.00     0.028 H 
ENDBRANCH   1   7
BRANCH   1  11
ATOM     11  C4  <0> d          -1.412  -0.526   0.013  0.00  0.00     0.068 A 
ATOM     12  N1  <0> d          -2.106  -0.870  -1.034  0.00  0.00    -0.132 NA
ATOM     13  O1  <0> d          -3.380  -1.307  -0.598  0.00  0.00    -0.206 OA
ATOM     14  C6  <0> d          -3.416  -1.200   0.745  0.00  0.00     0.179 A 
ATOM     15  C5  <0> d          -2.209  -0.718   1.154  0.00  0.00    -0.015 A 
ATOM     16  H8  <0> d          -1.917  -0.519   2.174  0.00  0.00     0.091 H 
BRANCH  14  17
ATOM     17  C7  <0> d          -4.554  -1.543   1.614  0.00  0.00     0.236 C 
ATOM     18  O2  <0> d          -4.463  -1.402   2.825  0.00  0.00    -0.642 OA
ATOM     19  O3  <0> d          -5.590  -1.970   1.124  0.00  0.00    -0.642 OA
ENDBRANCH  14  17
ENDBRANCH   1  11
TORSDOF 4
