REMARK  4 active torsions:
REMARK  status: ('A' for Active; 'I' for Inactive)
REMARK    1  A    between atoms: C1_1  and  C2_2 
REMARK    2  A    between atoms: C3_3  and  C6_9 
REMARK    3  A    between atoms: C4_5  and  C5_7 
REMARK    4  A    between atoms: C5_7  and  O1_8 
ROOT
ATOM      1  C2  <0> d          -2.197   1.558   3.001  0.00  0.00     0.044 A 
ATOM      2  C3  <0> d          -1.706   2.759   3.399  0.00  0.00     0.005 A 
ATOM      3  S1  <0> d          -0.464   3.037   2.144  0.00  0.00    -0.076 SA
ATOM      4  C4  <0> d          -0.718   1.572   1.248  0.00  0.00     0.099 A 
ATOM      5  N1  <0> d          -1.687   0.998   1.924  0.00  0.00    -0.248 NA
ENDROOT
BRANCH   4   6
ATOM      6  C5  <0> d          -0.013   1.086   0.008  0.00  0.00     0.063 C 
ATOM      7  H4  <0> d           1.019   1.466   0.000  0.00  0.00     0.084 H 
ATOM      8  H5  <0> d           0.002  -0.014   0.002  0.00  0.00     0.084 H 
BRANCH   6   9
ATOM      9  O1  <0> d          -0.704   1.559  -1.150  0.00  0.00    -0.394 OA
ATOM     10  H6  <0> d          -0.334   1.304  -2.154  0.00  0.00     0.209 HD
ENDBRANCH   6   9
ENDBRANCH   4   6
BRANCH   2  11
ATOM     11  C6  <0> d          -2.098   3.620   4.572  0.00  0.00    -0.043 C 
ATOM     12  H7  <0> d          -1.482   4.530   4.582  0.00  0.00     0.034 H 
ATOM     13  H8  <0> d          -1.941   3.060   5.506  0.00  0.00     0.034 H 
ATOM     14  H9  <0> d          -3.159   3.896   4.485  0.00  0.00     0.034 H 
ENDBRANCH   2  11
BRANCH   1  15
ATOM     15  C1  <0> d          -3.303   0.884   3.771  0.00  0.00    -0.035 C 
ATOM     16  H1  <0> d          -3.586   1.509   4.630  0.00  0.00     0.035 H 
ATOM     17  H2  <0> d          -2.956  -0.097   4.129  0.00  0.00     0.035 H 
ATOM     18  H3  <0> d          -4.175   0.747   3.114  0.00  0.00     0.035 H 
ENDBRANCH   1  15
TORSDOF 4
