REMARK  3 active torsions:
REMARK  status: ('A' for Active; 'I' for Inactive)
REMARK    1  A    between atoms: C4_4  and  O1_8 
REMARK    2  A    between atoms: C5_5  and  N1_7 
REMARK    3  A    between atoms: O1_8  and  C7_9 
ROOT
ATOM      1  C1  <0> d          -1.243   3.457   0.031  0.00  0.00    -0.081 A 
ATOM      2  C2  <0> d          -0.055   4.165   0.024  0.00  0.00    -0.080 A 
ATOM      3  C3  <0> d           1.154   3.495   0.009  0.00  0.00    -0.048 A 
ATOM      4  C4  <0> d           1.179   2.110   0.002  0.00  0.00     0.101 A 
ATOM      5  C5  <0> d          -0.017   1.395   0.010  0.00  0.00     0.059 A 
ATOM      6  C6  <0> d          -1.226   2.075   0.019  0.00  0.00    -0.055 A 
ATOM      7  H1  <0> d          -2.185   3.984   0.042  0.00  0.00     0.083 H 
ATOM      8  H2  <0> d          -0.073   5.245   0.028  0.00  0.00     0.083 H 
ATOM      9  H3  <0> d           2.080   4.052   0.004  0.00  0.00     0.087 H 
ATOM     10  H4  <0> d          -2.155   1.524   0.021  0.00  0.00     0.087 H 
ENDROOT
BRANCH   4  11
ATOM     11  O1  <0> d           2.368   1.450  -0.013  0.00  0.00    -0.288 OA
BRANCH  11  12
ATOM     12  C7  <0> d           3.553   2.248  -0.020  0.00  0.00     0.310 C 
ATOM     13  F1  <0> d           3.561   3.061  -1.158  0.00  0.00    -0.184 F 
ATOM     14  F2  <0> d           3.583   3.049   1.127  0.00  0.00    -0.184 F 
ATOM     15  H7  <0> d           4.428   1.598  -0.032  0.00  0.00     0.195 H 
ENDBRANCH  11  12
ENDBRANCH   4  11
BRANCH   5  16
ATOM     16  N1  <0> d           0.002  -0.004   0.002  0.00  0.00    -0.397 N 
ATOM     17  H5  <0> d           0.849  -0.478  -0.009  0.00  0.00     0.156 HD
ATOM     18  H6  <0> d          -0.831  -0.500   0.007  0.00  0.00     0.156 HD
ENDBRANCH   5  16
TORSDOF 3
