REMARK  2 active torsions:
REMARK  status: ('A' for Active; 'I' for Inactive)
REMARK    1  A    between atoms: C3_3  and  O1_9 
REMARK    2  A    between atoms: C6_6  and  N1_7 
ROOT
ATOM      1  C1  <0> d          -1.251   3.037   0.030  0.00  0.00    -0.055 A 
ATOM      2  C2  <0> d          -2.457   3.712   0.035  0.00  0.00    -0.046 A 
ATOM      3  C3  <0> d          -3.649   3.004   0.037  0.00  0.00     0.104 A 
ATOM      4  C4  <0> d          -3.631   1.615   0.029  0.00  0.00     0.151 A 
ATOM      5  C5  <0> d          -2.426   0.939   0.019  0.00  0.00    -0.018 A 
ATOM      6  C6  <0> d          -1.232   1.649   0.017  0.00  0.00     0.028 A 
ATOM      7  F1  <0> d          -4.793   0.924   0.031  0.00  0.00    -0.203 F 
ATOM      8  H1  <0> d          -0.324   3.590   0.033  0.00  0.00     0.087 H 
ATOM      9  H2  <0> d          -2.471   4.792   0.042  0.00  0.00     0.087 H 
ATOM     10  H3  <0> d          -2.412  -0.141   0.013  0.00  0.00     0.091 H 
ENDROOT
BRANCH   6  11
ATOM     11  N1  <0> d          -0.011   0.966   0.007  0.00  0.00    -0.399 N 
ATOM     12  H4  <0> d           0.002  -0.004   0.002  0.00  0.00     0.156 HD
ATOM     13  H5  <0> d           0.822   1.462   0.002  0.00  0.00     0.156 HD
ENDBRANCH   6  11
BRANCH   3  14
ATOM     14  O1  <0> d          -4.835   3.669   0.047  0.00  0.00    -0.358 OA
ATOM     15  H6  <0> d          -5.174   3.856   0.933  0.00  0.00     0.217 HD
ENDBRANCH   3  14
TORSDOF 2
