REMARK  2 active torsions:
REMARK  status: ('A' for Active; 'I' for Inactive)
REMARK    1  A    between atoms: C2_2  and  C3_3 
REMARK    2  A    between atoms: C6_6  and  N1_10 
ROOT
ATOM      1  C1  <0> d           0.018  -1.178  -0.004  0.00  0.00    -0.149 C 
ATOM      2  C2  <0> d           0.002  -0.004   0.002  0.00  0.00    -0.076 C 
ATOM      3  H1  <0> d           0.032  -2.228  -0.010  0.00  0.00     0.166 H 
ENDROOT
BRANCH   2   4
ATOM      4  C3  <0> d          -0.017   1.428   0.010  0.00  0.00     0.038 A 
ATOM      5  C8  <0> d           1.182   2.144   0.002  0.00  0.00     0.054 A 
ATOM      6  C7  <0> d           1.159   3.524   0.004  0.00  0.00    -0.035 A 
ATOM      7 Cl1  <0> d           2.699   1.300  -0.017  0.00  0.00    -0.083 Cl
ATOM      8  C6  <0> d          -0.055   4.200   0.026  0.00  0.00     0.027 A 
ATOM      9  H4  <0> d           2.086   4.079  -0.007  0.00  0.00     0.089 H 
ATOM     10  C5  <0> d          -1.250   3.489   0.039  0.00  0.00    -0.056 A 
ATOM     11  C4  <0> d          -1.235   2.111   0.031  0.00  0.00    -0.061 A 
ATOM     12  H3  <0> d          -2.192   4.017   0.055  0.00  0.00     0.086 H 
ATOM     13  H2  <0> d          -2.164   1.560   0.041  0.00  0.00     0.085 H 
BRANCH   8  14
ATOM     14  N1  <0> d          -0.075   5.595   0.033  0.00  0.00    -0.399 N 
ATOM     15  H5  <0> d          -0.922   6.068   0.048  0.00  0.00     0.156 HD
ATOM     16  H6  <0> d           0.758   6.092   0.024  0.00  0.00     0.156 HD
ENDBRANCH   8  14
ENDBRANCH   2   4
TORSDOF 2
