REMARK  4 active torsions:
REMARK  status: ('A' for Active; 'I' for Inactive)
REMARK    1  A    between atoms: C1_1  and  C2_2 
REMARK    2  A    between atoms: C2_2  and  C3_3 
REMARK    3  A    between atoms: C2_2  and  C4_4 
REMARK    4  A    between atoms: N1_7  and  C7_9 
ROOT
ATOM      1  C4  <0> d          -2.305   2.220   2.556  0.00  0.00     0.061 A 
ATOM      2  C5  <0> d          -1.092   2.236   3.252  0.00  0.00    -0.018 A 
ATOM      3  C6  <0> d          -0.120   1.824   2.404  0.00  0.00     0.123 A 
ATOM      4  N1  <0> d          -0.698   1.558   1.213  0.00  0.00    -0.263 N 
ATOM      5  N2  <0> d          -2.070   1.819   1.333  0.00  0.00    -0.176 NA
ATOM      6 Cl1  <0> d           1.568   1.667   2.779  0.00  0.00    -0.063 Cl
ATOM      7  H8  <0> d          -0.955   2.525   4.284  0.00  0.00     0.091 H 
ENDROOT
BRANCH   1   8
ATOM      8  C2  <0> d          -3.651   2.604   3.116  0.00  0.00    -0.017 C 
ATOM      9  H4  <0> d          -4.304   2.923   2.304  0.00  0.00     0.048 H 
BRANCH   8  10
ATOM     10  C1  <0> d          -4.270   1.399   3.826  0.00  0.00    -0.068 C 
ATOM     11  H1  <0> d          -3.616   1.080   4.638  0.00  0.00     0.028 H 
ATOM     12  H2  <0> d          -5.243   1.677   4.231  0.00  0.00     0.028 H 
ATOM     13  H3  <0> d          -4.392   0.581   3.116  0.00  0.00     0.028 H 
ENDBRANCH   8  10
BRANCH   8  14
ATOM     14  C3  <0> d          -3.479   3.751   4.113  0.00  0.00    -0.068 C 
ATOM     15  H5  <0> d          -3.038   4.610   3.607  0.00  0.00     0.028 H 
ATOM     16  H6  <0> d          -4.452   4.029   4.518  0.00  0.00     0.028 H 
ATOM     17  H7  <0> d          -2.825   3.432   4.925  0.00  0.00     0.028 H 
ENDBRANCH   8  14
ENDBRANCH   1   8
BRANCH   4  18
ATOM     18  C7  <0> d          -0.013   1.086   0.008  0.00  0.00     0.004 C 
ATOM     19  H9  <0> d           0.002  -0.004   0.002  0.00  0.00     0.059 H 
ATOM     20  H10 <0> d           1.010   1.463   0.000  0.00  0.00     0.059 H 
ATOM     21  H11 <0> d          -0.540   1.447  -0.875  0.00  0.00     0.059 H 
ENDBRANCH   4  18
TORSDOF 4
