REMARK  0 active torsions:
REMARK  status: ('A' for Active; 'I' for Inactive)
ROOT
ATOM      1  C1  <0> d          -0.017   1.380   0.010  0.00  0.00    -0.076 A 
ATOM      2  C2  <0> d           1.192   2.060   0.002  0.00  0.00    -0.044 A 
ATOM      3  C3  <0> d           2.380   1.333  -0.013  0.00  0.00     0.139 A 
ATOM      4  N1  <0> d           2.360   0.004  -0.021  0.00  0.00    -0.211 NA
ATOM      5  C4  <0> d           1.225  -0.669  -0.013  0.00  0.00     0.201 A 
ATOM      6  C5  <0> d           0.002  -0.004   0.002  0.00  0.00    -0.029 A 
ATOM      7  O1  <0> d           1.250  -2.026  -0.021  0.00  0.00    -0.170 OA
ATOM      8  C6  <0> d           3.635   2.023  -0.022  0.00  0.00     0.119 C 
ATOM      9  N2  <0> d           4.630   2.571  -0.029  0.00  0.00    -0.190 NA
ATOM     10  H1  <0> d          -0.953   1.919   0.026  0.00  0.00     0.083 H 
ATOM     11  H2  <0> d           1.212   3.139   0.007  0.00  0.00     0.088 H 
ATOM     12  H3  <0> d          -0.922  -0.562   0.008  0.00  0.00     0.090 H 
ENDROOT
TORSDOF 0
