REMARK  2 active torsions:
REMARK  status: ('A' for Active; 'I' for Inactive)
REMARK    1  A    between atoms: C1_1  and  O1_2 
REMARK    2  A    between atoms: O1_2  and  C2_3 
ROOT
ATOM      1  C2  <0> d          -3.412   2.505   0.046  0.00  0.00     0.070 A 
ATOM      2  C3  <0> d          -2.977   3.830   0.049  0.00  0.00    -0.050 A 
ATOM      3  C4  <0> d          -1.645   4.122   0.038  0.00  0.00    -0.067 A 
ATOM      4  C5  <0> d          -0.704   3.086   0.024  0.00  0.00     0.011 A 
ATOM      5  C6  <0> d           0.755   3.044   0.010  0.00  0.00     0.034 A 
ATOM      6  N1  <0> d           1.117   1.793   0.001  0.00  0.00    -0.186 NA
ATOM      7  N2  <0> d          -0.011   0.966   0.007  0.00  0.00    -0.278 N 
ATOM      8  H1  <0> d           0.003  -0.034   0.006  0.00  0.00     0.189 HD
ATOM      9  C7  <0> d          -1.138   1.746   0.016  0.00  0.00     0.064 A 
ATOM     10  C8  <0> d          -2.502   1.467   0.033  0.00  0.00    -0.023 A 
ATOM     11  H5  <0> d          -3.700   4.631   0.059  0.00  0.00     0.087 H 
ATOM     12  H6  <0> d          -1.317   5.151   0.039  0.00  0.00     0.085 H 
ATOM     13  H7  <0> d           1.416   3.898   0.009  0.00  0.00     0.118 H 
ATOM     14  H8  <0> d          -2.846   0.443   0.032  0.00  0.00     0.091 H 
ENDROOT
BRANCH   1  15
ATOM     15  O1  <0> d          -4.744   2.233   0.058  0.00  0.00    -0.356 OA
BRANCH  15  16
ATOM     16  C1  <0> d          -5.634   3.352   0.072  0.00  0.00     0.010 C 
ATOM     17  H2  <0> d          -5.449   3.951   0.963  0.00  0.00     0.066 H 
ATOM     18  H3  <0> d          -5.467   3.960  -0.817  0.00  0.00     0.066 H 
ATOM     19  H4  <0> d          -6.664   2.996   0.081  0.00  0.00     0.066 H 
ENDBRANCH  15  16
ENDBRANCH   1  15
TORSDOF 2
