REMARK  4 active torsions:
REMARK  status: ('A' for Active; 'I' for Inactive)
REMARK    1  A    between atoms: C1_1  and  O1_2 
REMARK    2  A    between atoms: O1_2  and  C2_3 
REMARK    3  A    between atoms: C4_5  and  N4_10 
REMARK    4  A    between atoms: C5_7  and  N3_9 
ROOT
ATOM      1  C2  <0> d           1.153  -0.670  -0.013  0.00  0.00     0.186 A 
ATOM      2  C3  <0> d           2.346   0.041  -0.020  0.00  0.00     0.013 A 
ATOM      3  C4  <0> d           2.289   1.433  -0.012  0.00  0.00     0.144 A 
ATOM      4  N1  <0> d           1.101   2.032   0.003  0.00  0.00    -0.046 NA
ATOM      5  C5  <0> d          -0.016   1.321   0.009  0.00  0.00     0.724 A 
ATOM      6  N2  <0> d           0.002  -0.004   0.002  0.00  0.00    -0.039 NA
ATOM      7  H4  <0> d           3.296  -0.473  -0.032  0.00  0.00     0.096 H 
ENDROOT
BRANCH   1   8
ATOM      8  O1  <0> d           1.161  -2.025  -0.020  0.00  0.00    -0.339 OA
BRANCH   8   9
ATOM      9  C1  <0> d          -0.108  -2.682  -0.012  0.00  0.00     0.012 C 
ATOM     10  H1  <0> d          -0.658  -2.398   0.885  0.00  0.00     0.067 H 
ATOM     11  H2  <0> d          -0.675  -2.388  -0.895  0.00  0.00     0.067 H 
ATOM     12  H3  <0> d           0.042  -3.762  -0.020  0.00  0.00     0.067 H 
ENDBRANCH   8   9
ENDBRANCH   1   8
BRANCH   5  13
ATOM     13  N3  <0> d          -1.234   1.978   0.019  0.00  0.00    -0.231 N 
ATOM     14  H5  <0> d          -2.059   1.469   0.020  0.00  0.00     0.174 HD
ATOM     15  H6  <0> d          -1.261   2.948   0.024  0.00  0.00     0.174 HD
ENDBRANCH   5  13
BRANCH   3  16
ATOM     16  N4  <0> d           3.454   2.183  -0.020  0.00  0.00    -0.383 N 
ATOM     17  H7  <0> d           4.317   1.740  -0.030  0.00  0.00     0.157 HD
ATOM     18  H8  <0> d           3.407   3.152  -0.014  0.00  0.00     0.157 HD
ENDBRANCH   3  16
TORSDOF 4
