REMARK  0 active torsions:
REMARK  status: ('A' for Active; 'I' for Inactive)
ROOT
ATOM      1  C1  <0> d           1.176   1.778   0.000  0.00  0.00    -0.080 A 
ATOM      2  C2  <0> d          -0.013   1.076   0.008  0.00  0.00    -0.076 A 
ATOM      3  C3  <0> d          -1.225   1.748   0.017  0.00  0.00    -0.045 A 
ATOM      4  C4  <0> d          -1.245   3.127   0.033  0.00  0.00     0.015 A 
ATOM      5  C5  <0> d          -0.049   3.833   0.025  0.00  0.00     0.124 A 
ATOM      6  C6  <0> d           1.159   3.160   0.008  0.00  0.00    -0.045 A 
ATOM      7  F1  <0> d          -0.066   5.184   0.034  0.00  0.00    -0.205 F 
ATOM      8  C7  <0> d          -2.536   3.902   0.057  0.00  0.00     0.138 C 
ATOM      9  N1  <0> d          -3.656   3.048  -0.350  0.00  0.00     0.087 N 
ATOM     10  C8  <0> d          -3.673   1.814   0.451  0.00  0.00     0.115 C 
ATOM     11  C9  <0> d          -2.496   0.939   0.019  0.00  0.00    -0.016 C 
ATOM     12  H1  <0> d           2.118   1.249  -0.011  0.00  0.00     0.083 H 
ATOM     13  H2  <0> d           0.002  -0.004   0.002  0.00  0.00     0.084 H 
ATOM     14  H3  <0> d           2.087   3.713   0.000  0.00  0.00     0.088 H 
ATOM     15  H4  <0> d          -2.722   4.274   1.076  0.00  0.00     0.087 H 
ATOM     16  H5  <0> d          -2.465   4.754  -0.636  0.00  0.00     0.087 H 
ATOM     17  H6  <0> d          -4.603   3.588  -0.199  0.00  0.00     0.316 HD
ATOM     18  H7  <0> d          -3.581   2.068   1.517  0.00  0.00     0.080 H 
ATOM     19  H8  <0> d          -4.620   1.280   0.281  0.00  0.00     0.080 H 
ATOM     20  H9  <0> d          -2.686   0.551  -0.992  0.00  0.00     0.042 H 
ATOM     21  H10 <0> d          -2.394   0.098   0.721  0.00  0.00     0.042 H 
ENDROOT
TORSDOF 0
