REMARK  1 active torsions:
REMARK  status: ('A' for Active; 'I' for Inactive)
REMARK    1  A    between atoms: C1_1  and  N1_2 
ROOT
ATOM      1  N1  <0> d          -1.018   2.325   0.019  0.00  0.00    -0.274 N 
ATOM      2  C2  <0> d          -0.017   1.389   0.010  0.00  0.00     0.064 A 
ATOM      3  C3  <0> d           0.002  -0.004   0.002  0.00  0.00    -0.055 A 
ATOM      4  C4  <0> d           1.196  -0.668  -0.013  0.00  0.00    -0.081 A 
ATOM      5  C5  <0> d           2.398   0.029  -0.021  0.00  0.00    -0.082 A 
ATOM      6  C6  <0> d           2.410   1.394  -0.013  0.00  0.00    -0.069 A 
ATOM      7  C7  <0> d           1.200   2.097   0.002  0.00  0.00     0.011 A 
ATOM      8  C8  <0> d           0.850   3.514   0.012  0.00  0.00     0.034 A 
ATOM      9  N2  <0> d          -0.449   3.602   0.025  0.00  0.00    -0.184 NA
ATOM     10  H4  <0> d          -0.925  -0.558   0.008  0.00  0.00     0.087 H 
ATOM     11  H5  <0> d           1.206  -1.748  -0.019  0.00  0.00     0.083 H 
ATOM     12  H6  <0> d           3.331  -0.514  -0.033  0.00  0.00     0.083 H 
ATOM     13  H7  <0> d           3.349   1.929  -0.020  0.00  0.00     0.085 H 
ATOM     14  H8  <0> d           1.545   4.341   0.009  0.00  0.00     0.118 H 
ENDROOT
BRANCH   1  15
ATOM     15  C1  <0> d          -2.454   2.033   0.023  0.00  0.00     0.003 C 
ATOM     16  H1  <0> d          -2.806   1.955   1.052  0.00  0.00     0.059 H 
ATOM     17  H2  <0> d          -2.989   2.836  -0.484  0.00  0.00     0.059 H 
ATOM     18  H3  <0> d          -2.635   1.091  -0.495  0.00  0.00     0.059 H 
ENDBRANCH   1  15
TORSDOF 1
