REMARK  9 active torsions:
REMARK  status: ('A' for Active; 'I' for Inactive)
REMARK    1  A    between atoms: C1_1  and  C2_2 
REMARK    2  A    between atoms: C2_2  and  C3_3 
REMARK    3  A    between atoms: C2_2  and  C4_4 
REMARK    4  A    between atoms: C2_2  and  O3_10 
REMARK    5  A    between atoms: C4_4  and  C5_5 
REMARK    6  A    between atoms: C5_5  and  O1_6 
REMARK    7  A    between atoms: C5_5  and  O2_8 
REMARK    8  A    between atoms: O1_6  and  C6_7 
REMARK    9  A    between atoms: O2_8  and  C7_9 
ROOT
ATOM      1  C4  <0> d           0.767   1.673  -0.291  0.00  0.00     0.009 C 
ATOM      2  H7  <0> d           0.387   2.693  -0.354  0.00  0.00     0.044 H 
ATOM      3  H8  <0> d           1.329   1.552   0.636  0.00  0.00     0.044 H 
ENDROOT
BRANCH   1   4
ATOM      4  C2  <0> d          -0.405   0.690  -0.309  0.00  0.00     0.055 C 
BRANCH   4   5
ATOM      5  C1  <0> d          -1.118   0.772  -1.660  0.00  0.00    -0.048 C 
ATOM      6  H1  <0> d          -1.953   0.071  -1.673  0.00  0.00     0.031 H 
ATOM      7  H2  <0> d          -1.491   1.785  -1.813  0.00  0.00     0.031 H 
ATOM      8  H3  <0> d          -0.419   0.518  -2.457  0.00  0.00     0.031 H 
ENDBRANCH   4   5
BRANCH   4   9
ATOM      9  C3  <0> d          -1.387   1.046   0.809  0.00  0.00    -0.048 C 
ATOM     10  H4  <0> d          -0.879   0.987   1.771  0.00  0.00     0.031 H 
ATOM     11  H5  <0> d          -1.760   2.058   0.656  0.00  0.00     0.031 H 
ATOM     12  H6  <0> d          -2.222   0.345   0.796  0.00  0.00     0.031 H 
ENDBRANCH   4   9
BRANCH   4  13
ATOM     13  O3  <0> d           0.084  -0.638  -0.109  0.00  0.00    -0.390 OA
ATOM     14  H16 <0> d           0.549  -0.764   0.730  0.00  0.00     0.210 HD
ENDBRANCH   4  13
ENDBRANCH   1   4
BRANCH   1  15
ATOM     15  C5  <0> d           1.685   1.395  -1.483  0.00  0.00     0.132 C 
ATOM     16  H9  <0> d           1.103   1.429  -2.405  0.00  0.00     0.129 H 
BRANCH  15  17
ATOM     17  O1  <0> d           2.714   2.385  -1.533  0.00  0.00    -0.366 OA
BRANCH  17  18
ATOM     18  C6  <0> d           3.252   2.599  -2.839  0.00  0.00     0.007 C 
ATOM     19  H10 <0> d           3.577   1.647  -3.258  0.00  0.00     0.066 H 
ATOM     20  H11 <0> d           2.487   3.037  -3.480  0.00  0.00     0.066 H 
ATOM     21  H12 <0> d           4.104   3.277  -2.775  0.00  0.00     0.066 H 
ENDBRANCH  17  18
ENDBRANCH  15  17
BRANCH  15  22
ATOM     22  O2  <0> d           2.274   0.102  -1.339  0.00  0.00    -0.366 OA
BRANCH  22  23
ATOM     23  C7  <0> d           2.895  -0.389  -2.529  0.00  0.00     0.007 C 
ATOM     24  H13 <0> d           3.059  -1.463  -2.437  0.00  0.00     0.066 H 
ATOM     25  H14 <0> d           2.249  -0.193  -3.384  0.00  0.00     0.066 H 
ATOM     26  H15 <0> d           3.852   0.113  -2.673  0.00  0.00     0.066 H 
ENDBRANCH  22  23
ENDBRANCH  15  22
ENDBRANCH   1  15
TORSDOF 9
