REMARK  4 active torsions:
REMARK  status: ('A' for Active; 'I' for Inactive)
REMARK    1  A    between atoms: C1_1  and  O1_2 
REMARK    2  A    between atoms: O1_2  and  C2_3 
REMARK    3  A    between atoms: C6_7  and  O2_9 
REMARK    4  A    between atoms: O2_9  and  C8_10 
ROOT
ATOM      1  C2  <0> d          -1.975   1.163   1.348  0.00  0.00     0.070 A 
ATOM      2  C3  <0> d          -2.587   0.359   0.397  0.00  0.00    -0.051 A 
ATOM      3  C4  <0> d          -3.902  -0.031   0.564  0.00  0.00    -0.078 A 
ATOM      4  C5  <0> d          -4.611   0.377   1.677  0.00  0.00    -0.051 A 
ATOM      5  C6  <0> d          -4.003   1.181   2.632  0.00  0.00     0.070 A 
ATOM      6  C7  <0> d          -2.682   1.570   2.469  0.00  0.00    -0.019 A 
ATOM      7  H4  <0> d          -2.035   0.038  -0.474  0.00  0.00     0.087 H 
ATOM      8  H5  <0> d          -4.377  -0.657  -0.178  0.00  0.00     0.083 H 
ATOM      9  H6  <0> d          -5.638   0.071   1.806  0.00  0.00     0.087 H 
ATOM     10  H7  <0> d          -2.206   2.191   3.213  0.00  0.00     0.092 H 
ENDROOT
BRANCH   1  11
ATOM     11  O1  <0> d          -0.682   1.547   1.184  0.00  0.00    -0.356 OA
BRANCH  11  12
ATOM     12  C1  <0> d          -0.013   1.086   0.008  0.00  0.00     0.010 C 
ATOM     13  H1  <0> d           0.002  -0.004   0.002  0.00  0.00     0.066 H 
ATOM     14  H2  <0> d           1.010   1.463   0.000  0.00  0.00     0.066 H 
ATOM     15  H3  <0> d          -0.540   1.447  -0.875  0.00  0.00     0.066 H 
ENDBRANCH  11  12
ENDBRANCH   1  11
BRANCH   5  16
ATOM     16  O2  <0> d          -4.700   1.582   3.727  0.00  0.00    -0.356 OA
BRANCH  16  17
ATOM     17  C8  <0> d          -6.054   1.138   3.832  0.00  0.00     0.010 C 
ATOM     18  H8  <0> d          -6.079   0.049   3.852  0.00  0.00     0.066 H 
ATOM     19  H9  <0> d          -6.494   1.528   4.750  0.00  0.00     0.066 H 
ATOM     20  H10 <0> d          -6.622   1.500   2.975  0.00  0.00     0.066 H 
ENDBRANCH  16  17
ENDBRANCH   5  16
TORSDOF 4
