REMARK  2 active torsions:
REMARK  status: ('A' for Active; 'I' for Inactive)
REMARK    1  A    between atoms: C1_1  and  C2_2 
REMARK    2  A    between atoms: N1_5  and  C5_7 
ROOT
ATOM      1  C2  <0> d           0.762  -2.064  -0.016  0.00  0.00     0.052 A 
ATOM      2  C3  <0> d          -0.637  -2.093  -0.003  0.00  0.00    -0.041 A 
ATOM      3  C4  <0> d          -1.080  -0.815   0.008  0.00  0.00     0.006 A 
ATOM      4  N1  <0> d           0.002  -0.004   0.002  0.00  0.00    -0.245 N 
ATOM      5  N2  <0> d           1.146  -0.813  -0.019  0.00  0.00    -0.173 NA
ATOM      6  H4  <0> d          -1.254  -2.980  -0.002  0.00  0.00     0.088 H 
ATOM      7  H5  <0> d          -2.113  -0.498   0.019  0.00  0.00     0.114 H 
ENDROOT
BRANCH   4   8
ATOM      8  C5  <0> d          -0.017   1.398   0.010  0.00  0.00     0.058 A 
ATOM      9  C10 <0> d           1.175   2.110   0.002  0.00  0.00    -0.055 A 
ATOM     10  C9  <0> d           1.153   3.490   0.010  0.00  0.00    -0.081 A 
ATOM     11  H10 <0> d           2.119   1.584  -0.009  0.00  0.00     0.087 H 
ATOM     12  C8  <0> d          -0.054   4.164   0.025  0.00  0.00    -0.083 A 
ATOM     13  H9  <0> d           2.080   4.045   0.004  0.00  0.00     0.083 H 
ATOM     14  C7  <0> d          -1.243   3.458   0.033  0.00  0.00    -0.081 A 
ATOM     15  H8  <0> d          -0.069   5.244   0.031  0.00  0.00     0.083 H 
ATOM     16  C6  <0> d          -1.228   2.077   0.019  0.00  0.00    -0.055 A 
ATOM     17  H7  <0> d          -2.185   3.987   0.046  0.00  0.00     0.083 H 
ATOM     18  H6  <0> d          -2.157   1.526   0.021  0.00  0.00     0.087 H 
ENDBRANCH   4   8
BRANCH   1  19
ATOM     19  C1  <0> d           1.670  -3.267  -0.031  0.00  0.00    -0.034 C 
ATOM     20  H1  <0> d           1.879  -3.551  -1.063  0.00  0.00     0.035 H 
ATOM     21  H2  <0> d           2.604  -3.023   0.475  0.00  0.00     0.035 H 
ATOM     22  H3  <0> d           1.184  -4.096   0.483  0.00  0.00     0.035 H 
ENDBRANCH   1  19
TORSDOF 2
