REMARK  1 active torsions:
REMARK  status: ('A' for Active; 'I' for Inactive)
REMARK    1  A    between atoms: C1_1  and  N1_2 
ROOT
ATOM      1  N1  <0> d           0.002  -0.004   0.002  0.00  0.00    -0.385 N 
ATOM      2  C2  <0> d          -1.248  -0.768   0.114  0.00  0.00    -0.005 C 
ATOM      3  C3  <0> d          -1.014  -1.904   1.119  0.00  0.00    -0.046 C 
ATOM      4  C4  <0> d           0.060  -2.840   0.565  0.00  0.00    -0.037 C 
ATOM      5  C5  <0> d           1.279  -2.058   0.152  0.00  0.00    -0.032 A 
ATOM      6  C6  <0> d           1.211  -0.698  -0.118  0.00  0.00     0.036 A 
ATOM      7  C7  <0> d           2.353  -0.007  -0.508  0.00  0.00    -0.057 A 
ATOM      8  C8  <0> d           3.556  -0.673  -0.629  0.00  0.00    -0.081 A 
ATOM      9  C9  <0> d           3.624  -2.028  -0.363  0.00  0.00    -0.082 A 
ATOM     10  C10 <0> d           2.490  -2.717   0.035  0.00  0.00    -0.075 A 
ATOM     11  H4  <0> d          -2.047  -0.119   0.470  0.00  0.00     0.064 H 
ATOM     12  H5  <0> d          -1.514  -1.184  -0.858  0.00  0.00     0.064 H 
ATOM     13  H6  <0> d          -0.681  -1.488   2.070  0.00  0.00     0.035 H 
ATOM     14  H7  <0> d          -1.941  -2.458   1.266  0.00  0.00     0.035 H 
ATOM     15  H8  <0> d           0.339  -3.562   1.333  0.00  0.00     0.040 H 
ATOM     16  H9  <0> d          -0.337  -3.372  -0.299  0.00  0.00     0.040 H 
ATOM     17  H10 <0> d           2.298   1.052  -0.716  0.00  0.00     0.086 H 
ATOM     18  H11 <0> d           4.443  -0.136  -0.932  0.00  0.00     0.083 H 
ATOM     19  H12 <0> d           4.566  -2.549  -0.457  0.00  0.00     0.083 H 
ATOM     20  H13 <0> d           2.548  -3.776   0.242  0.00  0.00     0.084 H 
ENDROOT
BRANCH   1  21
ATOM     21  C1  <0> d          -0.018   1.461   0.010  0.00  0.00    -0.018 C 
ATOM     22  H1  <0> d           0.318   1.834  -0.957  0.00  0.00     0.056 H 
ATOM     23  H2  <0> d          -1.033   1.809   0.202  0.00  0.00     0.056 H 
ATOM     24  H3  <0> d           0.646   1.829   0.792  0.00  0.00     0.056 H 
ENDBRANCH   1  21
TORSDOF 1
