REMARK  0 active torsions:
REMARK  status: ('A' for Active; 'I' for Inactive)
ROOT
ATOM      1  C1  <0> d          -0.792   1.612   1.238  0.00  0.00    -0.044 C 
ATOM      2  C2  <0> d          -0.013   1.086   0.008  0.00  0.00    -0.033 C 
ATOM      3  C3  <0> d          -0.797   1.613  -1.173  0.00  0.00    -0.024 C 
ATOM      4  N1  <0> d          -1.957   2.001  -0.820  0.00  0.00    -0.306 NA
ATOM      5  C4  <0> d          -2.197   1.824   0.616  0.00  0.00     0.014 C 
ATOM      6  H1  <0> d          -0.414   2.571   1.624  0.00  0.00     0.035 H 
ATOM      7  H2  <0> d          -0.861   0.887   2.062  0.00  0.00     0.035 H 
ATOM      8  H3  <0> d           1.016   1.476   0.031  0.00  0.00     0.041 H 
ATOM      9  H4  <0> d           0.012  -0.014   0.033  0.00  0.00     0.041 H 
ATOM     10  H5  <0> d          -0.488   1.689  -2.226  0.00  0.00     0.107 H 
ATOM     11  H6  <0> d          -2.823   0.942   0.817  0.00  0.00     0.067 H 
ATOM     12  H7  <0> d          -2.665   2.714   1.062  0.00  0.00     0.067 H 
ENDROOT
TORSDOF 0
