REMARK  4 active torsions:
REMARK  status: ('A' for Active; 'I' for Inactive)
REMARK    1  A    between atoms: C1_1  and  C2_2 
REMARK    2  A    between atoms: C2_2  and  C3_3 
REMARK       I    between atoms: C3_3  and  N1_5 
REMARK    3  A    between atoms: N1_5  and  C4_6 
REMARK    4  A    between atoms: N1_5  and  C5_7 
ROOT
ATOM      1  C3  <0> d          -0.014   1.209   0.009  0.00  0.00     0.218 C 
ATOM      2  O1  <0> d           0.002  -0.004   0.002  0.00  0.00    -0.273 OA
ATOM      3  N1  <0> d           1.143   1.898   0.001  0.00  0.00    -0.361 N 
ENDROOT
BRANCH   1   4
ATOM      4  C2  <0> d          -1.330   1.944   0.019  0.00  0.00     0.006 C 
ATOM      5  H4  <0> d          -1.392   2.565   0.913  0.00  0.00     0.046 H 
ATOM      6  H5  <0> d          -1.400   2.575  -0.867  0.00  0.00     0.046 H 
BRANCH   4   7
ATOM      7  C1  <0> d          -2.479   0.934   0.019  0.00  0.00    -0.068 C 
ATOM      8  H1  <0> d          -2.417   0.313  -0.875  0.00  0.00     0.028 H 
ATOM      9  H2  <0> d          -2.408   0.304   0.905  0.00  0.00     0.028 H 
ATOM     10  H3  <0> d          -3.430   1.466   0.026  0.00  0.00     0.028 H 
ENDBRANCH   4   7
ENDBRANCH   1   4
BRANCH   3  11
ATOM     11  C4  <0> d           2.422   1.183  -0.015  0.00  0.00    -0.017 C 
ATOM     12  H6  <0> d           2.729   1.011  -1.046  0.00  0.00     0.056 H 
ATOM     13  H7  <0> d           3.179   1.780   0.495  0.00  0.00     0.056 H 
ATOM     14  H8  <0> d           2.309   0.226   0.495  0.00  0.00     0.056 H 
ENDBRANCH   3  11
BRANCH   3  15
ATOM     15  C5  <0> d           1.124   3.363   0.009  0.00  0.00    -0.017 C 
ATOM     16  H9  <0> d           0.091   3.712   0.021  0.00  0.00     0.056 H 
ATOM     17  H10 <0> d           1.641   3.729   0.896  0.00  0.00     0.056 H 
ATOM     18  H11 <0> d           1.624   3.738  -0.883  0.00  0.00     0.056 H 
ENDBRANCH   3  15
TORSDOF 4
