REMARK  5 active torsions:
REMARK  status: ('A' for Active; 'I' for Inactive)
REMARK    1  A    between atoms: C1_1  and  C2_2 
REMARK    2  A    between atoms: C2_2  and  C3_3 
REMARK    3  A    between atoms: C3_3  and  C4_5 
REMARK    4  A    between atoms: C3_3  and  N1_6 
REMARK    5  A    between atoms: C7_9  and  N3_11 
ROOT
ATOM      1  C3  <0> d          -4.833   1.945   0.036  0.00  0.00     0.030 C 
ATOM      2  H1  <0> d          -5.036   0.958   0.476  0.00  0.00     0.075 H 
ENDROOT
BRANCH   1   3
ATOM      3  C2  <0> d          -5.362   2.015  -1.398  0.00  0.00    -0.048 C 
ATOM      4  H5  <0> d          -4.832   1.279  -2.021  0.00  0.00     0.035 H 
ATOM      5  H6  <0> d          -5.194   3.025  -1.801  0.00  0.00     0.035 H 
BRANCH   3   6
ATOM      6  C1  <0> d          -6.860   1.706  -1.405  0.00  0.00    -0.075 C 
ATOM      7  H2  <0> d          -7.240   1.756  -2.436  0.00  0.00     0.027 H 
ATOM      8  H3  <0> d          -7.389   2.442  -0.782  0.00  0.00     0.027 H 
ATOM      9  H4  <0> d          -7.027   0.696  -1.002  0.00  0.00     0.027 H 
ENDBRANCH   3   6
ENDBRANCH   1   3
BRANCH   1  10
ATOM     10  C4  <0> d          -5.479   3.051   0.873  0.00  0.00    -0.055 C 
ATOM     11  H7  <0> d          -5.099   3.000   1.904  0.00  0.00     0.030 H 
ATOM     12  H8  <0> d          -6.571   2.917   0.878  0.00  0.00     0.030 H 
ATOM     13  H9  <0> d          -5.232   4.031   0.439  0.00  0.00     0.030 H 
ENDBRANCH   1  10
BRANCH   1  14
ATOM     14  N1  <0> d          -3.379   2.124   0.030  0.00  0.00    -0.275 N 
ATOM     15  N2  <0> d          -2.424   1.099   0.020  0.00  0.00    -0.155 NA
ATOM     16  C7  <0> d          -1.233   1.649   0.017  0.00  0.00     0.142 A 
ATOM     17  C6  <0> d          -1.398   3.044   0.031  0.00  0.00    -0.021 A 
ATOM     18  C5  <0> d          -2.725   3.304   0.033  0.00  0.00     0.003 A 
ATOM     19  H11 <0> d          -0.606   3.778   0.037  0.00  0.00     0.091 H 
ATOM     20  H10 <0> d          -3.181   4.283   0.040  0.00  0.00     0.114 H 
BRANCH  16  21
ATOM     21  N3  <0> d          -0.011   0.966   0.007  0.00  0.00    -0.383 N 
ATOM     22  H12 <0> d           0.004  -0.134  -0.003  0.00  0.00     0.157 HD
ATOM     23  H13 <0> d           0.934   1.529   0.011  0.00  0.00     0.157 HD
ENDBRANCH  16  21
ENDBRANCH   1  14
TORSDOF 5
