REMARK  1 active torsions:
REMARK  status: ('A' for Active; 'I' for Inactive)
REMARK    1  A    between atoms: C7_8  and  O1_11 
ROOT
ATOM      1  C1  <0> d           2.396   0.027  -0.021  0.00  0.00    -0.080 A 
ATOM      2  C2  <0> d           2.377   1.408  -0.013  0.00  0.00    -0.076 A 
ATOM      3  C3  <0> d           1.168   2.088   0.002  0.00  0.00    -0.044 A 
ATOM      4  C4  <0> d          -0.017   1.386   0.010  0.00  0.00     0.016 A 
ATOM      5  C5  <0> d           0.002  -0.004   0.002  0.00  0.00     0.125 A 
ATOM      6  C6  <0> d           1.209  -0.680  -0.013  0.00  0.00    -0.045 A 
ATOM      7  F1  <0> d          -1.159  -0.695   0.009  0.00  0.00    -0.205 F 
ATOM      8  C7  <0> d          -0.847   2.642   0.019  0.00  0.00     0.068 A 
ATOM      9  H1  <0> d          -1.437   2.781  -0.887  0.00  0.00     0.091 H 
ATOM     10  C8  <0> d           0.463   3.419   0.016  0.00  0.00    -0.012 A 
ATOM     11  H2  <0> d           3.338  -0.500  -0.033  0.00  0.00     0.083 H 
ATOM     12  H3  <0> d           3.305   1.959  -0.019  0.00  0.00     0.084 H 
ATOM     13  H4  <0> d           1.223  -1.760  -0.019  0.00  0.00     0.088 H 
ATOM     14  H5  <0> d           0.634   3.994   0.926  0.00  0.00     0.044 H 
ATOM     15  H6  <0> d           0.617   4.004  -0.891  0.00  0.00     0.044 H 
ENDROOT
BRANCH   8  16
ATOM     16  O1  <0> d          -1.613   2.812   1.213  0.00  0.00    -0.390 OA
ATOM     17  H7  <0> d          -2.425   2.287   1.238  0.00  0.00     0.210 HD
ENDBRANCH   8  16
TORSDOF 1
