REMARK  3 active torsions:
REMARK  status: ('A' for Active; 'I' for Inactive)
REMARK    1  A    between atoms: C1_1  and  C2_2 
REMARK    2  A    between atoms: C2_2  and  C3_3 
REMARK    3  A    between atoms: C3_3  and  C4_4 
ROOT
ATOM      1  C4  <0> d           0.739  -2.027  -1.265  0.00  0.00     0.012 C 
ATOM      2  H1  <0> d          -0.273  -2.418  -1.156  0.00  0.00     0.072 H 
ATOM      3  C5  <0> d           1.374  -2.546  -2.574  0.00  0.00    -0.038 C 
ATOM      4  C6  <0> d           2.129  -3.803  -2.082  0.00  0.00     0.011 C 
ATOM      5  C7  <0> d           2.386  -3.531  -0.616  0.00  0.00     0.217 C 
ATOM      6  O1  <0> d           3.186  -4.129   0.071  0.00  0.00    -0.274 OA
ATOM      7  N1  <0> d           1.597  -2.530  -0.185  0.00  0.00    -0.356 N 
ATOM      8  H9  <0> d           0.607  -2.812  -3.302  0.00  0.00     0.036 H 
ATOM      9  H10 <0> d           2.066  -1.813  -2.989  0.00  0.00     0.036 H 
ATOM     10  H11 <0> d           1.509  -4.691  -2.202  0.00  0.00     0.047 H 
ATOM     11  H12 <0> d           3.070  -3.918  -2.619  0.00  0.00     0.047 H 
ATOM     12  H13 <0> d           1.596  -2.183   0.721  0.00  0.00     0.162 HD
ENDROOT
BRANCH   1  13
ATOM     13  C3  <0> d           0.718  -0.497  -1.257  0.00  0.00    -0.046 C 
ATOM     14  H7  <0> d           0.191  -0.136  -2.140  0.00  0.00     0.035 H 
ATOM     15  H8  <0> d           1.741  -0.120  -1.264  0.00  0.00     0.035 H 
BRANCH  13  16
ATOM     16  C2  <0> d           0.002  -0.004   0.002  0.00  0.00    -0.067 C 
ATOM     17  H5  <0> d           0.529  -0.365   0.885  0.00  0.00     0.032 H 
ATOM     18  H6  <0> d          -1.020  -0.381   0.010  0.00  0.00     0.032 H 
BRANCH  16  19
ATOM     19  C1  <0> d          -0.019   1.526   0.010  0.00  0.00    -0.076 C 
ATOM     20  H2  <0> d           1.004   1.903   0.003  0.00  0.00     0.027 H 
ATOM     21  H3  <0> d          -0.546   1.887  -0.873  0.00  0.00     0.027 H 
ATOM     22  H4  <0> d          -0.529   1.877   0.907  0.00  0.00     0.027 H 
ENDBRANCH  16  19
ENDBRANCH  13  16
ENDBRANCH   1  13
TORSDOF 3
