REMARK  6 active torsions:
REMARK  status: ('A' for Active; 'I' for Inactive)
REMARK    1  A    between atoms: C1_1  and  C2_2 
REMARK    2  A    between atoms: C2_2  and  C5_7 
REMARK    3  A    between atoms: C3_3  and  C4_4 
REMARK       I    between atoms: C4_4  and  N1_6 
REMARK    4  A    between atoms: C5_7  and  C6_8 
REMARK    5  A    between atoms: C5_7  and  C7_9 
REMARK    6  A    between atoms: C5_7  and  C8_10 
ROOT
ATOM      1  C5  <0> d          -4.874   0.740   0.387  0.00  0.00    -0.028 C 
ENDROOT
BRANCH   1   2
ATOM      2  C2  <0> d          -3.609   1.516   0.128  0.00  0.00    -0.071 C 
ATOM      3  C3  <0> d          -2.470   0.871  -0.109  0.00  0.00    -0.015 C 
ATOM      4  H4  <0> d          -2.468  -0.204  -0.206  0.00  0.00     0.092 H 
BRANCH   2   5
ATOM      5  C1  <0> d          -3.635   3.023   0.136  0.00  0.00    -0.054 C 
ATOM      6  H1  <0> d          -3.294   3.397  -0.829  0.00  0.00     0.033 H 
ATOM      7  H2  <0> d          -4.652   3.368   0.321  0.00  0.00     0.033 H 
ATOM      8  H3  <0> d          -2.977   3.393   0.923  0.00  0.00     0.033 H 
ENDBRANCH   2   5
BRANCH   3   9
ATOM      9  C4  <0> d          -1.212   1.623  -0.238  0.00  0.00     0.239 C 
ATOM     10  O1  <0> d          -1.227   2.840  -0.222  0.00  0.00    -0.269 OA
ATOM     11  N1  <0> d          -0.044   0.965  -0.374  0.00  0.00    -0.367 N 
ATOM     12  H5  <0> d          -0.033  -0.005  -0.387  0.00  0.00     0.159 HD
ATOM     13  H6  <0> d           0.784   1.461  -0.463  0.00  0.00     0.159 HD
ENDBRANCH   3   9
ENDBRANCH   1   2
BRANCH   1  14
ATOM     14  C6  <0> d          -4.575  -0.759   0.322  0.00  0.00    -0.066 C 
ATOM     15  H7  <0> d          -3.831  -1.015   1.077  0.00  0.00     0.028 H 
ATOM     16  H8  <0> d          -5.490  -1.321   0.510  0.00  0.00     0.028 H 
ATOM     17  H9  <0> d          -4.191  -1.011  -0.666  0.00  0.00     0.028 H 
ENDBRANCH   1  14
BRANCH   1  18
ATOM     18  C7  <0> d          -5.413   1.092   1.775  0.00  0.00    -0.066 C 
ATOM     19  H10 <0> d          -5.627   2.160   1.821  0.00  0.00     0.028 H 
ATOM     20  H11 <0> d          -6.329   0.531   1.963  0.00  0.00     0.028 H 
ATOM     21  H12 <0> d          -4.669   0.837   2.530  0.00  0.00     0.028 H 
ENDBRANCH   1  18
BRANCH   1  22
ATOM     22  C8  <0> d          -5.919   1.098  -0.672  0.00  0.00    -0.066 C 
ATOM     23  H13 <0> d          -5.535   0.846  -1.660  0.00  0.00     0.028 H 
ATOM     24  H14 <0> d          -6.834   0.536  -0.484  0.00  0.00     0.028 H 
ATOM     25  H15 <0> d          -6.132   2.166  -0.625  0.00  0.00     0.028 H 
ENDBRANCH   1  22
TORSDOF 6
