REMARK  1 active torsions:
REMARK  status: ('A' for Active; 'I' for Inactive)
REMARK    1  A    between atoms: C1_1  and  C2_2 
ROOT
ATOM      1  C2  <0> d           2.381   1.427  -0.013  0.00  0.00    -0.003 A 
ATOM      2  C3  <0> d           2.405   0.032  -0.020  0.00  0.00     0.053 A 
ATOM      3  C4  <0> d           1.204  -0.681  -0.013  0.00  0.00    -0.062 A 
ATOM      4  C5  <0> d           0.002  -0.004   0.002  0.00  0.00    -0.079 A 
ATOM      5  C6  <0> d          -0.017   1.379   0.010  0.00  0.00    -0.045 A 
ATOM      6  C7  <0> d           1.171   2.094   0.002  0.00  0.00     0.123 A 
ATOM      7  F1  <0> d           1.145   3.445   0.009  0.00  0.00    -0.206 F 
ATOM      8  C8  <0> d           3.655  -0.666  -0.035  0.00  0.00     0.100 C 
ATOM      9  N1  <0> d           4.647  -1.220  -0.047  0.00  0.00    -0.191 NA
ATOM     10  H4  <0> d           1.216  -1.761  -0.018  0.00  0.00     0.085 H 
ATOM     11  H5  <0> d          -0.927  -0.555   0.008  0.00  0.00     0.083 H 
ATOM     12  H6  <0> d          -0.961   1.904   0.017  0.00  0.00     0.088 H 
ENDROOT
BRANCH   1  13
ATOM     13  C1  <0> d           3.671   2.205  -0.021  0.00  0.00    -0.047 C 
ATOM     14  H1  <0> d           3.974   2.398  -1.050  0.00  0.00     0.033 H 
ATOM     15  H2  <0> d           3.528   3.152   0.499  0.00  0.00     0.033 H 
ATOM     16  H3  <0> d           4.447   1.628   0.483  0.00  0.00     0.033 H 
ENDBRANCH   1  13
TORSDOF 1
