REMARK  0 active torsions:
REMARK  status: ('A' for Active; 'I' for Inactive)
ROOT
ATOM      1  C1  <0> d          -3.626   3.170   0.053  0.00  0.00    -0.082 A 
ATOM      2  C2  <0> d          -3.626   1.776   0.045  0.00  0.00    -0.082 A 
ATOM      3  C3  <0> d          -2.459   1.077   0.030  0.00  0.00    -0.072 A 
ATOM      4  C4  <0> d          -1.234   1.767   0.018  0.00  0.00    -0.025 A 
ATOM      5  C5  <0> d          -0.013   1.076   0.008  0.00  0.00    -0.052 A 
ATOM      6  C6  <0> d           1.174   1.790   0.001  0.00  0.00     0.045 A 
ATOM      7  C7  <0> d           1.160   3.197   0.008  0.00  0.00    -0.062 A 
ATOM      8  C8  <0> d          -0.011   3.882   0.023  0.00  0.00    -0.071 A 
ATOM      9  C9  <0> d          -1.234   3.185   0.031  0.00  0.00    -0.026 A 
ATOM     10  C10 <0> d          -2.459   3.871   0.046  0.00  0.00    -0.072 A 
ATOM     11  C11 <0> d           2.424   1.092  -0.016  0.00  0.00     0.099 C 
ATOM     12  N1  <0> d           3.416   0.538  -0.029  0.00  0.00    -0.191 NA
ATOM     13  H1  <0> d          -4.566   3.702   0.065  0.00  0.00     0.083 H 
ATOM     14  H2  <0> d          -4.566   1.244   0.051  0.00  0.00     0.083 H 
ATOM     15  H3  <0> d          -2.474  -0.003   0.023  0.00  0.00     0.084 H 
ATOM     16  H4  <0> d           0.002  -0.004   0.002  0.00  0.00     0.087 H 
ATOM     17  H5  <0> d           2.094   3.740   0.002  0.00  0.00     0.085 H 
ATOM     18  H6  <0> d          -0.006   4.962   0.029  0.00  0.00     0.084 H 
ATOM     19  H7  <0> d          -2.476   4.951   0.052  0.00  0.00     0.084 H 
ENDROOT
TORSDOF 0
