REMARK  2 active torsions:
REMARK  status: ('A' for Active; 'I' for Inactive)
REMARK    1  A    between atoms: C1_1  and  C2_2 
REMARK    2  A    between atoms: C2_2  and  C3_3 
ROOT
ATOM      1  C3  <0> d          -0.048   3.850   0.023  0.00  0.00    -0.057 A 
ATOM      2  C4  <0> d           1.155   3.167   0.008  0.00  0.00    -0.077 A 
ATOM      3  C5  <0> d           1.172   1.783   0.000  0.00  0.00    -0.081 A 
ATOM      4  C6  <0> d          -0.013   1.076   0.008  0.00  0.00    -0.063 A 
ATOM      5  C7  <0> d          -1.230   1.759   0.017  0.00  0.00     0.045 A 
ATOM      6  C8  <0> d          -1.240   3.155   0.031  0.00  0.00    -0.057 A 
ATOM      7  C9  <0> d          -2.463   1.031   0.019  0.00  0.00     0.099 C 
ATOM      8  N1  <0> d          -3.442   0.454   0.021  0.00  0.00    -0.191 NA
ATOM      9  H6  <0> d           2.085   3.716   0.001  0.00  0.00     0.084 H 
ATOM     10  H7  <0> d           2.114   1.256  -0.011  0.00  0.00     0.083 H 
ATOM     11  H8  <0> d           0.002  -0.004   0.002  0.00  0.00     0.085 H 
ATOM     12  H9  <0> d          -2.178   3.690   0.043  0.00  0.00     0.086 H 
ENDROOT
BRANCH   1  13
ATOM     13  C2  <0> d          -0.057   5.357   0.031  0.00  0.00    -0.044 C 
ATOM     14  H4  <0> d          -0.944   5.713   0.555  0.00  0.00     0.039 H 
ATOM     15  H5  <0> d           0.836   5.723   0.538  0.00  0.00     0.039 H 
BRANCH  13  16
ATOM     16  C1  <0> d          -0.073   5.875  -1.409  0.00  0.00    -0.073 C 
ATOM     17  H1  <0> d           0.814   5.519  -1.933  0.00  0.00     0.028 H 
ATOM     18  H2  <0> d          -0.966   5.509  -1.916  0.00  0.00     0.028 H 
ATOM     19  H3  <0> d          -0.080   6.965  -1.403  0.00  0.00     0.028 H 
ENDBRANCH  13  16
ENDBRANCH   1  13
TORSDOF 2
