REMARK  2 active torsions:
REMARK  status: ('A' for Active; 'I' for Inactive)
REMARK    1  A    between atoms: C1_1  and  C2_2 
REMARK    2  A    between atoms: C2_2  and  C6_10 
ROOT
ATOM      1  C2  <0> d           2.130   1.697   1.008  0.00  0.00     0.174 C 
ATOM      2  O1  <0> d           1.177   2.145   0.002  0.00  0.00    -0.283 OA
ATOM      3  C3  <0> d          -0.018   1.513   0.010  0.00  0.00     0.270 C 
ATOM      4  O2  <0> d          -1.058   2.129   0.019  0.00  0.00    -0.265 OA
ATOM      5  C4  <0> d           0.002  -0.004   0.002  0.00  0.00     0.096 C 
ATOM      6  C5  <0> d           1.088  -0.438   0.969  0.00  0.00     0.270 C 
ATOM      7  O3  <0> d           0.919  -1.357   1.736  0.00  0.00    -0.265 OA
ATOM      8  O4  <0> d           2.253   0.247   0.935  0.00  0.00    -0.283 OA
ATOM      9  H4  <0> d          -0.963  -0.391   0.329  0.00  0.00     0.063 H 
ATOM     10  H5  <0> d           0.230  -0.367  -1.000  0.00  0.00     0.063 H 
ENDROOT
BRANCH   1  11
ATOM     11  C1  <0> d           1.634   2.099   2.398  0.00  0.00    -0.025 C 
ATOM     12  H1  <0> d           2.345   1.756   3.150  0.00  0.00     0.035 H 
ATOM     13  H2  <0> d           1.543   3.183   2.452  0.00  0.00     0.035 H 
ATOM     14  H3  <0> d           0.662   1.643   2.583  0.00  0.00     0.035 H 
ENDBRANCH   1  11
BRANCH   1  15
ATOM     15  C6  <0> d           3.494   2.339   0.745  0.00  0.00    -0.025 C 
ATOM     16  H6  <0> d           3.845   2.055  -0.247  0.00  0.00     0.035 H 
ATOM     17  H7  <0> d           3.401   3.424   0.800  0.00  0.00     0.035 H 
ATOM     18  H8  <0> d           4.207   1.997   1.495  0.00  0.00     0.035 H 
ENDBRANCH   1  15
TORSDOF 2
