REMARK  2 active torsions:
REMARK  status: ('A' for Active; 'I' for Inactive)
REMARK    1  A    between atoms: C8_8  and  C9_10 
REMARK    2  A    between atoms: C9_10  and  O1_11 
ROOT
ATOM      1  C1  <0> d           1.175   1.778   0.000  0.00  0.00    -0.082 A 
ATOM      2  C2  <0> d           1.164   3.161   0.008  0.00  0.00    -0.082 A 
ATOM      3  C3  <0> d          -0.041   3.837   0.023  0.00  0.00    -0.076 A 
ATOM      4  C4  <0> d          -1.231   3.134   0.030  0.00  0.00    -0.045 A 
ATOM      5  C5  <0> d          -1.227   1.751   0.017  0.00  0.00    -0.051 A 
ATOM      6  C6  <0> d          -0.013   1.076   0.008  0.00  0.00    -0.076 A 
ATOM      7  C7  <0> d          -2.735   1.608   0.035  0.00  0.00    -0.031 A 
ATOM      8  C8  <0> d          -2.738   3.137   0.043  0.00  0.00    -0.004 A 
ATOM      9  H1  <0> d          -3.282   3.695   0.820  0.00  0.00     0.051 H 
ATOM     10  H2  <0> d           2.115   1.247  -0.011  0.00  0.00     0.083 H 
ATOM     11  H3  <0> d           2.094   3.710   0.003  0.00  0.00     0.083 H 
ATOM     12  H4  <0> d          -0.052   4.917   0.028  0.00  0.00     0.084 H 
ATOM     13  H5  <0> d           0.002  -0.004   0.002  0.00  0.00     0.084 H 
ATOM     14  H6  <0> d          -3.062   1.062  -0.862  0.00  0.00     0.041 H 
ATOM     15  H7  <0> d          -3.040   1.052   0.934  0.00  0.00     0.041 H 
ENDROOT
BRANCH   8  16
ATOM     16  C9  <0> d          -3.351   3.745  -1.220  0.00  0.00     0.024 C 
ATOM     17  H8  <0> d          -2.727   3.490  -2.089  0.00  0.00     0.075 H 
ATOM     18  H9  <0> d          -4.365   3.344  -1.365  0.00  0.00     0.075 H 
BRANCH  16  19
ATOM     19  O1  <0> d          -3.416   5.166  -1.081  0.00  0.00    -0.400 OA
ATOM     20  H10 <0> d          -3.830   5.780  -1.894  0.00  0.00     0.209 HD
ENDBRANCH  16  19
ENDBRANCH   8  16
TORSDOF 2
