REMARK  1 active torsions:
REMARK  status: ('A' for Active; 'I' for Inactive)
REMARK    1  A    between atoms: C4_5  and  O2_8 
ROOT
ATOM      1  C1  <0> d          -0.017   1.393   0.010  0.00  0.00    -0.038 A 
ATOM      2  C2  <0> d           1.178   2.082   0.002  0.00  0.00    -0.015 A 
ATOM      3  C3  <0> d           2.383   1.372  -0.013  0.00  0.00     0.247 A 
ATOM      4  N1  <0> d           2.380   0.026  -0.021  0.00  0.00    -0.302 N 
ATOM      5  C4  <0> d           1.209  -0.669  -0.013  0.00  0.00     0.180 A 
ATOM      6  C5  <0> d           0.002  -0.004   0.002  0.00  0.00     0.158 A 
ATOM      7  O1  <0> d          -1.166  -0.705   0.010  0.00  0.00    -0.188 OA
ATOM      8  O3  <0> d           3.445   1.977  -0.020  0.00  0.00    -0.268 OA
ATOM      9  H1  <0> d          -0.956   1.927   0.026  0.00  0.00     0.088 H 
ATOM     10  H2  <0> d           1.183   3.162   0.007  0.00  0.00     0.092 H 
ATOM     11  H3  <0> d           3.222  -0.455  -0.032  0.00  0.00     0.171 HD
ENDROOT
BRANCH   5  12
ATOM     12  O2  <0> d           1.231  -2.022  -0.021  0.00  0.00    -0.344 OA
ATOM     13  H4  <0> d           0.354  -2.429  -0.015  0.00  0.00     0.219 HD
ENDBRANCH   5  12
TORSDOF 1
