REMARK  6 active torsions:
REMARK  status: ('A' for Active; 'I' for Inactive)
REMARK    1  A    between atoms: C1_1  and  C2_2 
REMARK    2  A    between atoms: C2_2  and  C3_3 
REMARK    3  A    between atoms: C2_2  and  C4_4 
REMARK    4  A    between atoms: C2_2  and  O2_11 
REMARK    5  A    between atoms: C4_4  and  C5_5 
REMARK    6  A    between atoms: C5_5  and  C6_6 
ROOT
ATOM      1  C4  <0> d          -1.433  -0.534   0.013  0.00  0.00    -0.032 C 
ATOM      2  H7  <0> d          -1.970  -0.111   0.862  0.00  0.00     0.037 H 
ATOM      3  H8  <0> d          -1.933  -0.247  -0.912  0.00  0.00     0.037 H 
ENDROOT
BRANCH   1   4
ATOM      4  C2  <0> d           0.002  -0.004   0.002  0.00  0.00     0.051 C 
BRANCH   4   5
ATOM      5  C1  <0> d          -0.019   1.526   0.010  0.00  0.00    -0.048 C 
ATOM      6  H1  <0> d           1.004   1.903   0.003  0.00  0.00     0.031 H 
ATOM      7  H2  <0> d          -0.546   1.887  -0.873  0.00  0.00     0.031 H 
ATOM      8  H3  <0> d          -0.529   1.877   0.907  0.00  0.00     0.031 H 
ENDBRANCH   4   5
BRANCH   4   9
ATOM      9  C3  <0> d           0.742  -0.511   1.242  0.00  0.00    -0.048 C 
ATOM     10  H4  <0> d           0.232  -0.159   2.138  0.00  0.00     0.031 H 
ATOM     11  H5  <0> d           0.757  -1.601   1.236  0.00  0.00     0.031 H 
ATOM     12  H6  <0> d           1.765  -0.134   1.234  0.00  0.00     0.031 H 
ENDBRANCH   4   9
BRANCH   4  13
ATOM     13  O2  <0> d           0.671  -0.465  -1.174  0.00  0.00    -0.391 OA
ATOM     14  H14 <0> d           1.588  -0.167  -1.247  0.00  0.00     0.210 HD
ENDBRANCH   4  13
ENDBRANCH   1   4
BRANCH   1  15
ATOM     15  C5  <0> d          -1.413  -2.059   0.130  0.00  0.00    -0.018 C 
ATOM     16  H9  <0> d          -0.876  -2.482  -0.719  0.00  0.00     0.043 H 
ATOM     17  H10 <0> d          -0.913  -2.346   1.055  0.00  0.00     0.043 H 
BRANCH  15  18
ATOM     18  C6  <0> d          -2.827  -2.581   0.141  0.00  0.00     0.052 A 
ATOM     19  O1  <0> d          -3.586  -2.770   1.232  0.00  0.00    -0.327 OA
ATOM     20  C9  <0> d          -4.789  -3.241   0.865  0.00  0.00     0.019 A 
ATOM     21  C8  <0> d          -4.806  -3.367  -0.474  0.00  0.00    -0.059 A 
ATOM     22  H13 <0> d          -5.604  -3.482   1.532  0.00  0.00     0.123 H 
ATOM     23  C7  <0> d          -3.541  -2.941  -0.941  0.00  0.00    -0.052 A 
ATOM     24  H12 <0> d          -5.627  -3.724  -1.077  0.00  0.00     0.086 H 
ATOM     25  H11 <0> d          -3.211  -2.911  -1.969  0.00  0.00     0.087 H 
ENDBRANCH  15  18
ENDBRANCH   1  15
TORSDOF 6
