REMARK  4 active torsions:
REMARK  status: ('A' for Active; 'I' for Inactive)
REMARK    1  A    between atoms: C2_2  and  C3_3 
REMARK    2  A    between atoms: C3_3  and  O1_4 
REMARK    3  A    between atoms: O1_4  and  C4_5 
REMARK    4  A    between atoms: C4_5  and  C5_6 
ROOT
ATOM      1  O1  <0> d          -3.343   1.514   0.979  0.00  0.00    -0.384 OA
ENDROOT
BRANCH   1   2
ATOM      2  C3  <0> d          -2.451   0.944   0.019  0.00  0.00     0.034 C 
ATOM      3  H4  <0> d          -2.904   0.992  -0.972  0.00  0.00     0.080 H 
ATOM      4  H5  <0> d          -2.253  -0.096   0.278  0.00  0.00     0.080 H 
BRANCH   2   5
ATOM      5  C2  <0> d          -1.156   1.715   0.017  0.00  0.00    -0.090 C 
ATOM      6  C1  <0> d          -0.013   1.076   0.008  0.00  0.00    -0.123 C 
ATOM      7  H1  <0> d           0.002  -0.004   0.002  0.00  0.00     0.066 H 
ATOM      8  H2  <0> d           0.915   1.629   0.002  0.00  0.00     0.066 H 
ATOM      9  H3  <0> d          -1.171   2.795   0.023  0.00  0.00     0.078 H 
ENDBRANCH   2   5
ENDBRANCH   1   2
BRANCH   1  10
ATOM     10  C4  <0> d          -4.607   0.853   1.061  0.00  0.00     0.034 C 
ATOM     11  H6  <0> d          -5.105   0.899   0.092  0.00  0.00     0.080 H 
ATOM     12  H7  <0> d          -4.455  -0.189   1.342  0.00  0.00     0.080 H 
BRANCH  10  13
ATOM     13  C5  <0> d          -5.463   1.533   2.098  0.00  0.00    -0.090 C 
ATOM     14  C6  <0> d          -6.720   1.798   1.840  0.00  0.00    -0.123 C 
ATOM     15  H9  <0> d          -7.142   1.528   0.883  0.00  0.00     0.066 H 
ATOM     16  H10 <0> d          -7.333   2.285   2.583  0.00  0.00     0.066 H 
ATOM     17  H8  <0> d          -5.040   1.802   3.055  0.00  0.00     0.078 H 
ENDBRANCH  10  13
ENDBRANCH   1  10
TORSDOF 4
