REMARK  6 active torsions:
REMARK  status: ('A' for Active; 'I' for Inactive)
REMARK    1  A    between atoms: C1_1  and  C2_2 
REMARK    2  A    between atoms: C2_2  and  N1_3 
REMARK    3  A    between atoms: C4_5  and  C7_9 
REMARK    4  A    between atoms: C5_6  and  C6_8 
REMARK    5  A    between atoms: C7_9  and  C8_11 
REMARK    6  A    between atoms: C7_9  and  O1_12 
ROOT
ATOM      1  N1  <0> d          -1.387   5.157   1.008  0.00  0.00    -0.280 N 
ATOM      2  C3  <0> d          -1.754   3.871   0.821  0.00  0.00     0.009 A 
ATOM      3  C4  <0> d          -0.749   3.086   1.275  0.00  0.00     0.013 A 
ATOM      4  C5  <0> d           0.269   3.920   1.748  0.00  0.00     0.061 A 
ATOM      5  N2  <0> d          -0.113   5.162   1.588  0.00  0.00    -0.177 NA
ATOM      6  H7  <0> d          -2.683   3.530   0.389  0.00  0.00     0.115 H 
ENDROOT
BRANCH   3   7
ATOM      7  C7  <0> d          -0.729   1.579   1.267  0.00  0.00     0.060 C 
ATOM      8  H1  <0> d          -0.253   1.196   2.182  0.00  0.00     0.090 H 
BRANCH   7   9
ATOM      9  C8  <0> d          -0.013   1.086   0.008  0.00  0.00    -0.049 C 
ATOM     10  H11 <0> d           0.002  -0.014   0.002  0.00  0.00     0.031 H 
ATOM     11  H12 <0> d           1.019   1.467   0.000  0.00  0.00     0.031 H 
ATOM     12  H13 <0> d          -0.545   1.450  -0.883  0.00  0.00     0.031 H 
ENDBRANCH   7   9
BRANCH   7  13
ATOM     13  O1  <0> d          -2.070   1.085   1.277  0.00  0.00    -0.391 OA
ATOM     14  H14 <0> d          -2.256   0.001   1.273  0.00  0.00     0.210 HD
ENDBRANCH   7  13
ENDBRANCH   3   7
BRANCH   4  15
ATOM     15  C6  <0> d           1.579   3.467   2.339  0.00  0.00    -0.033 C 
ATOM     16  H8  <0> d           2.177   4.346   2.621  0.00  0.00     0.035 H 
ATOM     17  H9  <0> d           2.130   2.872   1.597  0.00  0.00     0.035 H 
ATOM     18  H10 <0> d           1.386   2.854   3.232  0.00  0.00     0.035 H 
ENDBRANCH   4  15
BRANCH   1  19
ATOM     19  C2  <0> d          -2.181   6.338   0.660  0.00  0.00     0.013 C 
ATOM     20  H5  <0> d          -3.173   6.022   0.304  0.00  0.00     0.066 H 
ATOM     21  H6  <0> d          -1.669   6.903  -0.133  0.00  0.00     0.066 H 
BRANCH  19  22
ATOM     22  C1  <0> d          -2.342   7.226   1.896  0.00  0.00    -0.059 C 
ATOM     23  H2  <0> d          -2.938   8.113   1.635  0.00  0.00     0.029 H 
ATOM     24  H3  <0> d          -1.350   7.542   2.252  0.00  0.00     0.029 H 
ATOM     25  H4  <0> d          -2.853   6.661   2.689  0.00  0.00     0.029 H 
ENDBRANCH  19  22
ENDBRANCH   1  19
TORSDOF 6
