REMARK  4 active torsions:
REMARK  status: ('A' for Active; 'I' for Inactive)
REMARK    1  A    between atoms: C1_1  and  C2_2 
REMARK    2  A    between atoms: C4_5  and  C6_8 
REMARK    3  A    between atoms: N2_6  and  C5_7 
REMARK    4  A    between atoms: C6_8  and  O1_9 
ROOT
ATOM      1  C2  <0> d           2.059   0.647  -0.014  0.00  0.00     0.101 A 
ATOM      2  N1  <0> d           1.283  -0.402  -0.012  0.00  0.00    -0.246 NA
ATOM      3  C3  <0> d           0.002  -0.004   0.002  0.00  0.00     0.028 A 
ATOM      4  C4  <0> d          -0.016   1.343   0.009  0.00  0.00     0.053 A 
ATOM      5  N2  <0> d           1.288   1.756  -0.001  0.00  0.00    -0.340 N 
ATOM      6  H4  <0> d          -0.863  -0.650   0.007  0.00  0.00     0.118 H 
ENDROOT
BRANCH   4   7
ATOM      7  C6  <0> d          -1.238   2.224   0.020  0.00  0.00     0.056 C 
ATOM      8  H8  <0> d          -1.228   2.849   0.913  0.00  0.00     0.083 H 
ATOM      9  H9  <0> d          -1.237   2.858  -0.867  0.00  0.00     0.083 H 
BRANCH   7  10
ATOM     10  O1  <0> d          -2.413   1.410   0.022  0.00  0.00    -0.395 OA
ATOM     11  H10 <0> d          -3.239   1.913   0.029  0.00  0.00     0.209 HD
ENDBRANCH   7  10
ENDBRANCH   4   7
BRANCH   5  12
ATOM     12  C5  <0> d           1.761   3.143   0.001  0.00  0.00    -0.013 C 
ATOM     13  H5  <0> d           1.887   3.482   1.030  0.00  0.00     0.057 H 
ATOM     14  H6  <0> d           2.715   3.203  -0.521  0.00  0.00     0.057 H 
ATOM     15  H7  <0> d           1.030   3.776  -0.503  0.00  0.00     0.057 H 
ENDBRANCH   5  12
BRANCH   1  16
ATOM     16  C1  <0> d           3.566   0.625  -0.028  0.00  0.00    -0.021 C 
ATOM     17  H1  <0> d           3.920   0.625  -1.059  0.00  0.00     0.037 H 
ATOM     18  H2  <0> d           3.947   1.507   0.487  0.00  0.00     0.037 H 
ATOM     19  H3  <0> d           3.921  -0.273   0.477  0.00  0.00     0.037 H 
ENDBRANCH   1  16
TORSDOF 4
