REMARK  4 active torsions:
REMARK  status: ('A' for Active; 'I' for Inactive)
REMARK    1  A    between atoms: C1_1  and  C2_2 
REMARK    2  A    between atoms: C5_5  and  O1_9 
REMARK    3  A    between atoms: C6_6  and  C8_8 
REMARK    4  A    between atoms: O1_9  and  C9_10 
ROOT
ATOM      1  C2  <0> d          -1.237   3.133   0.030  0.00  0.00    -0.061 A 
ATOM      2  C3  <0> d          -1.218   1.751   0.017  0.00  0.00    -0.075 A 
ATOM      3  C4  <0> d          -0.013   1.076   0.008  0.00  0.00    -0.050 A 
ATOM      4  C5  <0> d           1.179   1.786   0.000  0.00  0.00     0.074 A 
ATOM      5  C6  <0> d           1.157   3.173   0.008  0.00  0.00    -0.028 A 
ATOM      6  C7  <0> d          -0.051   3.844   0.022  0.00  0.00    -0.069 A 
ATOM      7  H4  <0> d          -2.146   1.198   0.019  0.00  0.00     0.084 H 
ATOM      8  H5  <0> d           0.002  -0.004   0.002  0.00  0.00     0.087 H 
ATOM      9  H6  <0> d          -0.069   4.924   0.028  0.00  0.00     0.085 H 
ENDROOT
BRANCH   4  10
ATOM     10  O1  <0> d           2.366   1.125  -0.015  0.00  0.00    -0.355 OA
BRANCH  10  11
ATOM     11  C9  <0> d           2.313  -0.303  -0.022  0.00  0.00     0.010 C 
ATOM     12  H10 <0> d           1.794  -0.652   0.872  0.00  0.00     0.066 H 
ATOM     13  H11 <0> d           1.777  -0.642  -0.908  0.00  0.00     0.066 H 
ATOM     14  H12 <0> d           3.326  -0.705  -0.033  0.00  0.00     0.066 H 
ENDBRANCH  10  11
ENDBRANCH   4  10
BRANCH   5  15
ATOM     15  C8  <0> d           2.449   3.948  -0.000  0.00  0.00    -0.049 C 
ATOM     16  H7  <0> d           2.752   4.140  -1.030  0.00  0.00     0.033 H 
ATOM     17  H8  <0> d           2.308   4.896   0.520  0.00  0.00     0.033 H 
ATOM     18  H9  <0> d           3.223   3.369   0.504  0.00  0.00     0.033 H 
ENDBRANCH   5  15
BRANCH   1  19
ATOM     19  C1  <0> d          -2.553   3.867   0.046  0.00  0.00    -0.051 C 
ATOM     20  H1  <0> d          -2.880   4.049  -0.978  0.00  0.00     0.033 H 
ATOM     21  H2  <0> d          -3.299   3.264   0.564  0.00  0.00     0.033 H 
ATOM     22  H3  <0> d          -2.433   4.819   0.563  0.00  0.00     0.033 H 
ENDBRANCH   1  19
TORSDOF 4
