REMARK  5 active torsions:
REMARK  status: ('A' for Active; 'I' for Inactive)
REMARK    1  A    between atoms: C1_1  and  C2_2 
REMARK    2  A    between atoms: C2_2  and  C3_3 
REMARK    3  A    between atoms: C3_3  and  C4_5 
REMARK    4  A    between atoms: C3_3  and  O1_11 
REMARK    5  A    between atoms: C5_6  and  C6_7 
ROOT
ATOM      1  C3  <0> d           0.038  -2.650  -0.013  0.00  0.00     0.093 C 
ATOM      2  H1  <0> d           0.548  -3.001  -0.909  0.00  0.00     0.103 H 
ENDROOT
BRANCH   1   3
ATOM      3  C2  <0> d           0.778  -3.157   1.227  0.00  0.00    -0.034 C 
ATOM      4  H5  <0> d           1.771  -2.709   1.266  0.00  0.00     0.037 H 
ATOM      5  H6  <0> d           0.220  -2.881   2.122  0.00  0.00     0.037 H 
BRANCH   3   6
ATOM      6  C1  <0> d           0.908  -4.679   1.156  0.00  0.00    -0.073 C 
ATOM      7  H2  <0> d          -0.085  -5.127   1.117  0.00  0.00     0.027 H 
ATOM      8  H3  <0> d           1.466  -4.955   0.262  0.00  0.00     0.027 H 
ATOM      9  H4  <0> d           1.435  -5.040   2.039  0.00  0.00     0.027 H 
ENDBRANCH   3   6
ENDBRANCH   1   3
BRANCH   1  10
ATOM     10  C4  <0> d           0.018  -1.178  -0.004  0.00  0.00    -0.066 C 
ATOM     11  C5  <0> d           0.002  -0.004   0.002  0.00  0.00     0.011 C 
BRANCH  11  12
ATOM     12  C6  <0> d          -0.018   1.468   0.010  0.00  0.00     0.459 C 
ATOM     13  F1  <0> d           1.295   1.952   0.000  0.00  0.00    -0.159 F 
ATOM     14  F2  <0> d          -0.695   1.931  -1.123  0.00  0.00    -0.159 F 
ATOM     15  F3  <0> d          -0.673   1.919   1.161  0.00  0.00    -0.159 F 
ENDBRANCH  11  12
ENDBRANCH   1  10
BRANCH   1  16
ATOM     16  O1  <0> d          -1.303  -3.144  -0.002  0.00  0.00    -0.383 OA
ATOM     17  H7  <0> d          -1.817  -2.870   0.769  0.00  0.00     0.211 HD
ENDBRANCH   1  16
TORSDOF 5
