REMARK  4 active torsions:
REMARK  status: ('A' for Active; 'I' for Inactive)
REMARK    1  A    between atoms: C1_1  and  C2_2 
REMARK    2  A    between atoms: C2_2  and  N1_3 
REMARK    3  A    between atoms: N1_3  and  C3_4 
REMARK    4  A    between atoms: N1_3  and  C4_5 
ROOT
ATOM      1  N1  <0> d           0.002  -0.004   0.002  0.00  0.00    -0.386 N 
ENDROOT
BRANCH   1   2
ATOM      2  C2  <0> d          -1.256  -0.754   0.010  0.00  0.00    -0.009 C 
ATOM      3  H4  <0> d          -1.108  -1.707   0.517  0.00  0.00     0.063 H 
ATOM      4  H5  <0> d          -2.019  -0.178   0.534  0.00  0.00     0.063 H 
BRANCH   2   5
ATOM      5  C1  <0> d          -1.708  -1.007  -1.430  0.00  0.00    -0.061 C 
ATOM      6  H1  <0> d          -2.645  -1.565  -1.424  0.00  0.00     0.029 H 
ATOM      7  H2  <0> d          -1.857  -0.054  -1.937  0.00  0.00     0.029 H 
ATOM      8  H3  <0> d          -0.946  -1.583  -1.954  0.00  0.00     0.029 H 
ENDBRANCH   2   5
ENDBRANCH   1   2
BRANCH   1   9
ATOM      9  C3  <0> d           1.281  -0.719  -0.014  0.00  0.00    -0.018 C 
ATOM     10  H6  <0> d           1.607  -0.902   1.010  0.00  0.00     0.056 H 
ATOM     11  H7  <0> d           1.158  -1.671  -0.532  0.00  0.00     0.056 H 
ATOM     12  H8  <0> d           2.027  -0.117  -0.532  0.00  0.00     0.056 H 
ENDBRANCH   1   9
BRANCH   1  13
ATOM     13  C4  <0> d          -0.017   1.393   0.010  0.00  0.00     0.029 A 
ATOM     14  C9  <0> d           1.176   2.105   0.002  0.00  0.00    -0.057 A 
ATOM     15  C8  <0> d           1.153   3.486   0.009  0.00  0.00    -0.081 A 
ATOM     16  H13 <0> d           2.119   1.580  -0.010  0.00  0.00     0.086 H 
ATOM     17  C7  <0> d          -0.054   4.159   0.024  0.00  0.00    -0.083 A 
ATOM     18  H12 <0> d           2.080   4.040   0.004  0.00  0.00     0.083 H 
ATOM     19  C6  <0> d          -1.243   3.453   0.031  0.00  0.00    -0.081 A 
ATOM     20  H11 <0> d          -0.069   5.239   0.029  0.00  0.00     0.083 H 
ATOM     21  C5  <0> d          -1.228   2.072   0.019  0.00  0.00    -0.057 A 
ATOM     22  H10 <0> d          -2.185   3.982   0.042  0.00  0.00     0.083 H 
ATOM     23  H9  <0> d          -2.157   1.521   0.021  0.00  0.00     0.086 H 
ENDBRANCH   1  13
TORSDOF 4
