REMARK  3 active torsions:
REMARK  status: ('A' for Active; 'I' for Inactive)
REMARK    1  A    between atoms: C1_1  and  C2_2 
REMARK    2  A    between atoms: C2_2  and  N1_3 
REMARK    3  A    between atoms: C4_5  and  N4_10 
ROOT
ATOM      1  N1  <0> d          -0.704   1.998   1.216  0.00  0.00    -0.278 N 
ATOM      2  C3  <0> d          -0.177   2.862   2.122  0.00  0.00     0.027 A 
ATOM      3  C4  <0> d          -1.116   3.051   3.087  0.00  0.00     0.084 A 
ATOM      4  C5  <0> d          -2.222   2.251   2.698  0.00  0.00     0.184 A 
ATOM      5  N2  <0> d          -1.893   1.660   1.565  0.00  0.00    -0.159 NA
ATOM      6  C6  <0> d          -3.463   2.116   3.400  0.00  0.00     0.124 C 
ATOM      7  N3  <0> d          -4.447   2.010   3.956  0.00  0.00    -0.190 NA
ATOM      8  H6  <0> d           0.803   3.314   2.084  0.00  0.00     0.117 H 
ENDROOT
BRANCH   3   9
ATOM      9  N4  <0> d          -1.013   3.864   4.226  0.00  0.00    -0.395 N 
ATOM     10  H7  <0> d          -0.201   4.369   4.390  0.00  0.00     0.156 HD
ATOM     11  H8  <0> d          -1.754   3.920   4.850  0.00  0.00     0.156 HD
ENDBRANCH   3   9
BRANCH   1  12
ATOM     12  C2  <0> d          -0.019   1.526   0.010  0.00  0.00     0.013 C 
ATOM     13  H4  <0> d           1.004   1.903   0.003  0.00  0.00     0.066 H 
ATOM     14  H5  <0> d          -0.546   1.887  -0.873  0.00  0.00     0.066 H 
BRANCH  12  15
ATOM     15  C1  <0> d           0.002  -0.004   0.002  0.00  0.00    -0.059 C 
ATOM     16  H1  <0> d           0.529  -0.365   0.885  0.00  0.00     0.029 H 
ATOM     17  H2  <0> d          -1.020  -0.381   0.010  0.00  0.00     0.029 H 
ATOM     18  H3  <0> d           0.512  -0.356  -0.895  0.00  0.00     0.029 H 
ENDBRANCH  12  15
ENDBRANCH   1  12
TORSDOF 3
