REMARK  5 active torsions:
REMARK  status: ('A' for Active; 'I' for Inactive)
REMARK    1  A    between atoms: C1_1  and  C2_2 
REMARK    2  A    between atoms: C2_2  and  C3_3 
REMARK    3  A    between atoms: C2_2  and  C4_4 
REMARK    4  A    between atoms: C4_4  and  C5_5 
REMARK    5  A    between atoms: C10_10  and  N1_11 
ROOT
ATOM      1  C5  <0> d          -0.074   0.981   2.485  0.00  0.00    -0.032 A 
ATOM      2  C6  <0> d          -0.587  -0.171   3.050  0.00  0.00    -0.075 A 
ATOM      3  C7  <0> d           0.017  -0.723   4.165  0.00  0.00    -0.082 A 
ATOM      4  C8  <0> d           1.129  -0.120   4.724  0.00  0.00    -0.081 A 
ATOM      5  C9  <0> d           1.644   1.034   4.166  0.00  0.00    -0.057 A 
ATOM      6  C10 <0> d           1.043   1.589   3.043  0.00  0.00     0.032 A 
ATOM      7  H10 <0> d          -1.458  -0.641   2.619  0.00  0.00     0.084 H 
ATOM      8  H11 <0> d          -0.384  -1.625   4.603  0.00  0.00     0.083 H 
ATOM      9  H12 <0> d           1.595  -0.552   5.597  0.00  0.00     0.083 H 
ATOM     10  H13 <0> d           2.512   1.504   4.603  0.00  0.00     0.086 H 
ENDROOT
BRANCH   1  11
ATOM     11  C4  <0> d          -0.729   1.579   1.267  0.00  0.00    -0.036 C 
ATOM     12  H8  <0> d          -0.666   2.676   1.318  0.00  0.00     0.040 H 
ATOM     13  H9  <0> d          -1.785   1.274   1.231  0.00  0.00     0.040 H 
BRANCH  11  14
ATOM     14  C2  <0> d          -0.013   1.086   0.008  0.00  0.00    -0.057 C 
ATOM     15  H4  <0> d           0.002  -0.014   0.002  0.00  0.00     0.039 H 
BRANCH  14  16
ATOM     16  C1  <0> d           1.423   1.615  -0.003  0.00  0.00    -0.073 C 
ATOM     17  H1  <0> d           1.955   1.251   0.888  0.00  0.00     0.028 H 
ATOM     18  H2  <0> d           1.408   2.715   0.003  0.00  0.00     0.028 H 
ATOM     19  H3  <0> d           1.938   1.261  -0.908  0.00  0.00     0.028 H 
ENDBRANCH  14  16
BRANCH  14  20
ATOM     20  C3  <0> d          -0.753   1.593  -1.232  0.00  0.00    -0.073 C 
ATOM     21  H5  <0> d          -1.785   1.212  -1.224  0.00  0.00     0.028 H 
ATOM     22  H6  <0> d          -0.238   1.238  -2.136  0.00  0.00     0.028 H 
ATOM     23  H7  <0> d          -0.768   2.693  -1.225  0.00  0.00     0.028 H 
ENDBRANCH  14  20
ENDBRANCH  11  14
ENDBRANCH   1  11
BRANCH   6  24
ATOM     24  N1  <0> d           1.561   2.756   2.477  0.00  0.00    -0.399 N 
ATOM     25  H14 <0> d           2.446   3.236   2.921  0.00  0.00     0.156 HD
ATOM     26  H15 <0> d           1.084   3.195   1.588  0.00  0.00     0.156 HD
ENDBRANCH   6  24
TORSDOF 5
