REMARK  0 active torsions:
REMARK  status: ('A' for Active; 'I' for Inactive)
ROOT
ATOM      1  C1  <0> d          -0.059   4.497   0.027  0.00  0.00    -0.083 A 
ATOM      2  C2  <0> d           1.148   3.822   0.012  0.00  0.00    -0.081 A 
ATOM      3  C3  <0> d           1.167   2.440   0.004  0.00  0.00    -0.062 A 
ATOM      4  C4  <0> d          -0.021   1.732   0.012  0.00  0.00     0.034 A 
ATOM      5  C5  <0> d          -1.229   2.407   0.021  0.00  0.00    -0.062 A 
ATOM      6  C6  <0> d          -1.247   3.789   0.035  0.00  0.00    -0.081 A 
ATOM      7 Cl1  <0> d           0.002  -0.004   0.002  0.00  0.00    -0.084 Cl
ATOM      8  H1  <0> d          -0.074   5.576   0.033  0.00  0.00     0.083 H 
ATOM      9  H2  <0> d           2.075   4.375   0.006  0.00  0.00     0.083 H 
ATOM     10  H3  <0> d           2.110   1.913  -0.008  0.00  0.00     0.086 H 
ATOM     11  H4  <0> d          -2.157   1.855   0.022  0.00  0.00     0.086 H 
ATOM     12  H5  <0> d          -2.189   4.317   0.047  0.00  0.00     0.083 H 
ENDROOT
TORSDOF 0
