REMARK  5 active torsions:
REMARK  status: ('A' for Active; 'I' for Inactive)
REMARK    1  A    between atoms: C1_1  and  C2_2 
REMARK    2  A    between atoms: C2_2  and  C3_3 
REMARK    3  A    between atoms: C3_3  and  C4_5 
REMARK    4  A    between atoms: C3_3  and  N1_6 
REMARK    5  A    between atoms: C5_7  and  N3_13 
ROOT
ATOM      1  C3  <0> d           1.485   4.388   0.012  0.00  0.00     0.031 C 
ATOM      2  H1  <0> d           2.534   4.093   0.001  0.00  0.00     0.075 H 
ENDROOT
BRANCH   1   3
ATOM      3  C2  <0> d           1.179   5.228  -1.230  0.00  0.00    -0.048 C 
ATOM      4  H6  <0> d           0.112   5.449  -1.265  0.00  0.00     0.035 H 
ATOM      5  H7  <0> d           1.742   6.160  -1.186  0.00  0.00     0.035 H 
BRANCH   3   6
ATOM      6  C1  <0> d           1.580   4.448  -2.484  0.00  0.00    -0.075 C 
ATOM      7  H3  <0> d           2.647   4.227  -2.449  0.00  0.00     0.027 H 
ATOM      8  H4  <0> d           1.017   3.516  -2.528  0.00  0.00     0.027 H 
ATOM      9  H5  <0> d           1.362   5.046  -3.369  0.00  0.00     0.027 H 
ENDBRANCH   3   6
ENDBRANCH   1   3
BRANCH   1  10
ATOM     10  C4  <0> d           1.202   5.214   1.269  0.00  0.00    -0.055 C 
ATOM     11  H8  <0> d           0.152   5.510   1.280  0.00  0.00     0.030 H 
ATOM     12  H9  <0> d           1.420   4.616   2.153  0.00  0.00     0.030 H 
ATOM     13  H10 <0> d           1.830   6.104   1.268  0.00  0.00     0.030 H 
ENDBRANCH   1  10
BRANCH   1  14
ATOM     14  N1  <0> d           0.640   3.192   0.013  0.00  0.00    -0.270 N 
ATOM     15  N2  <0> d          -0.760   3.172   0.026  0.00  0.00    -0.262 N 
ATOM     16  C7  <0> d          -1.159   1.884   0.017  0.00  0.00     0.263 A 
ATOM     17  H2  <0> d          -1.341   3.949   0.036  0.00  0.00     0.190 HD
ATOM     18  C6  <0> d          -0.013   1.076   0.008  0.00  0.00     0.027 A 
ATOM     19  O1  <0> d          -2.312   1.491   0.019  0.00  0.00    -0.267 OA
ATOM     20  C5  <0> d           1.081   1.893   0.002  0.00  0.00     0.121 A 
ATOM     21  H11 <0> d           0.002  -0.004   0.002  0.00  0.00     0.098 H 
BRANCH  20  22
ATOM     22  N3  <0> d           2.391   1.487  -0.013  0.00  0.00    -0.384 N 
ATOM     23  H12 <0> d           2.605   0.541  -0.020  0.00  0.00     0.157 HD
ATOM     24  H13 <0> d           3.103   2.145  -0.017  0.00  0.00     0.157 HD
ENDBRANCH  20  22
ENDBRANCH   1  14
TORSDOF 5
