REMARK  6 active torsions:
REMARK  status: ('A' for Active; 'I' for Inactive)
REMARK    1  A    between atoms: C1_1  and  C2_2 
REMARK    2  A    between atoms: C2_2  and  O1_3 
REMARK    3  A    between atoms: O1_3  and  C3_4 
REMARK       I    between atoms: C3_4  and  N1_6 
REMARK    4  A    between atoms: N1_6  and  S1_7 
REMARK    5  A    between atoms: S1_7  and  C4_8 
REMARK    6  A    between atoms: C4_8  and  C5_9 
ROOT
ATOM      1  C3  <0> d           1.147   1.655  -0.000  0.00  0.00     0.370 C 
ATOM      2  O2  <0> d           1.130   2.870   0.007  0.00  0.00    -0.238 OA
ATOM      3  N1  <0> d          -0.011   0.966   0.007  0.00  0.00    -0.276 N 
ATOM      4  H6  <0> d           0.002  -0.004   0.002  0.00  0.00     0.179 HD
ENDROOT
BRANCH   1   5
ATOM      5  O1  <0> d           2.322   0.998  -0.015  0.00  0.00    -0.304 OA
BRANCH   5   6
ATOM      6  C2  <0> d           3.529   1.806  -0.022  0.00  0.00     0.027 C 
ATOM      7  H4  <0> d           3.537   2.439  -0.909  0.00  0.00     0.074 H 
ATOM      8  H5  <0> d           3.554   2.430   0.871  0.00  0.00     0.074 H 
BRANCH   6   9
ATOM      9  C1  <0> d           4.755   0.890  -0.039  0.00  0.00    -0.056 C 
ATOM     10  H1  <0> d           4.747   0.256   0.848  0.00  0.00     0.030 H 
ATOM     11  H2  <0> d           4.730   0.266  -0.932  0.00  0.00     0.030 H 
ATOM     12  H3  <0> d           5.660   1.496  -0.044  0.00  0.00     0.030 H 
ENDBRANCH   6   9
ENDBRANCH   5   6
ENDBRANCH   1   5
BRANCH   3  13
ATOM     13  S1  <0> d          -1.456   1.774   0.019  0.00  0.00    -0.052 SA
BRANCH  13  14
ATOM     14  C4  <0> d          -2.699   0.452   0.017  0.00  0.00    -0.008 C 
ATOM     15  H7  <0> d          -3.672   0.869  -0.242  0.00  0.00     0.050 H 
ATOM     16  H8  <0> d          -2.421  -0.306  -0.715  0.00  0.00     0.050 H 
BRANCH  14  17
ATOM     17  C5  <0> d          -2.769  -0.182   1.408  0.00  0.00    -0.067 C 
ATOM     18  H9  <0> d          -1.796  -0.599   1.667  0.00  0.00     0.028 H 
ATOM     19  H10 <0> d          -3.046   0.576   2.140  0.00  0.00     0.028 H 
ATOM     20  H11 <0> d          -3.516  -0.977   1.407  0.00  0.00     0.028 H 
ENDBRANCH  14  17
ENDBRANCH  13  14
ENDBRANCH   3  13
TORSDOF 6
