REMARK  4 active torsions:
REMARK  status: ('A' for Active; 'I' for Inactive)
REMARK    1  A    between atoms: C1_1  and  C2_2 
REMARK    2  A    between atoms: C4_4  and  N2_7 
REMARK    3  A    between atoms: N2_7  and  C5_8 
REMARK    4  A    between atoms: C5_8  and  C6_9 
ROOT
ATOM      1  C2  <0> d           0.002  -0.004   0.002  0.00  0.00     0.078 A 
ATOM      2  C3  <0> d          -1.076  -0.807   0.003  0.00  0.00    -0.006 A 
ATOM      3  C4  <0> d          -0.625  -2.147  -0.008  0.00  0.00     0.153 A 
ATOM      4  N1  <0> d           0.684  -2.130  -0.014  0.00  0.00    -0.110 NA
ATOM      5  O1  <0> d           1.100  -0.776  -0.013  0.00  0.00    -0.216 OA
ATOM      6  H4  <0> d          -2.107  -0.485   0.010  0.00  0.00     0.093 H 
ENDROOT
BRANCH   3   7
ATOM      7  N2  <0> d          -1.430  -3.282  -0.010  0.00  0.00    -0.363 N 
ATOM      8  H5  <0> d          -1.025  -4.163  -0.017  0.00  0.00     0.161 HD
BRANCH   7   9
ATOM      9  C5  <0> d          -2.888  -3.146  -0.001  0.00  0.00     0.074 C 
ATOM     10  H6  <0> d          -3.197  -2.606   0.893  0.00  0.00     0.080 H 
ATOM     11  H7  <0> d          -3.207  -2.595  -0.887  0.00  0.00     0.080 H 
BRANCH   9  12
ATOM     12  C6  <0> d          -3.520  -4.514  -0.006  0.00  0.00     0.191 C 
ATOM     13  O2  <0> d          -2.818  -5.510  -0.016  0.00  0.00    -0.647 OA
ATOM     14  O3  <0> d          -4.734  -4.624  -0.000  0.00  0.00    -0.647 OA
ENDBRANCH   9  12
ENDBRANCH   7   9
ENDBRANCH   3   7
BRANCH   1  15
ATOM     15  C1  <0> d          -0.018   1.503   0.010  0.00  0.00    -0.029 C 
ATOM     16  H1  <0> d           1.004   1.880   0.003  0.00  0.00     0.036 H 
ATOM     17  H2  <0> d          -0.545   1.864  -0.873  0.00  0.00     0.036 H 
ATOM     18  H3  <0> d          -0.529   1.854   0.907  0.00  0.00     0.036 H 
ENDBRANCH   1  15
TORSDOF 4
