REMARK  2 active torsions:
REMARK  status: ('A' for Active; 'I' for Inactive)
REMARK    1  A    between atoms: C6_6  and  C7_7 
REMARK    2  A    between atoms: C7_7  and  O1_8 
ROOT
ATOM      1  C1  <0> d          -0.353   2.784   1.815  0.00  0.00    -0.072 A 
ATOM      2  C2  <0> d          -0.990   3.246   2.947  0.00  0.00    -0.054 A 
ATOM      3  C3  <0> d          -1.998   2.488   3.527  0.00  0.00     0.062 A 
ATOM      4  C4  <0> d          -2.364   1.257   2.955  0.00  0.00     0.085 A 
ATOM      5  C5  <0> d          -1.707   0.811   1.806  0.00  0.00    -0.045 A 
ATOM      6  C6  <0> d          -0.718   1.572   1.248  0.00  0.00    -0.033 A 
ATOM      7  N1  <0> d          -3.359   0.745   3.723  0.00  0.00    -0.242 NA
ATOM      8  C8  <0> d          -3.620   1.560   4.703  0.00  0.00     0.065 A 
ATOM      9  N2  <0> d          -2.810   2.651   4.631  0.00  0.00    -0.349 N 
ATOM     10  H1  <0> d          -2.805   3.428   5.261  0.00  0.00     0.167 HD
ATOM     11  H2  <0> d           0.433   3.372   1.365  0.00  0.00     0.084 H 
ATOM     12  H3  <0> d          -0.705   4.193   3.382  0.00  0.00     0.087 H 
ATOM     13  H4  <0> d          -1.980  -0.133   1.358  0.00  0.00     0.088 H 
ATOM     14  H8  <0> d          -4.369   1.395   5.463  0.00  0.00     0.143 H 
ENDROOT
BRANCH   6  15
ATOM     15  C7  <0> d          -0.013   1.086   0.008  0.00  0.00     0.041 C 
ATOM     16  H5  <0> d           0.002  -0.004   0.002  0.00  0.00     0.081 H 
ATOM     17  H6  <0> d           1.010   1.463   0.000  0.00  0.00     0.081 H 
BRANCH  15  18
ATOM     18  O1  <0> d          -0.704   1.559  -1.150  0.00  0.00    -0.396 OA
ATOM     19  H7  <0> d          -0.304   1.284  -1.986  0.00  0.00     0.209 HD
ENDBRANCH  15  18
ENDBRANCH   6  15
TORSDOF 2
