REMARK  5 active torsions:
REMARK  status: ('A' for Active; 'I' for Inactive)
REMARK    1  A    between atoms: C2_2  and  C8_10 
REMARK    2  A    between atoms: C4_4  and  N1_9 
REMARK    3  A    between atoms: C6_6  and  C7_7 
REMARK    4  A    between atoms: C7_7  and  O1_8 
REMARK    5  A    between atoms: C8_10  and  O2_11 
ROOT
ATOM      1  C1  <0> d           1.095   3.744   1.210  0.00  0.00    -0.067 A 
ATOM      2  C2  <0> d           0.966   5.120   1.223  0.00  0.00    -0.032 A 
ATOM      3  C3  <0> d           0.891   5.820   0.035  0.00  0.00    -0.050 A 
ATOM      4  C4  <0> d           0.943   5.139  -1.175  0.00  0.00     0.026 A 
ATOM      5  C5  <0> d           1.077   3.756  -1.185  0.00  0.00    -0.050 A 
ATOM      6  C6  <0> d           1.147   3.062   0.008  0.00  0.00    -0.032 A 
ATOM      7  H1  <0> d           1.154   3.199   2.141  0.00  0.00     0.085 H 
ATOM      8  H2  <0> d           0.790   6.895   0.045  0.00  0.00     0.087 H 
ATOM      9  H3  <0> d           1.123   3.224  -2.123  0.00  0.00     0.087 H 
ENDROOT
BRANCH   2  10
ATOM     10  C8  <0> d           0.910   5.859   2.536  0.00  0.00     0.041 C 
ATOM     11  H9  <0> d           0.308   6.760   2.420  0.00  0.00     0.081 H 
ATOM     12  H10 <0> d           0.460   5.217   3.294  0.00  0.00     0.081 H 
BRANCH  10  13
ATOM     13  O2  <0> d           2.233   6.217   2.938  0.00  0.00    -0.396 OA
ATOM     14  H11 <0> d           2.273   6.696   3.777  0.00  0.00     0.209 HD
ENDBRANCH  10  13
ENDBRANCH   2  10
BRANCH   6  15
ATOM     15  C7  <0> d           1.286   1.562  -0.002  0.00  0.00     0.041 C 
ATOM     16  H4  <0> d           1.840   1.243   0.881  0.00  0.00     0.081 H 
ATOM     17  H5  <0> d           1.823   1.252  -0.899  0.00  0.00     0.081 H 
BRANCH  15  18
ATOM     18  O1  <0> d          -0.011   0.963   0.007  0.00  0.00    -0.396 OA
ATOM     19  H6  <0> d           0.002  -0.004   0.002  0.00  0.00     0.209 HD
ENDBRANCH  15  18
ENDBRANCH   6  15
BRANCH   4  20
ATOM     20  N1  <0> d           0.867   5.843  -2.379  0.00  0.00    -0.399 N 
ATOM     21  H7  <0> d           0.777   6.809  -2.371  0.00  0.00     0.156 HD
ATOM     22  H8  <0> d           0.904   5.366  -3.223  0.00  0.00     0.156 HD
ENDBRANCH   4  20
TORSDOF 5
