REMARK  1 active torsions:
REMARK  status: ('A' for Active; 'I' for Inactive)
REMARK    1  A    between atoms: C6_7  and  O2_11 
ROOT
ATOM      1  C1  <0> d          -0.019   1.525   0.010  0.00  0.00    -0.065 C 
ATOM      2  C2  <0> d           1.404   2.071  -0.000  0.00  0.00    -0.065 C 
ATOM      3  C3  <0> d           2.263   1.285   0.999  0.00  0.00    -0.059 C 
ATOM      4  C4  <0> d           3.333   0.509   0.210  0.00  0.00    -0.007 C 
ATOM      5  C5  <0> d           2.618  -0.579  -0.559  0.00  0.00     0.155 C 
ATOM      6  O1  <0> d           2.735  -1.734  -0.226  0.00  0.00    -0.295 OA
ATOM      7  C6  <0> d           1.761  -0.218  -1.739  0.00  0.00     0.092 C 
ATOM      8  H1  <0> d           1.884   0.841  -1.965  0.00  0.00     0.095 H 
ATOM      9  C7  <0> d           0.288  -0.504  -1.422  0.00  0.00    -0.035 C 
ATOM     10  C8  <0> d           0.002  -0.004   0.002  0.00  0.00    -0.062 C 
ATOM     11  H2  <0> d          -0.533   1.875   0.906  0.00  0.00     0.033 H 
ATOM     12  H3  <0> d          -0.550   1.884  -0.871  0.00  0.00     0.033 H 
ATOM     13  H4  <0> d           1.824   1.968  -1.000  0.00  0.00     0.033 H 
ATOM     14  H5  <0> d           1.391   3.124   0.281  0.00  0.00     0.033 H 
ATOM     15  H6  <0> d           2.746   1.975   1.691  0.00  0.00     0.033 H 
ATOM     16  H7  <0> d           1.636   0.587   1.553  0.00  0.00     0.033 H 
ATOM     17  H8  <0> d           3.843   1.179  -0.482  0.00  0.00     0.044 H 
ATOM     18  H9  <0> d           4.053   0.065   0.898  0.00  0.00     0.044 H 
ATOM     19  H10 <0> d          -0.350   0.022  -2.132  0.00  0.00     0.037 H 
ATOM     20  H11 <0> d           0.100  -1.576  -1.481  0.00  0.00     0.037 H 
ATOM     21  H12 <0> d           0.781  -0.361   0.676  0.00  0.00     0.033 H 
ATOM     22  H13 <0> d          -0.965  -0.383   0.332  0.00  0.00     0.033 H 
ENDROOT
BRANCH   7  23
ATOM     23  O2  <0> d           2.160  -0.994  -2.871  0.00  0.00    -0.388 OA
ATOM     24  H14 <0> d           3.081  -0.861  -3.135  0.00  0.00     0.210 HD
ENDBRANCH   7  23
TORSDOF 1
