REMARK  4 active torsions:
REMARK  status: ('A' for Active; 'I' for Inactive)
REMARK    1  A    between atoms: C1_1  and  O1_2 
REMARK    2  A    between atoms: O1_2  and  C2_3 
REMARK    3  A    between atoms: C2_3  and  C3_5 
REMARK    4  A    between atoms: C4_6  and  O3_10 
ROOT
ATOM      1  C3  <0> d           0.657  -2.015  -1.121  0.00  0.00     0.113 A 
ATOM      2  C4  <0> d           1.227  -2.822  -2.103  0.00  0.00     0.089 A 
ATOM      3  C5  <0> d           1.120  -4.181  -1.890  0.00  0.00    -0.043 A 
ATOM      4  C6  <0> d           0.489  -4.625  -0.777  0.00  0.00    -0.041 A 
ATOM      5  S1  <0> d           0.023  -3.224   0.025  0.00  0.00    -0.093 SA
ATOM      6  H4  <0> d           1.533  -4.881  -2.601  0.00  0.00     0.088 H 
ATOM      7  H5  <0> d           0.325  -5.648  -0.472  0.00  0.00     0.095 H 
ENDROOT
BRANCH   1   8
ATOM      8  C2  <0> d           0.602  -0.603  -1.048  0.00  0.00     0.302 C 
ATOM      9  O2  <0> d           1.095   0.071  -1.934  0.00  0.00    -0.259 OA
BRANCH   8  10
ATOM     10  O1  <0> d           0.002  -0.004   0.002  0.00  0.00    -0.322 OA
BRANCH  10  11
ATOM     11  C1  <0> d          -0.017   1.425   0.010  0.00  0.00     0.013 C 
ATOM     12  H1  <0> d           1.005   1.802   0.002  0.00  0.00     0.067 H 
ATOM     13  H2  <0> d          -0.544   1.786  -0.873  0.00  0.00     0.067 H 
ATOM     14  H3  <0> d          -0.527   1.776   0.907  0.00  0.00     0.067 H 
ENDBRANCH  10  11
ENDBRANCH   8  10
ENDBRANCH   1   8
BRANCH   2  15
ATOM     15  O3  <0> d           1.846  -2.307  -3.196  0.00  0.00    -0.359 OA
ATOM     16  H6  <0> d           2.792  -2.149  -3.075  0.00  0.00     0.217 HD
ENDBRANCH   2  15
TORSDOF 4
