REMARK  8 active torsions:
REMARK  status: ('A' for Active; 'I' for Inactive)
REMARK    1  A    between atoms: C1_1  and  C2_2 
REMARK    2  A    between atoms: C2_2  and  C3_3 
REMARK    3  A    between atoms: C3_3  and  C4_4 
REMARK    4  A    between atoms: C4_4  and  C5_5 
REMARK    5  A    between atoms: C5_5  and  C6_6 
REMARK    6  A    between atoms: C6_6  and  C7_8 
REMARK    7  A    between atoms: C6_6  and  O2_11 
REMARK    8  A    between atoms: C7_8  and  C8_9 
ROOT
ATOM      1  C4  <0> d          -4.951   0.661  -0.222  0.00  0.00    -0.063 C 
ATOM      2  H9  <0> d          -4.798   0.049  -1.111  0.00  0.00     0.033 H 
ATOM      3  H10 <0> d          -4.967   0.021   0.660  0.00  0.00     0.033 H 
ENDROOT
BRANCH   1   4
ATOM      4  C3  <0> d          -6.283   1.404  -0.337  0.00  0.00    -0.065 C 
ATOM      5  H7  <0> d          -6.436   2.015   0.552  0.00  0.00     0.033 H 
ATOM      6  H8  <0> d          -6.267   2.044  -1.220  0.00  0.00     0.033 H 
BRANCH   4   7
ATOM      7  C2  <0> d          -7.423   0.391  -0.463  0.00  0.00    -0.069 C 
ATOM      8  H5  <0> d          -7.270  -0.220  -1.352  0.00  0.00     0.032 H 
ATOM      9  H6  <0> d          -7.439  -0.249   0.419  0.00  0.00     0.032 H 
BRANCH   7  10
ATOM     10  C1  <0> d          -8.755   1.135  -0.578  0.00  0.00    -0.077 C 
ATOM     11  H2  <0> d          -9.568   0.413  -0.668  0.00  0.00     0.027 H 
ATOM     12  H3  <0> d          -8.909   1.746   0.311  0.00  0.00     0.027 H 
ATOM     13  H4  <0> d          -8.739   1.775  -1.460  0.00  0.00     0.027 H 
ENDBRANCH   7  10
ENDBRANCH   4   7
ENDBRANCH   1   4
BRANCH   1  14
ATOM     14  C5  <0> d          -3.811   1.673  -0.097  0.00  0.00    -0.041 C 
ATOM     15  H11 <0> d          -3.964   2.284   0.793  0.00  0.00     0.036 H 
ATOM     16  H12 <0> d          -3.795   2.313  -0.979  0.00  0.00     0.036 H 
BRANCH  14  17
ATOM     17  C6  <0> d          -2.479   0.930   0.019  0.00  0.00     0.044 C 
ATOM     18  H1  <0> d          -2.367   0.252  -0.827  0.00  0.00     0.083 H 
BRANCH  17  19
ATOM     19  C7  <0> d          -1.329   1.940   0.019  0.00  0.00     0.039 C 
ATOM     20  H13 <0> d          -1.391   2.561   0.913  0.00  0.00     0.052 H 
ATOM     21  H14 <0> d          -1.400   2.570  -0.867  0.00  0.00     0.052 H 
BRANCH  19  22
ATOM     22  C8  <0> d          -0.014   1.204   0.009  0.00  0.00     0.175 C 
ATOM     23  O1  <0> d           0.002  -0.004   0.002  0.00  0.00    -0.648 OA
ATOM     24  O3  <0> d           1.139   1.891   0.001  0.00  0.00    -0.648 OA
ENDBRANCH  19  22
ENDBRANCH  17  19
BRANCH  17  25
ATOM     25  O2  <0> d          -2.455   0.181   1.236  0.00  0.00    -0.395 OA
ATOM     26  H15 <0> d          -2.550   0.722   2.032  0.00  0.00     0.210 HD
ENDBRANCH  17  25
ENDBRANCH  14  17
ENDBRANCH   1  14
TORSDOF 8
