REMARK  1 active torsions:
REMARK  status: ('A' for Active; 'I' for Inactive)
REMARK    1  A    between atoms: C1_1  and  C2_2 
ROOT
ATOM      1  C2  <0> d           1.284   2.020   0.001  0.00  0.00     0.039 C 
ATOM      2  H1  <0> d           1.826   1.726   0.900  0.00  0.00     0.082 H 
ATOM      3  C3  <0> d           2.044   1.534  -1.238  0.00  0.00    -0.021 C 
ATOM      4  C4  <0> d           2.046   0.001  -1.249  0.00  0.00     0.024 C 
ATOM      5  O1  <0> d           0.696  -0.465  -1.160  0.00  0.00    -0.367 OA
ATOM      6  C5  <0> d           0.002  -0.004   0.002  0.00  0.00     0.103 C 
ATOM      7  O2  <0> d          -0.017   1.425   0.010  0.00  0.00    -0.362 OA
ATOM      8  H5  <0> d           3.071   1.900  -1.204  0.00  0.00     0.040 H 
ATOM      9  H6  <0> d           1.554   1.905  -2.139  0.00  0.00     0.040 H 
ATOM     10  H7  <0> d           2.616  -0.369  -0.397  0.00  0.00     0.074 H 
ATOM     11  H8  <0> d           2.496  -0.358  -2.174  0.00  0.00     0.074 H 
ATOM     12  H9  <0> d           0.510  -0.365   0.896  0.00  0.00     0.117 H 
ATOM     13  H10 <0> d          -1.020  -0.381  -0.012  0.00  0.00     0.117 H 
ENDROOT
BRANCH   1  14
ATOM     14  C1  <0> d           1.151   3.543  -0.045  0.00  0.00    -0.052 C 
ATOM     15  H2  <0> d           0.602   3.887   0.832  0.00  0.00     0.030 H 
ATOM     16  H3  <0> d           2.143   3.995  -0.052  0.00  0.00     0.030 H 
ATOM     17  H4  <0> d           0.613   3.834  -0.947  0.00  0.00     0.030 H 
ENDBRANCH   1  14
TORSDOF 1
