REMARK  4 active torsions:
REMARK  status: ('A' for Active; 'I' for Inactive)
REMARK    1  A    between atoms: C1_1  and  C2_2 
REMARK    2  A    between atoms: C2_2  and  C3_3 
REMARK    3  A    between atoms: C4_4  and  C5_5 
REMARK    4  A    between atoms: C5_5  and  C6_7 
ROOT
ATOM      1  C3  <0> d           2.224   2.543  -0.005  0.00  0.00    -0.099 C 
ATOM      2  C4  <0> d           1.216   1.942   0.001  0.00  0.00    -0.029 C 
ENDROOT
BRANCH   1   3
ATOM      3  C2  <0> d           3.489   3.296  -0.014  0.00  0.00    -0.012 C 
ATOM      4  H4  <0> d           3.276   4.365  -0.006  0.00  0.00     0.051 H 
ATOM      5  H5  <0> d           4.073   3.036   0.870  0.00  0.00     0.051 H 
BRANCH   3   6
ATOM      6  C1  <0> d           4.284   2.944  -1.272  0.00  0.00    -0.067 C 
ATOM      7  H1  <0> d           4.498   1.875  -1.280  0.00  0.00     0.028 H 
ATOM      8  H2  <0> d           3.701   3.204  -2.155  0.00  0.00     0.028 H 
ATOM      9  H3  <0> d           5.221   3.502  -1.278  0.00  0.00     0.028 H 
ENDBRANCH   3   6
ENDBRANCH   1   3
BRANCH   2  10
ATOM     10  C5  <0> d          -0.014   1.209   0.009  0.00  0.00     0.198 C 
ATOM     11  O1  <0> d           0.002  -0.004   0.002  0.00  0.00    -0.284 OA
BRANCH  10  12
ATOM     12  C6  <0> d          -1.330   1.945   0.019  0.00  0.00    -0.010 C 
ATOM     13  H6  <0> d          -1.616   2.102   0.964  0.00  0.00     0.039 H 
ATOM     14  H7  <0> d          -1.215   2.902  -0.490  0.00  0.00     0.039 H 
ATOM     15  H8  <0> d          -2.084   1.348  -0.495  0.00  0.00     0.039 H 
ENDBRANCH  10  12
ENDBRANCH   2  10
TORSDOF 4
