REMARK  1 active torsions:
REMARK  status: ('A' for Active; 'I' for Inactive)
REMARK    1  A    between atoms: C3_3  and  N2_8 
ROOT
ATOM      1  C1  <0> d          -2.450   3.699   0.034  0.00  0.00    -0.076 A 
ATOM      2  C2  <0> d          -1.236   3.035   0.030  0.00  0.00    -0.039 A 
ATOM      3  C3  <0> d          -1.224   1.644   0.017  0.00  0.00     0.122 A 
ATOM      4  N1  <0> d          -2.358   0.961   0.018  0.00  0.00    -0.220 NA
ATOM      5  C4  <0> d          -3.532   1.567   0.028  0.00  0.00     0.128 A 
ATOM      6  C5  <0> d          -3.616   2.946   0.036  0.00  0.00    -0.044 A 
ATOM      7 Cl1  <0> d          -4.986   0.619   0.029  0.00  0.00    -0.062 Cl
ATOM      8  H1  <0> d          -2.489   4.778   0.041  0.00  0.00     0.083 H 
ATOM      9  H2  <0> d          -0.309   3.590   0.033  0.00  0.00     0.089 H 
ATOM     10  H3  <0> d          -4.580   3.434   0.043  0.00  0.00     0.088 H 
ENDROOT
BRANCH   3  11
ATOM     11  N2  <0> d          -0.011   0.966   0.007  0.00  0.00    -0.384 N 
ATOM     12  H4  <0> d           0.004  -0.134  -0.003  0.00  0.00     0.157 HD
ATOM     13  H5  <0> d           0.934   1.529   0.011  0.00  0.00     0.157 HD
ENDBRANCH   3  11
TORSDOF 1
