REMARK  1 active torsions:
REMARK  status: ('A' for Active; 'I' for Inactive)
REMARK    1  A    between atoms: C4_7  and  C6_9 
ROOT
ATOM      1  C1  <0> d           0.252   6.558   0.035  0.00  0.00    -0.013 A 
ATOM      2  C2  <0> d           1.441   7.194   0.027  0.00  0.00     0.045 A 
ATOM      3  O1  <0> d           2.409   6.267   0.013  0.00  0.00    -0.242 OA
ATOM      4  N1  <0> d           1.990   5.129   0.011  0.00  0.00    -0.207 N 
ATOM      5  C3  <0> d           0.624   5.138   0.024  0.00  0.00     0.157 A 
ATOM      6  N2  <0> d           0.181   3.900   0.015  0.00  0.00    -0.221 NA
ATOM      7  C4  <0> d           1.239   3.062   0.007  0.00  0.00     0.153 A 
ATOM      8  C5  <0> d           2.381   3.831  -0.000  0.00  0.00     0.045 A 
ATOM      9  H1  <0> d          -0.738   6.990   0.046  0.00  0.00     0.092 H 
ATOM     10  H2  <0> d           1.588   8.264   0.031  0.00  0.00     0.126 H 
ATOM     11  H3  <0> d           3.398   3.468  -0.012  0.00  0.00     0.119 H 
ENDROOT
BRANCH   7  12
ATOM     12  C6  <0> d           1.181   1.591  -0.001  0.00  0.00     0.230 C 
ATOM     13  O2  <0> d           2.210   0.943  -0.014  0.00  0.00    -0.643 OA
ATOM     14  O3  <0> d          -0.011   0.963   0.007  0.00  0.00    -0.643 OA
ENDBRANCH   7  12
TORSDOF 1
