REMARK  2 active torsions:
REMARK  status: ('A' for Active; 'I' for Inactive)
REMARK    1  A    between atoms: C1_1  and  C2_2 
REMARK    2  A    between atoms: N2_6  and  C5_7 
ROOT
ATOM      1  C2  <0> d           0.674   3.192   0.013  0.00  0.00     0.027 A 
ATOM      2  C3  <0> d           1.109   1.911   0.002  0.00  0.00    -0.041 A 
ATOM      3  C4  <0> d          -0.013   1.076   0.008  0.00  0.00     0.024 A 
ATOM      4  N1  <0> d          -1.083   1.829   0.017  0.00  0.00    -0.185 NA
ATOM      5  N2  <0> d          -0.675   3.169   0.025  0.00  0.00    -0.279 N 
ATOM      6  H4  <0> d           2.140   1.591  -0.010  0.00  0.00     0.088 H 
ATOM      7  H5  <0> d           0.002  -0.004   0.002  0.00  0.00     0.117 H 
ENDROOT
BRANCH   1   8
ATOM      8  C1  <0> d           1.541   4.425   0.012  0.00  0.00    -0.036 C 
ATOM      9  H1  <0> d           1.740   4.728  -1.016  0.00  0.00     0.035 H 
ATOM     10  H2  <0> d           1.027   5.231   0.535  0.00  0.00     0.035 H 
ATOM     11  H3  <0> d           2.483   4.207   0.516  0.00  0.00     0.035 H 
ENDBRANCH   1   8
BRANCH   5  12
ATOM     12  C5  <0> d          -1.558   4.338   0.040  0.00  0.00     0.002 C 
ATOM     13  H6  <0> d          -1.786   4.633  -0.984  0.00  0.00     0.059 H 
ATOM     14  H7  <0> d          -2.482   4.089   0.562  0.00  0.00     0.059 H 
ATOM     15  H8  <0> d          -1.061   5.161   0.554  0.00  0.00     0.059 H 
ENDBRANCH   5  12
TORSDOF 2
