REMARK  0 active torsions:
REMARK  status: ('A' for Active; 'I' for Inactive)
ROOT
ATOM      1  C1  <0> d           1.167   2.074   0.002  0.00  0.00     0.010 A 
ATOM      2  C2  <0> d          -0.016   1.347   0.009  0.00  0.00     0.125 A 
ATOM      3  C3  <0> d          -1.219   2.041   0.019  0.00  0.00     0.010 A 
ATOM      4  C4  <0> d          -1.199   3.425   0.031  0.00  0.00     0.215 A 
ATOM      5  N1  <0> d          -0.053   4.084   0.024  0.00  0.00    -0.191 NA
ATOM      6  C5  <0> d           1.109   3.456   0.009  0.00  0.00     0.215 A 
ATOM      7  F1  <0> d           2.255   4.172   0.002  0.00  0.00    -0.184 F 
ATOM      8  F2  <0> d          -2.363   4.109   0.045  0.00  0.00    -0.184 F 
ATOM      9  F3  <0> d           0.002  -0.004   0.002  0.00  0.00    -0.206 F 
ATOM     10  H1  <0> d           2.120   1.567  -0.009  0.00  0.00     0.095 H 
ATOM     11  H2  <0> d          -2.158   1.508   0.021  0.00  0.00     0.095 H 
ENDROOT
TORSDOF 0
