REMARK  8 active torsions:
REMARK  status: ('A' for Active; 'I' for Inactive)
REMARK    1  A    between atoms: C1_1  and  C2_2 
REMARK    2  A    between atoms: C2_2  and  C3_4 
REMARK    3  A    between atoms: C2_2  and  C5_7 
REMARK    4  A    between atoms: C3_4  and  C4_5 
REMARK    5  A    between atoms: C5_7  and  C6_8 
REMARK    6  A    between atoms: C6_8  and  C7_9 
REMARK    7  A    between atoms: C6_8  and  C8_10 
REMARK    8  A    between atoms: C6_8  and  C9_11 
ROOT
ATOM      1  C5  <0> d          -3.458   2.717   0.453  0.00  0.00    -0.056 C 
ATOM      2  H7  <0> d          -3.285   3.497   1.194  0.00  0.00     0.034 H 
ATOM      3  H8  <0> d          -3.662   3.175  -0.515  0.00  0.00     0.034 H 
ENDROOT
BRANCH   1   4
ATOM      4  C2  <0> d          -2.216   1.830   0.345  0.00  0.00    -0.048 C 
ATOM      5  H1  <0> d          -2.433   0.977  -0.297  0.00  0.00     0.040 H 
BRANCH   4   6
ATOM      6  C1  <0> d          -1.823   1.333   1.738  0.00  0.00    -0.072 C 
ATOM      7  H2  <0> d          -2.098   2.080   2.482  0.00  0.00     0.028 H 
ATOM      8  H3  <0> d          -2.344   0.399   1.951  0.00  0.00     0.028 H 
ATOM      9  H4  <0> d          -0.747   1.164   1.773  0.00  0.00     0.028 H 
ENDBRANCH   4   6
BRANCH   4  10
ATOM     10  C3  <0> d          -1.062   2.638  -0.252  0.00  0.00     0.019 C 
ATOM     11  H5  <0> d          -0.786   3.439   0.434  0.00  0.00     0.049 H 
ATOM     12  H6  <0> d          -1.374   3.067  -1.204  0.00  0.00     0.049 H 
BRANCH  10  13
ATOM     13  C4  <0> d           0.123   1.734  -0.472  0.00  0.00     0.172 C 
ATOM     14  O1  <0> d           0.053   0.564  -0.180  0.00  0.00    -0.648 OA
ATOM     15  O2  <0> d           1.256   2.228  -0.996  0.00  0.00    -0.648 OA
ENDBRANCH  10  13
ENDBRANCH   4  10
ENDBRANCH   1   4
BRANCH   1  16
ATOM     16  C6  <0> d          -4.657   1.866   0.877  0.00  0.00    -0.051 C 
BRANCH  16  17
ATOM     17  C7  <0> d          -4.442   1.359   2.305  0.00  0.00    -0.070 C 
ATOM     18  H9  <0> d          -3.878   2.099   2.872  0.00  0.00     0.028 H 
ATOM     19  H10 <0> d          -5.409   1.195   2.781  0.00  0.00     0.028 H 
ATOM     20  H11 <0> d          -3.887   0.422   2.278  0.00  0.00     0.028 H 
ENDBRANCH  16  17
BRANCH  16  21
ATOM     21  C8  <0> d          -5.929   2.715   0.824  0.00  0.00    -0.070 C 
ATOM     22  H12 <0> d          -6.082   3.076  -0.194  0.00  0.00     0.028 H 
ATOM     23  H13 <0> d          -6.783   2.109   1.126  0.00  0.00     0.028 H 
ATOM     24  H14 <0> d          -5.828   3.564   1.500  0.00  0.00     0.028 H 
ENDBRANCH  16  21
BRANCH  16  25
ATOM     25  C9  <0> d          -4.798   0.675  -0.072  0.00  0.00    -0.070 C 
ATOM     26  H15 <0> d          -3.892   0.070  -0.033  0.00  0.00     0.028 H 
ATOM     27  H16 <0> d          -5.652   0.069   0.231  0.00  0.00     0.028 H 
ATOM     28  H17 <0> d          -4.951   1.036  -1.089  0.00  0.00     0.028 H 
ENDBRANCH  16  25
ENDBRANCH   1  16
TORSDOF 8
