REMARK  3 active torsions:
REMARK  status: ('A' for Active; 'I' for Inactive)
REMARK    1  A    between atoms: C1_1  and  C2_2 
REMARK    2  A    between atoms: C7_8  and  C8_10 
REMARK    3  A    between atoms: C8_10  and  O1_11 
ROOT
ATOM      1  C2  <0> d          -0.047   3.850  -0.381  0.00  0.00    -0.049 C 
ATOM      2  H1  <0> d           0.129   3.684  -1.444  0.00  0.00     0.040 H 
ATOM      3  C3  <0> d          -1.344   3.157   0.041  0.00  0.00    -0.047 C 
ATOM      4  C4  <0> d          -1.164   1.667   0.017  0.00  0.00    -0.106 C 
ATOM      5  C5  <0> d          -0.013   1.076   0.008  0.00  0.00    -0.106 C 
ATOM      6  C6  <0> d           1.303   1.797  -0.001  0.00  0.00    -0.044 C 
ATOM      7  C7  <0> d           1.109   3.252   0.432  0.00  0.00    -0.027 C 
ATOM      8  H2  <0> d           0.868   3.290   1.494  0.00  0.00     0.044 H 
ATOM      9  H6  <0> d          -1.613   3.475   1.048  0.00  0.00     0.039 H 
ATOM     10  H7  <0> d          -2.141   3.431  -0.649  0.00  0.00     0.039 H 
ATOM     11  H8  <0> d          -2.050   1.050   0.010  0.00  0.00     0.076 H 
ATOM     12  H9  <0> d           0.002  -0.004   0.002  0.00  0.00     0.076 H 
ATOM     13  H10 <0> d           1.990   1.305   0.687  0.00  0.00     0.039 H 
ATOM     14  H11 <0> d           1.721   1.774  -1.007  0.00  0.00     0.039 H 
ENDROOT
BRANCH   7  15
ATOM     15  C8  <0> d           2.390   4.044   0.162  0.00  0.00     0.021 C 
ATOM     16  H12 <0> d           2.670   3.938  -0.886  0.00  0.00     0.074 H 
ATOM     17  H13 <0> d           2.221   5.097   0.388  0.00  0.00     0.074 H 
BRANCH  15  18
ATOM     18  O1  <0> d           3.443   3.543   0.989  0.00  0.00    -0.400 OA
ATOM     19  H14 <0> d           4.287   4.000   0.871  0.00  0.00     0.209 HD
ENDBRANCH  15  18
ENDBRANCH   7  15
BRANCH   1  20
ATOM     20  C1  <0> d          -0.150   5.351  -0.101  0.00  0.00    -0.072 C 
ATOM     21  H3  <0> d           0.782   5.839  -0.385  0.00  0.00     0.028 H 
ATOM     22  H4  <0> d          -0.972   5.772  -0.679  0.00  0.00     0.028 H 
ATOM     23  H5  <0> d          -0.335   5.510   0.962  0.00  0.00     0.028 H 
ENDBRANCH   1  20
TORSDOF 3
