REMARK  2 active torsions:
REMARK  status: ('A' for Active; 'I' for Inactive)
REMARK    1  A    between atoms: C2_2  and  O4_14 
REMARK    2  A    between atoms: C5_9  and  O3_13 
ROOT
ATOM      1  C1  <0> d          -0.013   1.086   0.008  0.00  0.00     0.046 C 
ATOM      2  C2  <0> d          -0.772   1.603   1.268  0.00  0.00     0.083 C 
ATOM      3  H1  <0> d          -1.080   0.774   1.904  0.00  0.00     0.090 H 
ATOM      4  C3  <0> d          -1.969   2.285   0.655  0.00  0.00     0.092 C 
ATOM      5  H2  <0> d          -2.702   1.517   0.413  0.00  0.00     0.091 H 
ATOM      6  C4  <0> d          -1.335   2.781  -0.701  0.00  0.00     0.092 C 
ATOM      7  H3  <0> d          -0.580   3.549  -0.532  0.00  0.00     0.091 H 
ATOM      8  O1  <0> d          -0.746   1.583  -1.152  0.00  0.00    -0.378 OA
ATOM      9  C5  <0> d          -2.593   3.378  -1.315  0.00  0.00     0.083 C 
ATOM     10  H4  <0> d          -2.348   4.105  -2.090  0.00  0.00     0.090 H 
ATOM     11  C6  <0> d          -3.214   4.073  -0.062  0.00  0.00     0.046 C 
ATOM     12  O2  <0> d          -2.659   3.405   1.107  0.00  0.00    -0.378 OA
ATOM     13  H5  <0> d           0.002  -0.004   0.002  0.00  0.00     0.078 H 
ATOM     14  H6  <0> d           1.006   1.473   0.000  0.00  0.00     0.078 H 
ATOM     15  H7  <0> d          -2.947   5.129  -0.050  0.00  0.00     0.078 H 
ATOM     16  H8  <0> d          -4.299   3.963  -0.074  0.00  0.00     0.078 H 
ENDROOT
BRANCH   2  17
ATOM     17  O4  <0> d           0.028   2.535   1.999  0.00  0.00    -0.391 OA
ATOM     18  H10 <0> d           0.855   2.163   2.336  0.00  0.00     0.210 HD
ENDBRANCH   2  17
BRANCH   9  19
ATOM     19  O3  <0> d          -3.455   2.358  -1.823  0.00  0.00    -0.391 OA
ATOM     20  H9  <0> d          -4.269   2.694  -2.223  0.00  0.00     0.210 HD
ENDBRANCH   9  19
TORSDOF 2
