REMARK  5 active torsions:
REMARK  status: ('A' for Active; 'I' for Inactive)
REMARK    1  A    between atoms: C1_1  and  C2_2 
REMARK    2  A    between atoms: C2_2  and  C3_3 
REMARK    3  A    between atoms: C3_3  and  C4_4 
REMARK    4  A    between atoms: C4_4  and  C5_6 
REMARK    5  A    between atoms: C4_4  and  O1_8 
ROOT
ATOM      1  C5  <0> d           0.048   1.194   2.456  0.00  0.00    -0.086 C 
ATOM      2  C6  <0> d           0.668   0.886   3.405  0.00  0.00    -0.151 C 
ATOM      3  H9  <0> d           1.222   0.611   4.253  0.00  0.00     0.166 H 
ENDROOT
BRANCH   1   4
ATOM      4  C4  <0> d          -0.729   1.579   1.267  0.00  0.00     0.093 C 
ATOM      5  H1  <0> d          -0.822   2.665   1.230  0.00  0.00     0.103 H 
BRANCH   4   6
ATOM      6  C3  <0> d          -0.013   1.086   0.008  0.00  0.00    -0.031 C 
ATOM      7  H7  <0> d           0.002  -0.004   0.002  0.00  0.00     0.038 H 
ATOM      8  H8  <0> d           1.010   1.463   0.000  0.00  0.00     0.038 H 
BRANCH   6   9
ATOM      9  C2  <0> d          -0.753   1.593  -1.232  0.00  0.00    -0.065 C 
ATOM     10  H5  <0> d          -1.775   1.215  -1.224  0.00  0.00     0.032 H 
ATOM     11  H6  <0> d          -0.767   2.683  -1.226  0.00  0.00     0.032 H 
BRANCH   9  12
ATOM     12  C1  <0> d          -0.037   1.099  -2.490  0.00  0.00    -0.076 C 
ATOM     13  H2  <0> d          -0.564   1.460  -3.373  0.00  0.00     0.027 H 
ATOM     14  H3  <0> d           0.986   1.476  -2.498  0.00  0.00     0.027 H 
ATOM     15  H4  <0> d          -0.022   0.009  -2.496  0.00  0.00     0.027 H 
ENDBRANCH   9  12
ENDBRANCH   6   9
ENDBRANCH   4   6
BRANCH   4  16
ATOM     16  O1  <0> d          -2.030   0.991   1.336  0.00  0.00    -0.383 OA
ATOM     17  H10 <0> d          -2.023   0.025   1.372  0.00  0.00     0.211 HD
ENDBRANCH   4  16
ENDBRANCH   1   4
TORSDOF 5
