REMARK  2 active torsions:
REMARK  status: ('A' for Active; 'I' for Inactive)
REMARK    1  A    between atoms: C2_2  and  C3_3 
REMARK    2  A    between atoms: C3_3  and  O1_12 
ROOT
ATOM      1  C1  <0> d           2.646   0.819  -2.147  0.00  0.00    -0.151 C 
ATOM      2  C2  <0> d           2.043   1.148  -1.195  0.00  0.00    -0.079 C 
ATOM      3  H1  <0> d           3.211   0.510  -3.038  0.00  0.00     0.166 H 
ENDROOT
BRANCH   2   4
ATOM      4  C3  <0> d           1.286   1.562  -0.002  0.00  0.00     0.128 C 
ATOM      5  C11 <0> d           1.181   3.100   0.075  0.00  0.00    -0.001 C 
ATOM      6  C10 <0> d           2.366   3.536   0.910  0.00  0.00    -0.048 A 
ATOM      7  H8  <0> d           1.224   3.522  -0.940  0.00  0.00     0.046 H 
ATOM      8  H9  <0> d           0.228   3.379   0.549  0.00  0.00     0.046 H 
ATOM      9  C5  <0> d           2.870   2.455   1.607  0.00  0.00    -0.048 A 
ATOM     10  C9  <0> d           2.956   4.782   1.049  0.00  0.00    -0.076 A 
ATOM     11  C4  <0> d           2.061   1.213   1.287  0.00  0.00    -0.001 C 
ATOM     12  C6  <0> d           3.964   2.621   2.441  0.00  0.00    -0.076 A 
ATOM     13  H2  <0> d           1.348   0.975   2.090  0.00  0.00     0.046 H 
ATOM     14  H3  <0> d           2.708   0.343   1.101  0.00  0.00     0.046 H 
ATOM     15  C7  <0> d           4.550   3.864   2.579  0.00  0.00    -0.082 A 
ATOM     16  H4  <0> d           4.358   1.776   2.986  0.00  0.00     0.084 H 
ATOM     17  C8  <0> d           4.046   4.946   1.881  0.00  0.00    -0.082 A 
ATOM     18  H5  <0> d           5.402   3.990   3.231  0.00  0.00     0.083 H 
ATOM     19  H6  <0> d           4.503   5.918   1.987  0.00  0.00     0.083 H 
ATOM     20  H7  <0> d           2.563   5.627   0.504  0.00  0.00     0.084 H 
BRANCH   4  21
ATOM     21  O1  <0> d          -0.011   0.963   0.007  0.00  0.00    -0.377 OA
ATOM     22  H10 <0> d          -0.706   1.169   0.834  0.00  0.00     0.211 HD
ENDBRANCH   4  21
ENDBRANCH   2   4
TORSDOF 2
