REMARK  1 active torsions:
REMARK  status: ('A' for Active; 'I' for Inactive)
REMARK    1  A    between atoms: C3_3  and  C6_7 
ROOT
ATOM      1  C1  <0> d          -0.017   1.379   0.010  0.00  0.00    -0.065 A 
ATOM      2  C2  <0> d           1.182   2.072   0.002  0.00  0.00    -0.067 A 
ATOM      3  C3  <0> d           2.371   1.339  -0.013  0.00  0.00     0.031 A 
ATOM      4  C4  <0> d           2.306  -0.052  -0.020  0.00  0.00     0.015 A 
ATOM      5  N1  <0> d           1.142  -0.669  -0.013  0.00  0.00    -0.272 NA
ATOM      6  C5  <0> d           0.002  -0.004   0.002  0.00  0.00     0.002 A 
ATOM      7  H2  <0> d          -0.956   1.911   0.026  0.00  0.00     0.085 H 
ATOM      8  H3  <0> d           1.196   3.152   0.007  0.00  0.00     0.085 H 
ATOM      9  H4  <0> d           3.217  -0.631  -0.032  0.00  0.00     0.116 H 
ATOM     10  H5  <0> d          -0.931  -0.548   0.008  0.00  0.00     0.114 H 
ENDROOT
BRANCH   3  11
ATOM     11  C6  <0> d           3.683   2.033  -0.023  0.00  0.00     0.182 A 
ATOM     12  N4  <0> d           4.860   1.446  -0.037  0.00  0.00    -0.153 NA
ATOM     13  N3  <0> d           5.822   2.469  -0.045  0.00  0.00    -0.270 N 
ATOM     14  C7  <0> d           5.144   3.631  -0.025  0.00  0.00     0.082 A 
ATOM     15  H1  <0> d           6.785   2.360  -0.058  0.00  0.00     0.190 HD
ATOM     16  N2  <0> d           3.866   3.360  -0.012  0.00  0.00    -0.221 NA
ATOM     17  H6  <0> d           5.581   4.618  -0.021  0.00  0.00     0.145 H 
ENDBRANCH   3  11
TORSDOF 1
