REMARK  0 active torsions:
REMARK  status: ('A' for Active; 'I' for Inactive)
ROOT
ATOM      1  C1  <0> d           1.476  -3.240  -0.679  0.00  0.00    -0.065 C 
ATOM      2  C2  <0> d           0.961  -2.776   0.684  0.00  0.00    -0.064 C 
ATOM      3  C3  <0> d           1.701  -1.501   1.100  0.00  0.00    -0.056 C 
ATOM      4  C4  <0> d           1.480  -0.419   0.052  0.00  0.00    -0.009 C 
ATOM      5  C5  <0> d           1.959  -0.874  -1.319  0.00  0.00    -0.056 C 
ATOM      6  C6  <0> d           1.218  -2.152  -1.723  0.00  0.00    -0.064 C 
ATOM      7  C7  <0> d           2.190   0.884   0.465  0.00  0.00     0.025 C 
ATOM      8  C8  <0> d           1.223   1.959   0.001  0.00  0.00     0.259 C 
ATOM      9  O1  <0> d           1.522   3.083  -0.324  0.00  0.00    -0.265 OA
ATOM     10  O2  <0> d          -0.018   1.451   0.010  0.00  0.00    -0.321 OA
ATOM     11  C9  <0> d           0.002  -0.004   0.002  0.00  0.00     0.036 C 
ATOM     12  H1  <0> d           2.547  -3.436  -0.616  0.00  0.00     0.033 H 
ATOM     13  H2  <0> d           0.958  -4.154  -0.971  0.00  0.00     0.033 H 
ATOM     14  H3  <0> d           1.137  -3.556   1.425  0.00  0.00     0.033 H 
ATOM     15  H4  <0> d          -0.108  -2.571   0.619  0.00  0.00     0.033 H 
ATOM     16  H5  <0> d           2.767  -1.712   1.185  0.00  0.00     0.034 H 
ATOM     17  H6  <0> d           1.320  -1.158   2.062  0.00  0.00     0.034 H 
ATOM     18  H7  <0> d           1.759  -0.092  -2.052  0.00  0.00     0.034 H 
ATOM     19  H8  <0> d           3.030  -1.072  -1.283  0.00  0.00     0.034 H 
ATOM     20  H9  <0> d           1.577  -2.489  -2.696  0.00  0.00     0.033 H 
ATOM     21  H10 <0> d           0.148  -1.950  -1.780  0.00  0.00     0.033 H 
ATOM     22  H11 <0> d           2.322   0.926   1.547  0.00  0.00     0.049 H 
ATOM     23  H12 <0> d           3.148   0.981  -0.045  0.00  0.00     0.049 H 
ATOM     24  H13 <0> d          -0.524  -0.390   0.875  0.00  0.00     0.076 H 
ATOM     25  H14 <0> d          -0.462  -0.379  -0.910  0.00  0.00     0.076 H 
ENDROOT
TORSDOF 0
