REMARK  1 active torsions:
REMARK  status: ('A' for Active; 'I' for Inactive)
REMARK    1  A    between atoms: C3_3  and  S1_7 
ROOT
ATOM      1  C1  <0> d           0.852   5.423  -1.124  0.00  0.00    -0.065 A 
ATOM      2  C2  <0> d           1.040   4.050  -1.182  0.00  0.00    -0.057 A 
ATOM      3  C3  <0> d           1.138   3.347   0.009  0.00  0.00     0.098 A 
ATOM      4  C4  <0> d           1.058   4.035   1.206  0.00  0.00     0.025 A 
ATOM      5  N1  <0> d           0.883   5.341   1.222  0.00  0.00    -0.272 NA
ATOM      6  C5  <0> d           0.780   6.042   0.109  0.00  0.00     0.002 A 
ATOM      7  H1  <0> d           0.768   6.002  -2.032  0.00  0.00     0.085 H 
ATOM      8  H2  <0> d           1.104   3.540  -2.131  0.00  0.00     0.086 H 
ATOM      9  H3  <0> d           1.138   3.495   2.138  0.00  0.00     0.117 H 
ATOM     10  H4  <0> d           0.638   7.111   0.163  0.00  0.00     0.114 H 
ENDROOT
BRANCH   3  11
ATOM     11  S1  <0> d           1.371   1.601  -0.002  0.00  0.00     0.139 S 
ATOM     12  O1  <0> d           1.982   1.264   1.235  0.00  0.00    -0.591 OA
ATOM     13  O2  <0> d           1.958   1.278  -1.255  0.00  0.00    -0.591 OA
ATOM     14  O3  <0> d          -0.011   0.963   0.007  0.00  0.00    -0.591 OA
ENDBRANCH   3  11
TORSDOF 1
