REMARK  8 active torsions:
REMARK  status: ('A' for Active; 'I' for Inactive)
REMARK    1  A    between atoms: C1_1  and  C2_2 
REMARK    2  A    between atoms: C2_2  and  C3_3 
REMARK    3  A    between atoms: C3_3  and  C4_4 
REMARK    4  A    between atoms: C4_4  and  C5_5 
REMARK    5  A    between atoms: C5_5  and  C6_6 
REMARK    6  A    between atoms: C6_6  and  O1_7 
REMARK    7  A    between atoms: O1_7  and  C7_8 
REMARK    8  A    between atoms: C7_8  and  C8_10 
ROOT
ATOM      1  C4  <0> d           4.862   1.250  -0.038  0.00  0.00    -0.063 C 
ATOM      2  H8  <0> d           4.904   0.616   0.849  0.00  0.00     0.033 H 
ATOM      3  H9  <0> d           4.887   0.626  -0.931  0.00  0.00     0.033 H 
ENDROOT
BRANCH   1   4
ATOM      4  C3  <0> d           6.063   2.198  -0.044  0.00  0.00    -0.065 C 
ATOM      5  H6  <0> d           6.021   2.831  -0.930  0.00  0.00     0.033 H 
ATOM      6  H7  <0> d           6.038   2.822   0.850  0.00  0.00     0.033 H 
BRANCH   4   7
ATOM      7  C2  <0> d           7.357   1.382  -0.061  0.00  0.00    -0.069 C 
ATOM      8  H4  <0> d           7.399   0.749   0.826  0.00  0.00     0.032 H 
ATOM      9  H5  <0> d           7.382   0.758  -0.954  0.00  0.00     0.032 H 
BRANCH   7  10
ATOM     10  C1  <0> d           8.557   2.331  -0.067  0.00  0.00    -0.077 C 
ATOM     11  H1  <0> d           8.515   2.964  -0.953  0.00  0.00     0.027 H 
ATOM     12  H2  <0> d           8.533   2.954   0.827  0.00  0.00     0.027 H 
ATOM     13  H3  <0> d           9.479   1.750  -0.079  0.00  0.00     0.027 H 
ENDBRANCH   7  10
ENDBRANCH   4   7
ENDBRANCH   1   4
BRANCH   1  14
ATOM     14  C5  <0> d           3.568   2.065  -0.021  0.00  0.00    -0.045 C 
ATOM     15  H10 <0> d           3.526   2.698  -0.907  0.00  0.00     0.036 H 
ATOM     16  H11 <0> d           3.543   2.689   0.873  0.00  0.00     0.036 H 
BRANCH  14  17
ATOM     17  C6  <0> d           2.367   1.117  -0.015  0.00  0.00     0.029 C 
ATOM     18  H12 <0> d           2.409   0.484   0.872  0.00  0.00     0.075 H 
ATOM     19  H13 <0> d           2.392   0.493  -0.908  0.00  0.00     0.075 H 
BRANCH  17  20
ATOM     20  O1  <0> d           1.139   1.891   0.001  0.00  0.00    -0.322 OA
BRANCH  20  21
ATOM     21  C7  <0> d          -0.014   1.204   0.009  0.00  0.00     0.254 C 
ATOM     22  O2  <0> d           0.002  -0.004   0.002  0.00  0.00    -0.266 OA
BRANCH  21  23
ATOM     23  C8  <0> d          -1.329   1.940   0.019  0.00  0.00     0.004 C 
ATOM     24  H14 <0> d          -1.642   2.111   1.049  0.00  0.00     0.041 H 
ATOM     25  H15 <0> d          -1.214   2.897  -0.490  0.00  0.00     0.041 H 
ATOM     26  H16 <0> d          -2.083   1.343  -0.495  0.00  0.00     0.041 H 
ENDBRANCH  21  23
ENDBRANCH  20  21
ENDBRANCH  17  20
ENDBRANCH  14  17
ENDBRANCH   1  14
TORSDOF 8
