REMARK  9 active torsions:
REMARK  status: ('A' for Active; 'I' for Inactive)
REMARK    1  A    between atoms: C1_1  and  C2_2 
REMARK    2  A    between atoms: C2_2  and  C3_4 
REMARK    3  A    between atoms: C2_2  and  C9_10 
REMARK    4  A    between atoms: C3_4  and  C4_5 
REMARK    5  A    between atoms: C4_5  and  C5_6 
REMARK    6  A    between atoms: C6_7  and  C7_8 
REMARK    7  A    between atoms: C6_7  and  C8_9 
REMARK    8  A    between atoms: C9_10  and  C10_12 
REMARK    9  A    between atoms: C9_10  and  O1_13 
ROOT
ATOM      1  C3  <0> d           0.718  -0.497  -1.257  0.00  0.00    -0.057 C 
ATOM      2  H6  <0> d           1.710  -0.049  -1.310  0.00  0.00     0.034 H 
ATOM      3  H7  <0> d           0.812  -1.583  -1.220  0.00  0.00     0.034 H 
ENDROOT
BRANCH   1   4
ATOM      4  C2  <0> d           0.002  -0.004   0.002  0.00  0.00    -0.033 C 
ATOM      5  H1  <0> d          -1.020  -0.381   0.010  0.00  0.00     0.043 H 
BRANCH   4   6
ATOM      6  C1  <0> d          -0.019   1.526   0.010  0.00  0.00    -0.071 C 
ATOM      7  H3  <0> d           1.004   1.903   0.003  0.00  0.00     0.028 H 
ATOM      8  H4  <0> d          -0.546   1.887  -0.873  0.00  0.00     0.028 H 
ATOM      9  H5  <0> d          -0.529   1.877   0.907  0.00  0.00     0.028 H 
ENDBRANCH   4   6
BRANCH   4  10
ATOM     10  C9  <0> d           0.742  -0.511   1.242  0.00  0.00     0.035 C 
ATOM     11  H2  <0> d           1.765  -0.134   1.234  0.00  0.00     0.082 H 
BRANCH  10  12
ATOM     12  C10 <0> d           0.026  -0.018   2.500  0.00  0.00    -0.052 C 
ATOM     13  H17 <0> d          -0.997  -0.395   2.508  0.00  0.00     0.030 H 
ATOM     14  H18 <0> d           0.553  -0.379   3.383  0.00  0.00     0.030 H 
ATOM     15  H19 <0> d           0.011   1.072   2.506  0.00  0.00     0.030 H 
ENDBRANCH  10  12
BRANCH  10  16
ATOM     16  O1  <0> d           0.761  -1.940   1.234  0.00  0.00    -0.396 OA
ATOM     17  H20 <0> d          -0.117  -2.345   1.240  0.00  0.00     0.210 HD
ENDBRANCH  10  16
ENDBRANCH   4  10
ENDBRANCH   1   4
BRANCH   1  18
ATOM     18  C4  <0> d          -0.089  -0.097  -2.493  0.00  0.00    -0.049 C 
ATOM     19  H8  <0> d          -1.081  -0.545  -2.440  0.00  0.00     0.038 H 
ATOM     20  H9  <0> d          -0.183   0.989  -2.530  0.00  0.00     0.038 H 
BRANCH  18  21
ATOM     21  C5  <0> d           0.616  -0.583  -3.733  0.00  0.00    -0.101 C 
ATOM     22  C6  <0> d          -0.018  -1.340  -4.593  0.00  0.00    -0.091 C 
ATOM     23  H10 <0> d           1.645  -0.307  -3.912  0.00  0.00     0.077 H 
BRANCH  22  24
ATOM     24  C7  <0> d          -1.454  -1.725  -4.343  0.00  0.00    -0.055 C 
ATOM     25  H11 <0> d          -2.066  -0.825  -4.282  0.00  0.00     0.033 H 
ATOM     26  H12 <0> d          -1.810  -2.352  -5.161  0.00  0.00     0.033 H 
ATOM     27  H13 <0> d          -1.524  -2.276  -3.405  0.00  0.00     0.033 H 
ENDBRANCH  22  24
BRANCH  22  28
ATOM     28  C8  <0> d           0.687  -1.826  -5.833  0.00  0.00    -0.055 C 
ATOM     29  H14 <0> d           1.170  -2.781  -5.626  0.00  0.00     0.033 H 
ATOM     30  H15 <0> d          -0.038  -1.952  -6.638  0.00  0.00     0.033 H 
ATOM     31  H16 <0> d           1.439  -1.096  -6.133  0.00  0.00     0.033 H 
ENDBRANCH  22  28
ENDBRANCH  18  21
ENDBRANCH   1  18
TORSDOF 9
