REMARK  3 active torsions:
REMARK  status: ('A' for Active; 'I' for Inactive)
REMARK    1  A    between atoms: C1_1  and  C2_2 
REMARK    2  A    between atoms: C2_2  and  C3_4 
REMARK    3  A    between atoms: C2_2  and  O1_12 
ROOT
ATOM      1  C3  <0> d           0.731  -0.503   1.223  0.00  0.00    -0.029 A 
ATOM      2  C4  <0> d           2.115  -0.513   1.245  0.00  0.00    -0.074 A 
ATOM      3  C5  <0> d           2.792  -0.970   2.362  0.00  0.00    -0.081 A 
ATOM      4  C6  <0> d           2.091  -1.418   3.462  0.00  0.00    -0.063 A 
ATOM      5  C7  <0> d           0.695  -1.411   3.447  0.00  0.00     0.045 A 
ATOM      6  C8  <0> d           0.018  -0.944   2.318  0.00  0.00    -0.054 A 
ATOM      7  C9  <0> d          -0.040  -1.875   4.585  0.00  0.00     0.099 C 
ATOM      8  N1  <0> d          -0.622  -2.243   5.488  0.00  0.00    -0.191 NA
ATOM      9  H5  <0> d           2.668  -0.163   0.386  0.00  0.00     0.084 H 
ATOM     10  H6  <0> d           3.872  -0.975   2.372  0.00  0.00     0.083 H 
ATOM     11  H7  <0> d           2.620  -1.775   4.333  0.00  0.00     0.085 H 
ATOM     12  H8  <0> d          -1.062  -0.932   2.301  0.00  0.00     0.086 H 
ENDROOT
BRANCH   1  13
ATOM     13  C2  <0> d           0.002  -0.004   0.002  0.00  0.00     0.057 C 
ATOM     14  H1  <0> d          -1.020  -0.381   0.010  0.00  0.00     0.089 H 
BRANCH  13  15
ATOM     15  C1  <0> d          -0.019   1.526   0.010  0.00  0.00    -0.049 C 
ATOM     16  H2  <0> d           1.004   1.903   0.003  0.00  0.00     0.031 H 
ATOM     17  H3  <0> d          -0.546   1.887  -0.873  0.00  0.00     0.031 H 
ATOM     18  H4  <0> d          -0.529   1.877   0.907  0.00  0.00     0.031 H 
ENDBRANCH  13  15
BRANCH  13  19
ATOM     19  O1  <0> d           0.671  -0.465  -1.174  0.00  0.00    -0.391 OA
ATOM     20  H9  <0> d           0.256  -0.181  -1.999  0.00  0.00     0.210 HD
ENDBRANCH  13  19
ENDBRANCH   1  13
TORSDOF 3
