REMARK  1 active torsions:
REMARK  status: ('A' for Active; 'I' for Inactive)
REMARK    1  A    between atoms: C1_1  and  N1_2 
ROOT
ATOM      1  N1  <0> d           0.002  -0.004   0.002  0.00  0.00    -0.377 N 
ATOM      2  C2  <0> d           0.009  -0.845  -1.198  0.00  0.00     0.054 A 
ATOM      3  C3  <0> d           0.031  -2.272  -0.696  0.00  0.00     0.179 A 
ATOM      4  O1  <0> d           0.043  -3.286  -1.362  0.00  0.00    -0.290 OA
ATOM      5  C4  <0> d           0.036  -2.169   0.770  0.00  0.00     0.038 A 
ATOM      6  C5  <0> d           0.024  -0.812   1.128  0.00  0.00     0.044 A 
ATOM      7  C6  <0> d           0.031  -0.468   2.480  0.00  0.00    -0.056 A 
ATOM      8  C7  <0> d           0.054  -1.449   3.447  0.00  0.00    -0.081 A 
ATOM      9  C8  <0> d           0.070  -2.789   3.093  0.00  0.00    -0.082 A 
ATOM     10  C9  <0> d           0.054  -3.154   1.766  0.00  0.00    -0.067 A 
ATOM     11  H4  <0> d          -0.891  -0.667  -1.788  0.00  0.00     0.076 H 
ATOM     12  H5  <0> d           0.897  -0.642  -1.796  0.00  0.00     0.076 H 
ATOM     13  H6  <0> d           0.019   0.573   2.769  0.00  0.00     0.086 H 
ATOM     14  H7  <0> d           0.060  -1.171   4.491  0.00  0.00     0.083 H 
ATOM     15  H8  <0> d           0.087  -3.549   3.860  0.00  0.00     0.083 H 
ATOM     16  H9  <0> d           0.068  -4.199   1.492  0.00  0.00     0.085 H 
ENDROOT
BRANCH   1  17
ATOM     17  C1  <0> d          -0.018   1.461   0.010  0.00  0.00    -0.018 C 
ATOM     18  H1  <0> d           1.005   1.838   0.002  0.00  0.00     0.056 H 
ATOM     19  H2  <0> d          -0.545   1.822  -0.873  0.00  0.00     0.056 H 
ATOM     20  H3  <0> d          -0.528   1.812   0.907  0.00  0.00     0.056 H 
ENDBRANCH   1  17
TORSDOF 1
