REMARK  4 active torsions:
REMARK  status: ('A' for Active; 'I' for Inactive)
REMARK    1  A    between atoms: C1_1  and  C2_2 
REMARK    2  A    between atoms: C3_3  and  C5_7 
REMARK    3  A    between atoms: C5_7  and  O2_9 
REMARK    4  A    between atoms: O2_9  and  C6_10 
ROOT
ATOM      1  C2  <0> d           2.314   0.099  -0.019  0.00  0.00     0.015 A 
ATOM      2  C3  <0> d           1.167  -0.655  -0.013  0.00  0.00     0.144 A 
ATOM      3  N1  <0> d           0.002  -0.004   0.002  0.00  0.00    -0.247 NA
ATOM      4  C4  <0> d          -0.016   1.303   0.009  0.00  0.00     0.041 A 
ATOM      5  S1  <0> d           1.670   1.710  -0.005  0.00  0.00    -0.085 SA
ATOM      6  H4  <0> d          -0.869   1.966   0.017  0.00  0.00     0.126 H 
ENDROOT
BRANCH   2   7
ATOM      7  C5  <0> d           1.220  -2.125  -0.021  0.00  0.00     0.312 C 
ATOM      8  O1  <0> d           2.293  -2.695  -0.033  0.00  0.00    -0.258 OA
BRANCH   7   9
ATOM      9  O2  <0> d           0.077  -2.840  -0.013  0.00  0.00    -0.321 OA
BRANCH   9  10
ATOM     10  C6  <0> d           0.205  -4.287  -0.022  0.00  0.00     0.013 C 
ATOM     11  H5  <0> d          -0.796  -4.743  -0.015  0.00  0.00     0.067 H 
ATOM     12  H6  <0> d           0.762  -4.611   0.869  0.00  0.00     0.067 H 
ATOM     13  H7  <0> d           0.745  -4.602  -0.927  0.00  0.00     0.067 H 
ENDBRANCH   9  10
ENDBRANCH   7   9
ENDBRANCH   2   7
BRANCH   1  14
ATOM     14  C1  <0> d           3.751  -0.353  -0.036  0.00  0.00    -0.043 C 
ATOM     15  H1  <0> d           3.790  -1.452  -0.042  0.00  0.00     0.034 H 
ATOM     16  H2  <0> d           4.266   0.027   0.859  0.00  0.00     0.034 H 
ATOM     17  H3  <0> d           4.248   0.036  -0.937  0.00  0.00     0.034 H 
ENDBRANCH   1  14
TORSDOF 4
