REMARK  4 active torsions:
REMARK  status: ('A' for Active; 'I' for Inactive)
REMARK    1  A    between atoms: C1_1  and  O1_2 
REMARK    2  A    between atoms: O1_2  and  C2_3 
REMARK    3  A    between atoms: C2_3  and  C3_5 
REMARK    4  A    between atoms: C5_7  and  N2_11 
ROOT
ATOM      1  C3  <0> d           0.680  -2.088   1.091  0.00  0.00     0.059 A 
ATOM      2  C4  <0> d           1.319  -2.732   2.156  0.00  0.00    -0.039 A 
ATOM      3  C5  <0> d           1.346  -4.122   2.163  0.00  0.00     0.044 A 
ATOM      4  C6  <0> d           0.742  -4.816   1.121  0.00  0.00     0.027 A 
ATOM      5  N1  <0> d           0.148  -4.176   0.133  0.00  0.00    -0.270 NA
ATOM      6  C7  <0> d           0.094  -2.861   0.087  0.00  0.00     0.018 A 
ATOM      7  H4  <0> d           1.780  -2.165   2.951  0.00  0.00     0.088 H 
ATOM      8  H5  <0> d           0.760  -5.896   1.121  0.00  0.00     0.118 H 
ATOM      9  H6  <0> d          -0.406  -2.376  -0.738  0.00  0.00     0.116 H 
ENDROOT
BRANCH   1  10
ATOM     10  C2  <0> d           0.620  -0.613   1.032  0.00  0.00     0.294 C 
ATOM     11  O2  <0> d           1.129   0.051   1.913  0.00  0.00    -0.259 OA
BRANCH  10  12
ATOM     12  O1  <0> d           0.002  -0.004   0.002  0.00  0.00    -0.322 OA
BRANCH  12  13
ATOM     13  C1  <0> d          -0.018   1.448   0.010  0.00  0.00     0.013 C 
ATOM     14  H1  <0> d           1.005   1.825   0.002  0.00  0.00     0.067 H 
ATOM     15  H2  <0> d          -0.545   1.809  -0.873  0.00  0.00     0.067 H 
ATOM     16  H3  <0> d          -0.528   1.799   0.907  0.00  0.00     0.067 H 
ENDBRANCH  12  13
ENDBRANCH  10  12
ENDBRANCH   1  10
BRANCH   3  17
ATOM     17  N2  <0> d           1.972  -4.812   3.205  0.00  0.00    -0.398 N 
ATOM     18  H7  <0> d           2.391  -4.322   3.929  0.00  0.00     0.156 HD
ATOM     19  H8  <0> d           1.987  -5.782   3.204  0.00  0.00     0.156 HD
ENDBRANCH   3  17
TORSDOF 4
