REMARK  5 active torsions:
REMARK  status: ('A' for Active; 'I' for Inactive)
REMARK    1  A    between atoms: C3_3  and  O3_11 
REMARK    2  A    between atoms: C4_4  and  O1_7 
REMARK    3  A    between atoms: O1_7  and  C6_8 
REMARK    4  A    between atoms: C6_8  and  C7_9 
REMARK    5  A    between atoms: C7_9  and  O2_10 
ROOT
ATOM      1  C1  <0> d          -0.017   1.376   0.010  0.00  0.00    -0.063 A 
ATOM      2  C2  <0> d           1.184   2.072   0.002  0.00  0.00    -0.045 A 
ATOM      3  C3  <0> d           2.368   1.348  -0.013  0.00  0.00     0.118 A 
ATOM      4  C4  <0> d           2.309  -0.044  -0.020  0.00  0.00     0.198 A 
ATOM      5  N1  <0> d           1.143  -0.667  -0.012  0.00  0.00    -0.235 NA
ATOM      6  C5  <0> d           0.002  -0.004   0.002  0.00  0.00     0.005 A 
ATOM      7  H1  <0> d          -0.956   1.909   0.026  0.00  0.00     0.085 H 
ATOM      8  H2  <0> d           1.197   3.152   0.007  0.00  0.00     0.088 H 
ATOM      9  H3  <0> d          -0.930  -0.549   0.008  0.00  0.00     0.114 H 
ENDROOT
BRANCH   4  10
ATOM     10  O1  <0> d           3.458  -0.767  -0.035  0.00  0.00    -0.330 OA
BRANCH  10  11
ATOM     11  C6  <0> d           3.330  -2.190  -0.042  0.00  0.00     0.047 C 
ATOM     12  H4  <0> d           2.794  -2.510   0.852  0.00  0.00     0.078 H 
ATOM     13  H5  <0> d           2.777  -2.501  -0.928  0.00  0.00     0.078 H 
BRANCH  11  14
ATOM     14  C7  <0> d           4.721  -2.827  -0.059  0.00  0.00     0.037 C 
ATOM     15  H6  <0> d           4.624  -3.909  -0.154  0.00  0.00     0.077 H 
ATOM     16  H7  <0> d           5.288  -2.438  -0.905  0.00  0.00     0.077 H 
BRANCH  14  17
ATOM     17  O2  <0> d           5.403  -2.514   1.157  0.00  0.00    -0.399 OA
ATOM     18  H8  <0> d           6.293  -2.887   1.215  0.00  0.00     0.209 HD
ENDBRANCH  14  17
ENDBRANCH  11  14
ENDBRANCH  10  11
ENDBRANCH   4  10
BRANCH   3  19
ATOM     19  O3  <0> d           3.568   1.988  -0.022  0.00  0.00    -0.357 OA
ATOM     20  H9  <0> d           3.924   2.169   0.859  0.00  0.00     0.218 HD
ENDBRANCH   3  19
TORSDOF 5
