REMARK  0 active torsions:
REMARK  status: ('A' for Active; 'I' for Inactive)
ROOT
ATOM      1  C1  <0> d           1.295  -0.381  -0.012  0.00  0.00     0.021 A 
ATOM      2  C2  <0> d           0.002  -0.004   0.002  0.00  0.00     0.021 A 
ATOM      3  N1  <0> d          -0.017   1.367   0.010  0.00  0.00    -0.247 N 
ATOM      4  C3  <0> d           1.285   1.783  -0.001  0.00  0.00     0.170 A 
ATOM      5  N2  <0> d           2.058   0.721  -0.014  0.00  0.00    -0.239 NA
ATOM      6  C4  <0> d           1.252   3.260   0.008  0.00  0.00     0.109 A 
ATOM      7  C5  <0> d          -0.062   3.624   0.022  0.00  0.00     0.018 A 
ATOM      8  N3  <0> d          -0.833   2.501   0.028  0.00  0.00    -0.302 N 
ATOM      9  H1  <0> d          -1.803   2.490   0.043  0.00  0.00     0.186 HD
ATOM     10  C6  <0> d           2.382   4.139   0.002  0.00  0.00     0.105 C 
ATOM     11  N4  <0> d           3.278   4.837  -0.003  0.00  0.00    -0.191 NA
ATOM     12  H2  <0> d           1.656  -1.399  -0.021  0.00  0.00     0.117 H 
ATOM     13  H3  <0> d          -0.858  -0.658   0.006  0.00  0.00     0.117 H 
ATOM     14  H4  <0> d          -0.432   4.639   0.031  0.00  0.00     0.116 H 
ENDROOT
TORSDOF 0
