REMARK  0 active torsions:
REMARK  status: ('A' for Active; 'I' for Inactive)
ROOT
ATOM      1  C1  <0> d          -1.225   2.022   0.019  0.00  0.00    -0.043 A 
ATOM      2  C2  <0> d          -1.242   3.402   0.030  0.00  0.00    -0.054 A 
ATOM      3  C3  <0> d          -0.048   4.114   0.020  0.00  0.00     0.034 A 
ATOM      4  C4  <0> d           1.163   3.438   0.009  0.00  0.00    -0.029 A 
ATOM      5  C5  <0> d           1.173   2.054   0.002  0.00  0.00    -0.037 A 
ATOM      6  C6  <0> d          -0.016   1.347   0.009  0.00  0.00     0.117 A 
ATOM      7  F1  <0> d           0.002  -0.004   0.002  0.00  0.00    -0.206 F 
ATOM      8  C7  <0> d           2.475   4.176   0.009  0.00  0.00    -0.037 C 
ATOM      9  C8  <0> d           2.283   5.611  -0.484  0.00  0.00    -0.047 C 
ATOM     10  C9  <0> d           1.143   6.260   0.312  0.00  0.00    -0.007 C 
ATOM     11  N1  <0> d          -0.089   5.514   0.021  0.00  0.00    -0.389 N 
ATOM     12  H1  <0> d          -2.153   1.469   0.022  0.00  0.00     0.088 H 
ATOM     13  H2  <0> d          -2.184   3.930   0.041  0.00  0.00     0.087 H 
ATOM     14  H3  <0> d           2.114   1.523  -0.010  0.00  0.00     0.089 H 
ATOM     15  H4  <0> d           2.882   4.201   1.031  0.00  0.00     0.040 H 
ATOM     16  H5  <0> d           3.185   3.662  -0.656  0.00  0.00     0.040 H 
ATOM     17  H6  <0> d           3.213   6.178  -0.332  0.00  0.00     0.035 H 
ATOM     18  H7  <0> d           2.031   5.599  -1.554  0.00  0.00     0.035 H 
ATOM     19  H8  <0> d           1.373   6.213   1.386  0.00  0.00     0.064 H 
ATOM     20  H9  <0> d           1.034   7.311   0.005  0.00  0.00     0.064 H 
ATOM     21  H10 <0> d          -1.023   6.055  -0.191  0.00  0.00     0.159 HD
ENDROOT
TORSDOF 0
