REMARK  2 active torsions:
REMARK  status: ('A' for Active; 'I' for Inactive)
REMARK    1  A    between atoms: C1_1  and  C2_2 
REMARK    2  A    between atoms: C2_2  and  C8_11 
ROOT
ATOM      1  C2  <0> d          -0.729   1.579   1.267  0.00  0.00     0.055 C 
ATOM      2  C3  <0> d          -0.749   3.110   1.276  0.00  0.00    -0.022 C 
ATOM      3  C4  <0> d           0.691   3.631   1.326  0.00  0.00     0.035 C 
ATOM      4  H1  <0> d           1.223   3.322   0.426  0.00  0.00     0.063 H 
ATOM      5  C5  <0> d           1.390   3.051   2.559  0.00  0.00    -0.030 C 
ATOM      6  C6  <0> d           1.327   1.523   2.501  0.00  0.00     0.022 C 
ATOM      7  O1  <0> d          -0.038   1.106   2.425  0.00  0.00    -0.381 OA
ATOM      8  C7  <0> d           0.680   5.101   1.411  0.00  0.00     0.064 C 
ATOM      9  N1  <0> d           0.672   6.234   1.478  0.00  0.00    -0.197 NA
ATOM     10  H5  <0> d          -1.236   3.474   0.372  0.00  0.00     0.039 H 
ATOM     11  H6  <0> d          -1.294   3.462   2.152  0.00  0.00     0.039 H 
ATOM     12  H7  <0> d           0.888   3.402   3.461  0.00  0.00     0.038 H 
ATOM     13  H8  <0> d           2.431   3.372   2.574  0.00  0.00     0.038 H 
ATOM     14  H9  <0> d           1.785   1.105   3.397  0.00  0.00     0.074 H 
ATOM     15  H10 <0> d           1.864   1.170   1.620  0.00  0.00     0.074 H 
ENDROOT
BRANCH   1  16
ATOM     16  C1  <0> d          -0.013   1.086   0.008  0.00  0.00    -0.048 C 
ATOM     17  H2  <0> d           0.002  -0.004   0.002  0.00  0.00     0.031 H 
ATOM     18  H3  <0> d           1.010   1.463   0.000  0.00  0.00     0.031 H 
ATOM     19  H4  <0> d          -0.540   1.447  -0.875  0.00  0.00     0.031 H 
ENDBRANCH   1  16
BRANCH   1  20
ATOM     20  C8  <0> d          -2.164   1.050   1.278  0.00  0.00    -0.048 C 
ATOM     21  H11 <0> d          -2.150  -0.040   1.272  0.00  0.00     0.031 H 
ATOM     22  H12 <0> d          -2.675   1.402   2.175  0.00  0.00     0.031 H 
ATOM     23  H13 <0> d          -2.692   1.412   0.395  0.00  0.00     0.031 H 
ENDBRANCH   1  20
TORSDOF 2
