REMARK  4 active torsions:
REMARK  status: ('A' for Active; 'I' for Inactive)
REMARK    1  A    between atoms: C1_1  and  C2_2 
REMARK    2  A    between atoms: C2_2  and  O1_3 
REMARK    3  A    between atoms: O1_3  and  C3_4 
REMARK    4  A    between atoms: C7_8  and  N1_10 
ROOT
ATOM      1  C3  <0> d           0.777  -1.810  -1.336  0.00  0.00     0.070 A 
ATOM      2  C4  <0> d           0.242  -2.668  -0.385  0.00  0.00    -0.051 A 
ATOM      3  C5  <0> d           0.349  -4.036  -0.549  0.00  0.00    -0.078 A 
ATOM      4  C6  <0> d           0.988  -4.554  -1.659  0.00  0.00    -0.058 A 
ATOM      5  C7  <0> d           1.525  -3.700  -2.614  0.00  0.00     0.028 A 
ATOM      6  C8  <0> d           1.413  -2.325  -2.454  0.00  0.00    -0.026 A 
ATOM      7  H6  <0> d          -0.258  -2.267   0.484  0.00  0.00     0.087 H 
ATOM      8  H7  <0> d          -0.068  -4.702   0.193  0.00  0.00     0.083 H 
ATOM      9  H8  <0> d           1.070  -5.624  -1.784  0.00  0.00     0.086 H 
ATOM     10  H9  <0> d           1.826  -1.659  -3.197  0.00  0.00     0.091 H 
ENDROOT
BRANCH   1  11
ATOM     11  O1  <0> d           0.671  -0.465  -1.174  0.00  0.00    -0.351 OA
BRANCH  11  12
ATOM     12  C2  <0> d           0.002  -0.004   0.002  0.00  0.00     0.023 C 
ATOM     13  H4  <0> d           0.529  -0.365   0.885  0.00  0.00     0.074 H 
ATOM     14  H5  <0> d          -1.020  -0.381   0.010  0.00  0.00     0.074 H 
BRANCH  12  15
ATOM     15  C1  <0> d          -0.019   1.526   0.010  0.00  0.00    -0.056 C 
ATOM     16  H1  <0> d           1.004   1.903   0.003  0.00  0.00     0.030 H 
ATOM     17  H2  <0> d          -0.546   1.887  -0.873  0.00  0.00     0.030 H 
ATOM     18  H3  <0> d          -0.529   1.877   0.907  0.00  0.00     0.030 H 
ENDBRANCH  12  15
ENDBRANCH  11  12
ENDBRANCH   1  11
BRANCH   5  19
ATOM     19  N1  <0> d           2.171  -4.223  -3.736  0.00  0.00    -0.399 N 
ATOM     20  H10 <0> d           2.245  -5.184  -3.849  0.00  0.00     0.156 HD
ATOM     21  H11 <0> d           2.546  -3.626  -4.402  0.00  0.00     0.156 HD
ENDBRANCH   5  19
TORSDOF 4
