REMARK  7 active torsions:
REMARK  status: ('A' for Active; 'I' for Inactive)
REMARK    1  A    between atoms: C1_1  and  C2_2 
REMARK    2  A    between atoms: C2_2  and  C3_3 
REMARK    3  A    between atoms: C3_3  and  C4_5 
REMARK    4  A    between atoms: C3_3  and  C5_7 
REMARK    5  A    between atoms: C4_5  and  O1_6 
REMARK       I    between atoms: C5_7  and  N1_9 
REMARK    6  A    between atoms: N1_9  and  C6_10 
REMARK    7  A    between atoms: C6_10  and  C7_11 
ROOT
ATOM      1  C3  <0> d           0.075   1.843   0.029  0.00  0.00     0.043 C 
ATOM      2  H1  <0> d           0.945   2.495   0.118  0.00  0.00     0.057 H 
ENDROOT
BRANCH   1   3
ATOM      3  C2  <0> d          -0.697   1.841   1.350  0.00  0.00    -0.055 C 
ATOM      4  H5  <0> d          -1.123   2.829   1.523  0.00  0.00     0.033 H 
ATOM      5  H6  <0> d          -1.498   1.103   1.301  0.00  0.00     0.033 H 
BRANCH   3   6
ATOM      6  C1  <0> d           0.253   1.488   2.496  0.00  0.00    -0.076 C 
ATOM      7  H2  <0> d           0.565   0.447   2.402  0.00  0.00     0.027 H 
ATOM      8  H3  <0> d           1.129   2.135   2.454  0.00  0.00     0.027 H 
ATOM      9  H4  <0> d          -0.259   1.629   3.448  0.00  0.00     0.027 H 
ENDBRANCH   3   6
ENDBRANCH   1   3
BRANCH   1  10
ATOM     10  C4  <0> d           0.536   0.420  -0.294  0.00  0.00     0.028 C 
ATOM     11  H7  <0> d          -0.320  -0.253  -0.270  0.00  0.00     0.075 H 
ATOM     12  H8  <0> d           0.986   0.401  -1.287  0.00  0.00     0.075 H 
BRANCH  10  13
ATOM     13  O1  <0> d           1.500   0.000   0.674  0.00  0.00    -0.400 OA
ATOM     14  H9  <0> d           1.837  -0.895   0.530  0.00  0.00     0.209 HD
ENDBRANCH  10  13
ENDBRANCH   1  10
BRANCH   1  15
ATOM     15  C5  <0> d          -0.819   2.345  -1.075  0.00  0.00     0.223 C 
ATOM     16  O2  <0> d          -1.063   1.634  -2.027  0.00  0.00    -0.273 OA
ATOM     17  N1  <0> d          -1.346   3.583  -1.005  0.00  0.00    -0.361 N 
ATOM     18  H10 <0> d          -1.151   4.151  -0.244  0.00  0.00     0.162 HD
BRANCH  17  19
ATOM     19  C6  <0> d          -2.216   4.071  -2.079  0.00  0.00    -0.008 C 
ATOM     20  H11 <0> d          -1.665   4.072  -3.019  0.00  0.00     0.063 H 
ATOM     21  H12 <0> d          -3.084   3.419  -2.167  0.00  0.00     0.063 H 
BRANCH  19  22
ATOM     22  C7  <0> d          -2.676   5.493  -1.755  0.00  0.00    -0.061 C 
ATOM     23  H13 <0> d          -3.227   5.492  -0.815  0.00  0.00     0.029 H 
ATOM     24  H14 <0> d          -1.807   6.145  -1.667  0.00  0.00     0.029 H 
ATOM     25  H15 <0> d          -3.323   5.856  -2.554  0.00  0.00     0.029 H 
ENDBRANCH  19  22
ENDBRANCH  17  19
ENDBRANCH   1  15
TORSDOF 7
