REMARK  3 active torsions:
REMARK  status: ('A' for Active; 'I' for Inactive)
REMARK    1  A    between atoms: C1_1  and  C2_2 
REMARK    2  A    between atoms: C4_4  and  N3_8 
REMARK    3  A    between atoms: N1_5  and  C5_7 
ROOT
ATOM      1  C2  <0> d          -1.027   2.233   3.279  0.00  0.00     0.054 A 
ATOM      2  C3  <0> d          -2.252   2.225   2.605  0.00  0.00    -0.015 A 
ATOM      3  C4  <0> d          -2.022   1.810   1.329  0.00  0.00     0.119 A 
ATOM      4  N1  <0> d          -0.698   1.558   1.213  0.00  0.00    -0.259 N 
ATOM      5  N2  <0> d          -0.098   1.835   2.448  0.00  0.00    -0.176 NA
ATOM      6  H4  <0> d          -3.209   2.503   3.022  0.00  0.00     0.092 H 
ENDROOT
BRANCH   1   7
ATOM      7  C1  <0> d          -0.813   2.632   4.716  0.00  0.00    -0.034 C 
ATOM      8  H1  <0> d          -0.607   3.701   4.770  0.00  0.00     0.035 H 
ATOM      9  H2  <0> d          -1.710   2.406   5.293  0.00  0.00     0.035 H 
ATOM     10  H3  <0> d           0.031   2.078   5.126  0.00  0.00     0.035 H 
ENDBRANCH   1   7
BRANCH   4  11
ATOM     11  C5  <0> d          -0.013   1.086   0.008  0.00  0.00     0.004 C 
ATOM     12  H5  <0> d           0.002  -0.004   0.002  0.00  0.00     0.059 H 
ATOM     13  H6  <0> d           1.010   1.463   0.000  0.00  0.00     0.059 H 
ATOM     14  H7  <0> d          -0.540   1.447  -0.875  0.00  0.00     0.059 H 
ENDBRANCH   4  11
BRANCH   3  15
ATOM     15  N3  <0> d          -2.977   1.667   0.326  0.00  0.00    -0.384 N 
ATOM     16  H8  <0> d          -2.713   1.361  -0.555  0.00  0.00     0.157 HD
ATOM     17  H9  <0> d          -3.907   1.875   0.509  0.00  0.00     0.157 HD
ENDBRANCH   3  15
TORSDOF 3
