REMARK  6 active torsions:
REMARK  status: ('A' for Active; 'I' for Inactive)
REMARK    1  A    between atoms: C1_1  and  C2_2 
REMARK    2  A    between atoms: C2_2  and  C3_3 
REMARK    3  A    between atoms: C3_3  and  C4_5 
REMARK    4  A    between atoms: C3_3  and  C5_6 
REMARK    5  A    between atoms: C5_6  and  C6_8 
REMARK    6  A    between atoms: C5_6  and  O1_9 
ROOT
ATOM      1  C3  <0> d           0.011   1.072   2.506  0.00  0.00    -0.033 C 
ATOM      2  H1  <0> d           0.104  -0.013   2.456  0.00  0.00     0.043 H 
ENDROOT
BRANCH   1   3
ATOM      3  C2  <0> d          -0.729   1.579   1.267  0.00  0.00    -0.063 C 
ATOM      4  H6  <0> d          -0.744   2.669   1.273  0.00  0.00     0.033 H 
ATOM      5  H7  <0> d          -1.751   1.202   1.275  0.00  0.00     0.033 H 
BRANCH   3   6
ATOM      6  C1  <0> d          -0.013   1.086   0.008  0.00  0.00    -0.076 C 
ATOM      7  H3  <0> d           0.002  -0.004   0.002  0.00  0.00     0.027 H 
ATOM      8  H4  <0> d           1.010   1.463   0.000  0.00  0.00     0.027 H 
ATOM      9  H5  <0> d          -0.540   1.447  -0.875  0.00  0.00     0.027 H 
ENDBRANCH   3   6
ENDBRANCH   1   3
BRANCH   1  10
ATOM     10  C4  <0> d           1.405   1.701   2.561  0.00  0.00    -0.071 C 
ATOM     11  H8  <0> d           1.932   1.340   3.444  0.00  0.00     0.028 H 
ATOM     12  H9  <0> d           1.963   1.425   1.666  0.00  0.00     0.028 H 
ATOM     13  H10 <0> d           1.312   2.786   2.611  0.00  0.00     0.028 H 
ENDBRANCH   1  10
BRANCH   1  14
ATOM     14  C5  <0> d          -0.772   1.460   3.762  0.00  0.00     0.035 C 
ATOM     15  H2  <0> d          -0.865   2.545   3.812  0.00  0.00     0.082 H 
BRANCH  14  16
ATOM     16  C6  <0> d          -2.166   0.831   3.708  0.00  0.00    -0.052 C 
ATOM     17  H11 <0> d          -2.074  -0.254   3.657  0.00  0.00     0.030 H 
ATOM     18  H12 <0> d          -2.725   1.107   4.602  0.00  0.00     0.030 H 
ATOM     19  H13 <0> d          -2.693   1.192   2.825  0.00  0.00     0.030 H 
ENDBRANCH  14  16
BRANCH  14  20
ATOM     20  O1  <0> d          -0.081   0.986   4.920  0.00  0.00    -0.396 OA
ATOM     21  H14 <0> d          -0.522   1.197   5.754  0.00  0.00     0.210 HD
ENDBRANCH  14  20
ENDBRANCH   1  14
TORSDOF 6
