REMARK  2 active torsions:
REMARK  status: ('A' for Active; 'I' for Inactive)
REMARK    1  A    between atoms: C2_2  and  C3_3 
REMARK    2  A    between atoms: C3_3  and  C4_4 
ROOT
ATOM      1  C4  <0> d          -1.318  -1.726  -1.159  0.00  0.00    -0.028 A 
ATOM      2  C5  <0> d          -1.925  -1.349  -2.337  0.00  0.00    -0.074 A 
ATOM      3  C6  <0> d          -1.954  -2.215  -3.414  0.00  0.00    -0.082 A 
ATOM      4  C7  <0> d          -1.371  -3.464  -3.308  0.00  0.00    -0.075 A 
ATOM      5  C8  <0> d          -0.761  -3.847  -2.129  0.00  0.00    -0.030 A 
ATOM      6  C9  <0> d          -0.722  -2.984  -1.045  0.00  0.00     0.041 A 
ATOM      7  N1  <0> d          -0.059  -3.553   0.043  0.00  0.00    -0.389 N 
ATOM      8  C10 <0> d           0.403  -4.901  -0.298  0.00  0.00    -0.004 A 
ATOM      9  C11 <0> d          -0.059  -5.131  -1.746  0.00  0.00    -0.024 A 
ATOM     10  H6  <0> d          -2.380  -0.373  -2.420  0.00  0.00     0.084 H 
ATOM     11  H7  <0> d          -2.430  -1.917  -4.337  0.00  0.00     0.083 H 
ATOM     12  H8  <0> d          -1.392  -4.143  -4.148  0.00  0.00     0.084 H 
ATOM     13  H9  <0> d           0.076  -3.120   0.901  0.00  0.00     0.159 HD
ATOM     14  H10 <0> d           1.489  -4.958  -0.227  0.00  0.00     0.064 H 
ATOM     15  H11 <0> d          -0.059  -5.637   0.360  0.00  0.00     0.064 H 
ATOM     16  H12 <0> d          -0.748  -5.973  -1.806  0.00  0.00     0.042 H 
ATOM     17  H13 <0> d           0.804  -5.299  -2.390  0.00  0.00     0.042 H 
ENDROOT
BRANCH   1  18
ATOM     18  C3  <0> d          -1.293  -0.775   0.010  0.00  0.00    -0.024 C 
ATOM     19  H4  <0> d          -1.374  -1.339   0.939  0.00  0.00     0.046 H 
ATOM     20  H5  <0> d          -2.130  -0.081  -0.068  0.00  0.00     0.046 H 
BRANCH  18  21
ATOM     21  C2  <0> d           0.002  -0.004   0.002  0.00  0.00    -0.108 C 
ATOM     22  C1  <0> d          -0.016   1.306   0.009  0.00  0.00    -0.124 C 
ATOM     23  H1  <0> d           0.912   1.859   0.003  0.00  0.00     0.066 H 
ATOM     24  H2  <0> d          -0.958   1.833   0.017  0.00  0.00     0.066 H 
ATOM     25  H3  <0> d           0.945  -0.531  -0.010  0.00  0.00     0.076 H 
ENDBRANCH  18  21
ENDBRANCH   1  18
TORSDOF 2
