REMARK  5 active torsions:
REMARK  status: ('A' for Active; 'I' for Inactive)
REMARK    1  A    between atoms: C1_1  and  C2_2 
REMARK    2  A    between atoms: C2_2  and  N1_3 
REMARK    3  A    between atoms: C3_4  and  C9_10 
REMARK    4  A    between atoms: C5_6  and  C8_9 
REMARK    5  A    between atoms: C6_7  and  C7_8 
ROOT
ATOM      1  N1  <0> d           0.711  -0.489   1.189  0.00  0.00    -0.354 N 
ATOM      2  C3  <0> d           2.050  -0.731   1.271  0.00  0.00     0.008 A 
ATOM      3  C4  <0> d           2.324  -1.165   2.518  0.00  0.00    -0.054 A 
ATOM      4  C5  <0> d           1.110  -1.192   3.232  0.00  0.00    -0.038 A 
ATOM      5  C6  <0> d           0.141  -0.769   2.396  0.00  0.00     0.013 A 
ATOM      6  H6  <0> d           3.296  -1.441   2.899  0.00  0.00     0.087 H 
ENDROOT
BRANCH   1   7
ATOM      7  C2  <0> d           0.002  -0.004   0.002  0.00  0.00    -0.004 C 
ATOM      8  H4  <0> d          -1.020  -0.381   0.010  0.00  0.00     0.064 H 
ATOM      9  H5  <0> d           0.512  -0.356  -0.895  0.00  0.00     0.064 H 
BRANCH   7  10
ATOM     10  C1  <0> d          -0.019   1.526   0.010  0.00  0.00    -0.061 C 
ATOM     11  H1  <0> d           1.004   1.903   0.003  0.00  0.00     0.029 H 
ATOM     12  H2  <0> d          -0.546   1.887  -0.873  0.00  0.00     0.029 H 
ATOM     13  H3  <0> d          -0.529   1.877   0.907  0.00  0.00     0.029 H 
ENDBRANCH   7  10
ENDBRANCH   1   7
BRANCH   5  14
ATOM     14  C7  <0> d          -1.321  -0.631   2.735  0.00  0.00    -0.037 C 
ATOM     15  H7  <0> d          -1.835  -1.567   2.517  0.00  0.00     0.035 H 
ATOM     16  H8  <0> d          -1.428  -0.397   3.794  0.00  0.00     0.035 H 
ATOM     17  H9  <0> d          -1.759   0.171   2.140  0.00  0.00     0.035 H 
ENDBRANCH   5  14
BRANCH   2  18
ATOM     18  C9  <0> d           3.051  -0.545   0.160  0.00  0.00    -0.037 C 
ATOM     19  H13 <0> d           3.449   0.469   0.195  0.00  0.00     0.035 H 
ATOM     20  H14 <0> d           3.866  -1.259   0.282  0.00  0.00     0.035 H 
ATOM     21  H15 <0> d           2.563  -0.711  -0.800  0.00  0.00     0.035 H 
ENDBRANCH   2  18
BRANCH   4  22
ATOM     22  C8  <0> d           0.929  -1.612   4.668  0.00  0.00    -0.049 C 
ATOM     23  H10 <0> d           1.041  -0.744   5.317  0.00  0.00     0.033 H 
ATOM     24  H11 <0> d          -0.066  -2.038   4.799  0.00  0.00     0.033 H 
ATOM     25  H12 <0> d           1.680  -2.358   4.926  0.00  0.00     0.033 H 
ENDBRANCH   4  22
TORSDOF 5
