REMARK  2 active torsions:
REMARK  status: ('A' for Active; 'I' for Inactive)
REMARK    1  A    between atoms: C1_1  and  O1_2 
REMARK    2  A    between atoms: O1_2  and  C2_3 
ROOT
ATOM      1  C2  <0> d           1.183   2.057   0.002  0.00  0.00     0.165 A 
ATOM      2  C3  <0> d           1.229   3.445   0.003  0.00  0.00    -0.032 A 
ATOM      3  C4  <0> d           2.460   4.079   0.000  0.00  0.00    -0.076 A 
ATOM      4  C5  <0> d           3.607   3.298  -0.015  0.00  0.00    -0.044 A 
ATOM      5  C6  <0> d           3.487   1.921  -0.021  0.00  0.00     0.128 A 
ATOM      6  N1  <0> d           2.298   1.346  -0.013  0.00  0.00    -0.213 NA
ATOM      7 Cl1  <0> d           4.916   0.936  -0.040  0.00  0.00    -0.062 Cl
ATOM      8  H4  <0> d           0.316   4.023   0.011  0.00  0.00     0.090 H 
ATOM      9  H5  <0> d           2.526   5.157   0.005  0.00  0.00     0.083 H 
ATOM     10  H6  <0> d           4.582   3.761  -0.022  0.00  0.00     0.088 H 
ENDROOT
BRANCH   1  11
ATOM     11  O1  <0> d          -0.017   1.425   0.010  0.00  0.00    -0.339 OA
BRANCH  11  12
ATOM     12  C1  <0> d           0.002  -0.004   0.002  0.00  0.00     0.012 C 
ATOM     13  H1  <0> d          -1.020  -0.381   0.010  0.00  0.00     0.067 H 
ATOM     14  H2  <0> d           0.512  -0.356  -0.895  0.00  0.00     0.067 H 
ATOM     15  H3  <0> d           0.529  -0.365   0.885  0.00  0.00     0.067 H 
ENDBRANCH  11  12
ENDBRANCH   1  11
TORSDOF 2
