REMARK  5 active torsions:
REMARK  status: ('A' for Active; 'I' for Inactive)
REMARK    1  A    between atoms: C1_1  and  C2_2 
REMARK    2  A    between atoms: C2_2  and  C3_3 
REMARK    3  A    between atoms: C2_2  and  C4_4 
REMARK    4  A    between atoms: C4_4  and  C5_6 
REMARK    5  A    between atoms: C4_4  and  N1_10 
ROOT
ATOM      1  C2  <0> d          -0.002  -0.026  -0.003  0.00  0.00    -0.023 C 
ATOM      2  H5  <0> d           0.420  -0.381  -0.943  0.00  0.00     0.042 H 
ENDROOT
BRANCH   1   3
ATOM      3  C1  <0> d           0.010   1.504   0.017  0.00  0.00    -0.071 C 
ATOM      4  H2  <0> d           1.040   1.859   0.049  0.00  0.00     0.028 H 
ATOM      5  H3  <0> d          -0.477   1.882  -0.882  0.00  0.00     0.028 H 
ATOM      6  H4  <0> d          -0.525   1.860   0.897  0.00  0.00     0.028 H 
ENDBRANCH   1   3
BRANCH   1   7
ATOM      7  C3  <0> d           0.833  -0.557   1.164  0.00  0.00    -0.071 C 
ATOM      8  H6  <0> d           0.359  -0.281   2.106  0.00  0.00     0.028 H 
ATOM      9  H7  <0> d           0.902  -1.643   1.097  0.00  0.00     0.028 H 
ATOM     10  H8  <0> d           1.833  -0.126   1.121  0.00  0.00     0.028 H 
ENDBRANCH   1   7
BRANCH   1  11
ATOM     11  C4  <0> d          -1.442  -0.527   0.131  0.00  0.00     0.225 C 
ATOM     12  H1  <0> d          -1.898  -0.088   1.018  0.00  0.00     0.102 H 
BRANCH  11  13
ATOM     13  C5  <0> d          -2.240  -0.118  -1.108  0.00  0.00     0.418 C 
ATOM     14  F1  <0> d          -1.583  -0.571  -2.257  0.00  0.00    -0.169 F 
ATOM     15  F2  <0> d          -3.518  -0.687  -1.048  0.00  0.00    -0.169 F 
ATOM     16  F3  <0> d          -2.352   1.275  -1.153  0.00  0.00    -0.169 F 
ENDBRANCH  11  13
BRANCH  11  17
ATOM     17  N1  <0> d          -1.442  -1.990   0.253  0.00  0.00     0.092 N 
ATOM     18  H9  <0> d          -1.023  -2.421  -0.557  0.00  0.00     0.313 HD
ATOM     19  H10 <0> d          -0.975  -2.283   1.099  0.00  0.00     0.313 HD
ENDBRANCH  11  17
ENDBRANCH   1  11
TORSDOF 5
