REMARK  4 active torsions:
REMARK  status: ('A' for Active; 'I' for Inactive)
REMARK    1  A    between atoms: C2_2  and  C3_3 
REMARK    2  A    between atoms: C3_3  and  O1_4 
REMARK    3  A    between atoms: O1_4  and  C4_5 
REMARK    4  A    between atoms: C4_5  and  C5_6 
ROOT
ATOM      1  C3  <0> d          -0.628   1.513   3.661  0.00  0.00     0.040 C 
ATOM      2  H4  <0> d          -0.641   2.601   3.716  0.00  0.00     0.080 H 
ATOM      3  H5  <0> d          -1.648   1.134   3.718  0.00  0.00     0.080 H 
ENDROOT
BRANCH   1   4
ATOM      4  C2  <0> d           0.178   0.961   4.808  0.00  0.00    -0.089 C 
ATOM      5  C1  <0> d           0.479   1.728   5.826  0.00  0.00    -0.123 C 
ATOM      6  H1  <0> d           1.057   1.332   6.648  0.00  0.00     0.066 H 
ATOM      7  H2  <0> d           0.150   2.756   5.843  0.00  0.00     0.066 H 
ATOM      8  H3  <0> d           0.507  -0.068   4.791  0.00  0.00     0.078 H 
ENDBRANCH   1   4
BRANCH   1   9
ATOM      9  O1  <0> d          -0.038   1.106   2.425  0.00  0.00    -0.318 OA
BRANCH   9  10
ATOM     10  C4  <0> d          -0.729   1.579   1.267  0.00  0.00     0.413 C 
ATOM     11  F3  <0> d          -0.748   2.978   1.274  0.00  0.00    -0.169 F 
ATOM     12  F4  <0> d          -2.041   1.095   1.277  0.00  0.00    -0.169 F 
BRANCH  10  13
ATOM     13  C5  <0> d          -0.013   1.086   0.008  0.00  0.00     0.296 C 
ATOM     14  F1  <0> d           1.300   1.570  -0.002  0.00  0.00    -0.205 F 
ATOM     15  F2  <0> d          -0.689   1.549  -1.125  0.00  0.00    -0.205 F 
ATOM     16  H6  <0> d           0.002  -0.004   0.002  0.00  0.00     0.159 H 
ENDBRANCH  10  13
ENDBRANCH   9  10
ENDBRANCH   1   9
TORSDOF 4
