REMARK  1 active torsions:
REMARK  status: ('A' for Active; 'I' for Inactive)
REMARK    1  A    between atoms: C7_7  and  C9_10 
ROOT
ATOM      1  C1  <0> d           0.926   4.149   0.335  0.00  0.00    -0.061 C 
ATOM      2  C2  <0> d           1.116   3.117   1.399  0.00  0.00    -0.050 C 
ATOM      3  C3  <0> d          -0.182   2.563   1.922  0.00  0.00    -0.107 C 
ATOM      4  C4  <0> d          -0.723   1.574   1.246  0.00  0.00    -0.106 C 
ATOM      5  C5  <0> d          -0.013   1.086   0.008  0.00  0.00    -0.049 C 
ATOM      6  C6  <0> d          -0.755   1.594  -1.226  0.00  0.00    -0.050 C 
ATOM      7  C7  <0> d          -0.815   3.141  -1.164  0.00  0.00     0.031 C 
ATOM      8  H1  <0> d          -1.381   3.454  -0.287  0.00  0.00     0.056 H 
ATOM      9  C8  <0> d           0.630   3.662  -1.068  0.00  0.00    -0.052 C 
ATOM     10  H2  <0> d           1.830   4.757   0.293  0.00  0.00     0.033 H 
ATOM     11  H3  <0> d           0.106   4.799   0.642  0.00  0.00     0.033 H 
ATOM     12  H4  <0> d           1.708   2.297   0.991  0.00  0.00     0.038 H 
ATOM     13  H5  <0> d           1.666   3.564   2.227  0.00  0.00     0.038 H 
ATOM     14  H6  <0> d          -0.647   2.960   2.813  0.00  0.00     0.076 H 
ATOM     15  H7  <0> d          -1.651   1.125   1.567  0.00  0.00     0.076 H 
ATOM     16  H8  <0> d           0.002  -0.004   0.002  0.00  0.00     0.038 H 
ATOM     17  H9  <0> d           1.009   1.465   0.000  0.00  0.00     0.038 H 
ATOM     18  H10 <0> d          -0.225   1.283  -2.126  0.00  0.00     0.034 H 
ATOM     19  H11 <0> d          -1.768   1.189  -1.236  0.00  0.00     0.034 H 
ATOM     20  H12 <0> d           1.320   2.858  -1.322  0.00  0.00     0.034 H 
ATOM     21  H13 <0> d           0.763   4.485  -1.770  0.00  0.00     0.034 H 
ENDROOT
BRANCH   7  22
ATOM     22  C9  <0> d          -1.469   3.677  -2.412  0.00  0.00     0.177 C 
ATOM     23  O1  <0> d          -0.861   4.427  -3.138  0.00  0.00    -0.648 OA
ATOM     24  O2  <0> d          -2.727   3.321  -2.716  0.00  0.00    -0.648 OA
ENDBRANCH   7  22
TORSDOF 1
