REMARK  3 active torsions:
REMARK  status: ('A' for Active; 'I' for Inactive)
REMARK    1  A    between atoms: C1_1  and  C2_2 
REMARK    2  A    between atoms: C6_6  and  C9_9 
REMARK    3  A    between atoms: C7_7  and  C8_8 
ROOT
ATOM      1  C2  <0> d          -2.083   1.789   1.226  0.00  0.00    -0.056 A 
ATOM      2  C3  <0> d          -2.731   2.231   2.365  0.00  0.00    -0.077 A 
ATOM      3  C4  <0> d          -2.012   2.464   3.522  0.00  0.00    -0.082 A 
ATOM      4  C5  <0> d          -0.646   2.251   3.543  0.00  0.00    -0.077 A 
ATOM      5  C6  <0> d           0.001   1.806   2.405  0.00  0.00    -0.056 A 
ATOM      6  C7  <0> d          -0.718   1.572   1.248  0.00  0.00    -0.050 A 
ATOM      7  H4  <0> d          -3.798   2.398   2.349  0.00  0.00     0.084 H 
ATOM      8  H5  <0> d          -2.518   2.812   4.411  0.00  0.00     0.083 H 
ATOM      9  H6  <0> d          -0.085   2.433   4.447  0.00  0.00     0.084 H 
ENDROOT
BRANCH   1  10
ATOM     10  C1  <0> d          -2.866   1.540  -0.037  0.00  0.00    -0.051 C 
ATOM     11  H1  <0> d          -3.214   0.507  -0.051  0.00  0.00     0.033 H 
ATOM     12  H2  <0> d          -3.723   2.213  -0.072  0.00  0.00     0.033 H 
ATOM     13  H3  <0> d          -2.227   1.720  -0.902  0.00  0.00     0.033 H 
ENDBRANCH   1  10
BRANCH   6  14
ATOM     14  C8  <0> d          -0.013   1.086   0.008  0.00  0.00    -0.050 C 
ATOM     15  H7  <0> d           0.002  -0.004   0.002  0.00  0.00     0.033 H 
ATOM     16  H8  <0> d           1.010   1.463   0.000  0.00  0.00     0.033 H 
ATOM     17  H9  <0> d          -0.540   1.447  -0.875  0.00  0.00     0.033 H 
ENDBRANCH   6  14
BRANCH   5  18
ATOM     18  C9  <0> d           1.490   1.574   2.427  0.00  0.00    -0.051 C 
ATOM     19  H10 <0> d           2.004   2.491   2.139  0.00  0.00     0.033 H 
ATOM     20  H11 <0> d           1.798   1.285   3.432  0.00  0.00     0.033 H 
ATOM     21  H12 <0> d           1.744   0.779   1.726  0.00  0.00     0.033 H 
ENDBRANCH   5  18
TORSDOF 3
