REMARK  3 active torsions:
REMARK  status: ('A' for Active; 'I' for Inactive)
REMARK    1  A    between atoms: C1_1  and  C2_2 
REMARK    2  A    between atoms: C3_3  and  C4_7 
REMARK    3  A    between atoms: C4_7  and  O2_8 
ROOT
ATOM      1  C2  <0> d          -0.718   1.572   1.248  0.00  0.00     0.089 A 
ATOM      2  C3  <0> d          -0.098   1.845   2.483  0.00  0.00     0.114 A 
ATOM      3  N1  <0> d          -0.993   2.245   3.336  0.00  0.00    -0.105 NA
ATOM      4  O1  <0> d          -2.245   2.244   2.669  0.00  0.00    -0.106 OA
ATOM      5  N2  <0> d          -1.992   1.810   1.343  0.00  0.00    -0.108 NA
ENDROOT
BRANCH   2   6
ATOM      6  C4  <0> d           1.374   1.696   2.771  0.00  0.00     0.061 C 
ATOM      7  H4  <0> d           1.515   1.447   3.823  0.00  0.00     0.084 H 
ATOM      8  H5  <0> d           1.786   0.900   2.151  0.00  0.00     0.084 H 
BRANCH   6   9
ATOM      9  O2  <0> d           2.043   2.924   2.477  0.00  0.00    -0.395 OA
ATOM     10  H6  <0> d           2.996   2.901   2.640  0.00  0.00     0.209 HD
ENDBRANCH   6   9
ENDBRANCH   2   6
BRANCH   1  11
ATOM     11  C1  <0> d          -0.013   1.086   0.008  0.00  0.00    -0.031 C 
ATOM     12  H1  <0> d           0.002  -0.004   0.002  0.00  0.00     0.035 H 
ATOM     13  H2  <0> d           1.010   1.463   0.000  0.00  0.00     0.035 H 
ATOM     14  H3  <0> d          -0.540   1.447  -0.875  0.00  0.00     0.035 H 
ENDBRANCH   1  11
TORSDOF 3
