REMARK  0 active torsions:
REMARK  status: ('A' for Active; 'I' for Inactive)
ROOT
ATOM      1  C1  <0> d          -0.019   1.527   0.010  0.00  0.00    -0.046 C 
ATOM      2  C2  <0> d           1.347   2.125   0.001  0.00  0.00    -0.106 C 
ATOM      3  C3  <0> d           2.425   1.498  -0.336  0.00  0.00    -0.105 C 
ATOM      4  C4  <0> d           2.449   0.053  -0.726  0.00  0.00    -0.043 C 
ATOM      5  C5  <0> d           1.085  -0.518  -0.962  0.00  0.00    -0.031 C 
ATOM      6  H1  <0> d           1.158  -1.594  -0.802  0.00  0.00     0.046 H 
ATOM      7  C6  <0> d           0.002  -0.004   0.002  0.00  0.00    -0.041 C 
ATOM      8  H2  <0> d           0.061  -0.441   0.999  0.00  0.00     0.041 H 
ATOM      9  C7  <0> d          -1.257  -0.426  -0.825  0.00  0.00    -0.046 C 
ATOM     10  C8  <0> d          -0.795  -0.301  -2.263  0.00  0.00    -0.105 C 
ATOM     11  C9  <0> d           0.510  -0.326  -2.330  0.00  0.00    -0.102 C 
ATOM     12  H3  <0> d          -0.544   1.866   0.903  0.00  0.00     0.039 H 
ATOM     13  H4  <0> d          -0.561   1.876  -0.868  0.00  0.00     0.039 H 
ATOM     14  H5  <0> d           1.442   3.160   0.297  0.00  0.00     0.076 H 
ATOM     15  H6  <0> d           3.356   2.044  -0.338  0.00  0.00     0.076 H 
ATOM     16  H7  <0> d           3.036  -0.054  -1.638  0.00  0.00     0.039 H 
ATOM     17  H8  <0> d           2.934  -0.516   0.068  0.00  0.00     0.039 H 
ATOM     18  H9  <0> d          -1.537  -1.455  -0.600  0.00  0.00     0.039 H 
ATOM     19  H10 <0> d          -2.089   0.251  -0.629  0.00  0.00     0.039 H 
ATOM     20  H11 <0> d          -1.453  -0.193  -3.112  0.00  0.00     0.076 H 
ATOM     21  H12 <0> d           1.082  -0.232  -3.241  0.00  0.00     0.076 H 
ENDROOT
TORSDOF 0
