REMARK  2 active torsions:
REMARK  status: ('A' for Active; 'I' for Inactive)
REMARK    1  A    between atoms: C3_3  and  O2_10 
REMARK    2  A    between atoms: C6_6  and  O1_7 
ROOT
ATOM      1  C1  <0> d           2.405   0.029  -0.021  0.00  0.00    -0.045 A 
ATOM      2  C2  <0> d           2.386   1.412  -0.014  0.00  0.00    -0.045 A 
ATOM      3  C3  <0> d           1.177   2.090   0.002  0.00  0.00     0.107 A 
ATOM      4  C4  <0> d          -0.017   1.380   0.010  0.00  0.00     0.190 A 
ATOM      5  C5  <0> d           0.002  -0.004   0.002  0.00  0.00     0.190 A 
ATOM      6  C6  <0> d           1.215  -0.681  -0.013  0.00  0.00     0.107 A 
ATOM      7  F1  <0> d          -1.158  -0.696   0.009  0.00  0.00    -0.200 F 
ATOM      8  F2  <0> d          -1.195   2.040   0.019  0.00  0.00    -0.200 F 
ATOM      9  H1  <0> d           3.348  -0.497  -0.033  0.00  0.00     0.088 H 
ATOM     10  H2  <0> d           3.314   1.964  -0.020  0.00  0.00     0.088 H 
ENDROOT
BRANCH   3  11
ATOM     11  O2  <0> d           1.160   3.450   0.009  0.00  0.00    -0.357 OA
ATOM     12  H4  <0> d           1.164   3.838   0.895  0.00  0.00     0.217 HD
ENDBRANCH   3  11
BRANCH   6  13
ATOM     13  O1  <0> d           1.235  -2.041  -0.020  0.00  0.00    -0.357 OA
ATOM     14  H3  <0> d           1.232  -2.430  -0.906  0.00  0.00     0.217 HD
ENDBRANCH   6  13
TORSDOF 2
