REMARK  1 active torsions:
REMARK  status: ('A' for Active; 'I' for Inactive)
REMARK    1  A    between atoms: C1_1  and  C2_2 
ROOT
ATOM      1  C2  <0> d          -3.303   2.496   0.031  0.00  0.00     0.101 A 
ATOM      2  N1  <0> d          -2.546   1.365   0.022  0.00  0.00    -0.343 N 
ATOM      3  H1  <0> d          -2.886   0.425   0.019  0.00  0.00     0.167 HD
ATOM      4  C3  <0> d          -1.222   1.757   0.017  0.00  0.00     0.062 A 
ATOM      5  C4  <0> d          -0.013   1.076   0.008  0.00  0.00    -0.055 A 
ATOM      6  C5  <0> d           1.170   1.784   0.001  0.00  0.00    -0.081 A 
ATOM      7  C6  <0> d           1.158   3.172   0.007  0.00  0.00    -0.081 A 
ATOM      8  C7  <0> d          -0.022   3.859   0.022  0.00  0.00    -0.053 A 
ATOM      9  C8  <0> d          -1.234   3.162   0.030  0.00  0.00     0.085 A 
ATOM     10  N2  <0> d          -2.536   3.547   0.044  0.00  0.00    -0.234 NA
ATOM     11  H5  <0> d           0.002  -0.004   0.002  0.00  0.00     0.087 H 
ATOM     12  H6  <0> d           2.112   1.256  -0.011  0.00  0.00     0.083 H 
ATOM     13  H7  <0> d           2.092   3.715   0.000  0.00  0.00     0.083 H 
ATOM     14  H8  <0> d          -0.020   4.939   0.027  0.00  0.00     0.087 H 
ENDROOT
BRANCH   1  15
ATOM     15  C1  <0> d          -4.809   2.526   0.039  0.00  0.00    -0.021 C 
ATOM     16  H2  <0> d          -5.168   2.529   1.068  0.00  0.00     0.037 H 
ATOM     17  H3  <0> d          -5.157   3.426  -0.469  0.00  0.00     0.037 H 
ATOM     18  H4  <0> d          -5.193   1.647  -0.478  0.00  0.00     0.037 H 
ENDBRANCH   1  15
TORSDOF 1
