REMARK  1 active torsions:
REMARK  status: ('A' for Active; 'I' for Inactive)
REMARK    1  A    between atoms: C4_4  and  C7_7 
ROOT
ATOM      1  C7  <0> d           3.711  -0.707  -0.038  0.00  0.00     0.064 C 
ATOM      2  H1  <0> d           4.504  -0.055  -0.404  0.00  0.00     0.090 H 
ATOM      3  C8  <0> d           4.055  -1.227   1.381  0.00  0.00    -0.035 C 
ATOM      4  C9  <0> d           4.991  -2.419   1.039  0.00  0.00    -0.043 C 
ATOM      5  C10 <0> d           4.382  -2.946  -0.278  0.00  0.00     0.021 C 
ATOM      6  O1  <0> d           3.614  -1.883  -0.857  0.00  0.00    -0.381 OA
ATOM      7  H7  <0> d           4.581  -0.469   1.961  0.00  0.00     0.037 H 
ATOM      8  H8  <0> d           3.161  -1.567   1.902  0.00  0.00     0.037 H 
ATOM      9  H9  <0> d           6.014  -2.076   0.884  0.00  0.00     0.036 H 
ATOM     10  H10 <0> d           4.950  -3.180   1.818  0.00  0.00     0.036 H 
ATOM     11  H11 <0> d           5.178  -3.240  -0.962  0.00  0.00     0.074 H 
ATOM     12  H12 <0> d           3.737  -3.800  -0.071  0.00  0.00     0.074 H 
ENDROOT
BRANCH   1  13
ATOM     13  C4  <0> d           2.396   0.029  -0.020  0.00  0.00    -0.029 A 
ATOM     14  C3  <0> d           2.377   1.411  -0.013  0.00  0.00    -0.074 A 
ATOM     15  C2  <0> d           1.171   2.086   0.002  0.00  0.00    -0.082 A 
ATOM     16  H4  <0> d           3.305   1.963  -0.020  0.00  0.00     0.084 H 
ATOM     17  C1  <0> d          -0.017   1.378   0.010  0.00  0.00    -0.083 A 
ATOM     18  H3  <0> d           1.156   3.165   0.008  0.00  0.00     0.083 H 
ATOM     19  C6  <0> d           0.002  -0.004   0.002  0.00  0.00    -0.082 A 
ATOM     20  H2  <0> d          -0.959   1.905   0.026  0.00  0.00     0.083 H 
ATOM     21  C5  <0> d           1.208  -0.679  -0.012  0.00  0.00    -0.074 A 
ATOM     22  H6  <0> d          -0.926  -0.557   0.008  0.00  0.00     0.083 H 
ATOM     23  H5  <0> d           1.223  -1.759  -0.018  0.00  0.00     0.084 H 
ENDBRANCH   1  13
TORSDOF 1
