REMARK  2 active torsions:
REMARK  status: ('A' for Active; 'I' for Inactive)
REMARK    1  A    between atoms: C2_2  and  O2_9 
REMARK    2  A    between atoms: C4_6  and  C5_7 
ROOT
ATOM      1  C1  <0> d           1.189   3.105  -0.082  0.00  0.00     0.007 C 
ATOM      2  C2  <0> d           1.286   1.562  -0.002  0.00  0.00     0.058 C 
ATOM      3  H1  <0> d           1.867   1.249   0.866  0.00  0.00     0.086 H 
ATOM      4  C3  <0> d           2.036   1.248  -1.318  0.00  0.00     0.039 C 
ATOM      5  N1  <0> d           2.761   2.481  -1.647  0.00  0.00    -0.284 NA
ATOM      6  C4  <0> d           2.328   3.490  -1.002  0.00  0.00     0.107 C 
ATOM      7  H2  <0> d           0.324   3.419  -0.473  0.00  0.00     0.046 H 
ATOM      8  H3  <0> d           1.325   3.549   0.904  0.00  0.00     0.046 H 
ATOM      9  H4  <0> d           2.736   0.426  -1.168  0.00  0.00     0.071 H 
ATOM     10  H5  <0> d           1.327   1.004  -2.109  0.00  0.00     0.071 H 
ENDROOT
BRANCH   2  11
ATOM     11  O2  <0> d          -0.011   0.963   0.007  0.00  0.00    -0.394 OA
ATOM     12  H6  <0> d           0.002  -0.004   0.002  0.00  0.00     0.210 HD
ENDBRANCH   2  11
BRANCH   6  13
ATOM     13  C5  <0> d           2.869   4.864  -1.133  0.00  0.00     0.224 C 
ATOM     14  O1  <0> d           2.394   5.769  -0.478  0.00  0.00    -0.643 OA
ATOM     15  O3  <0> d           3.888   5.108  -1.979  0.00  0.00    -0.643 OA
ENDBRANCH   6  13
TORSDOF 2
