REMARK  5 active torsions:
REMARK  status: ('A' for Active; 'I' for Inactive)
REMARK    1  A    between atoms: C1_1  and  C2_2 
REMARK    2  A    between atoms: C4_4  and  N2_11 
REMARK    3  A    between atoms: C5_5  and  O1_9 
REMARK    4  A    between atoms: C7_7  and  N1_8 
REMARK    5  A    between atoms: O1_9  and  C8_10 
ROOT
ATOM      1  C2  <0> d           0.002  -0.004   0.002  0.00  0.00    -0.034 A 
ATOM      2  C3  <0> d           0.006  -0.688  -1.200  0.00  0.00    -0.047 A 
ATOM      3  C4  <0> d           0.024  -2.074  -1.210  0.00  0.00     0.060 A 
ATOM      4  C5  <0> d           0.039  -2.779  -0.007  0.00  0.00     0.096 A 
ATOM      5  C6  <0> d           0.036  -2.092   1.195  0.00  0.00    -0.023 A 
ATOM      6  C7  <0> d           0.023  -0.704   1.201  0.00  0.00     0.034 A 
ATOM      7  H4  <0> d          -0.006  -0.142  -2.131  0.00  0.00     0.088 H 
ATOM      8  H5  <0> d           0.048  -2.637   2.128  0.00  0.00     0.091 H 
ENDROOT
BRANCH   4   9
ATOM      9  O1  <0> d           0.057  -4.138  -0.015  0.00  0.00    -0.354 OA
BRANCH   9  10
ATOM     10  C8  <0> d           0.072  -4.794   1.254  0.00  0.00     0.010 C 
ATOM     11  H8  <0> d          -0.819  -4.516   1.817  0.00  0.00     0.066 H 
ATOM     12  H9  <0> d           0.085  -5.874   1.105  0.00  0.00     0.066 H 
ATOM     13  H10 <0> d           0.961  -4.493   1.808  0.00  0.00     0.066 H 
ENDBRANCH   9  10
ENDBRANCH   4   9
BRANCH   3  14
ATOM     14  N2  <0> d           0.027  -2.767  -2.429  0.00  0.00    -0.397 N 
ATOM     15  H11 <0> d           0.016  -2.276  -3.266  0.00  0.00     0.156 HD
ATOM     16  H12 <0> d           0.040  -3.737  -2.436  0.00  0.00     0.156 HD
ENDBRANCH   3  14
BRANCH   6  17
ATOM     17  N1  <0> d           0.025  -0.009   2.416  0.00  0.00    -0.399 N 
ATOM     18  H6  <0> d           0.012   0.961   2.421  0.00  0.00     0.156 HD
ATOM     19  H7  <0> d           0.040  -0.498   3.254  0.00  0.00     0.156 HD
ENDBRANCH   6  17
BRANCH   1  20
ATOM     20  C1  <0> d          -0.018   1.503   0.010  0.00  0.00    -0.049 C 
ATOM     21  H1  <0> d           1.004   1.880   0.003  0.00  0.00     0.033 H 
ATOM     22  H2  <0> d          -0.545   1.864  -0.873  0.00  0.00     0.033 H 
ATOM     23  H3  <0> d          -0.529   1.854   0.907  0.00  0.00     0.033 H 
ENDBRANCH   1  20
TORSDOF 5
