REMARK  0 active torsions:
REMARK  status: ('A' for Active; 'I' for Inactive)
ROOT
ATOM      1  C1  <0> d           1.257   1.814  -0.000  0.00  0.00     0.020 A 
ATOM      2  C2  <0> d          -0.017   1.388   0.010  0.00  0.00     0.004 A 
ATOM      3  N1  <0> d           0.002  -0.004   0.002  0.00  0.00    -0.310 N 
ATOM      4  C3  <0> d          -0.901  -1.045   0.005  0.00  0.00    -0.007 A 
ATOM      5  C4  <0> d          -0.484  -2.310  -0.006  0.00  0.00    -0.026 A 
ATOM      6  S1  <0> d           1.291  -2.113  -0.022  0.00  0.00    -0.062 SA
ATOM      7  C5  <0> d           1.331  -0.336  -0.013  0.00  0.00     0.176 A 
ATOM      8  N2  <0> d           2.063   0.741  -0.014  0.00  0.00    -0.235 NA
ATOM      9  H1  <0> d           1.578   2.845   0.002  0.00  0.00     0.117 H 
ATOM     10  H2  <0> d          -0.897   2.013   0.017  0.00  0.00     0.114 H 
ATOM     11  H3  <0> d          -1.960  -0.832   0.016  0.00  0.00     0.113 H 
ATOM     12  H4  <0> d          -1.067  -3.219  -0.005  0.00  0.00     0.097 H 
ENDROOT
TORSDOF 0
