REMARK  1 active torsions:
REMARK  status: ('A' for Active; 'I' for Inactive)
REMARK    1  A    between atoms: C2_2  and  C3_3 
ROOT
ATOM      1  C1  <0> d           0.018  -1.178  -0.004  0.00  0.00    -0.149 C 
ATOM      2  C2  <0> d           0.002  -0.004   0.002  0.00  0.00    -0.078 C 
ATOM      3  H2  <0> d           0.032  -2.228  -0.010  0.00  0.00     0.166 H 
ENDROOT
BRANCH   2   4
ATOM      4  C3  <0> d          -0.017   1.428   0.010  0.00  0.00     0.017 A 
ATOM      5  C8  <0> d           1.177   2.138   0.002  0.00  0.00    -0.053 A 
ATOM      6  C7  <0> d           1.144   3.532   0.005  0.00  0.00    -0.007 A 
ATOM      7  H5  <0> d           2.122   1.616  -0.009  0.00  0.00     0.087 H 
ATOM      8  C6  <0> d          -0.091   4.207   0.027  0.00  0.00     0.042 A 
ATOM      9  C9  <0> d           2.175   4.574  -0.004  0.00  0.00    -0.056 A 
ATOM     10  C5  <0> d          -1.275   3.475   0.039  0.00  0.00    -0.055 A 
ATOM     11  N1  <0> d           0.184   5.556   0.030  0.00  0.00    -0.365 N 
ATOM     12  C4  <0> d          -1.240   2.111   0.031  0.00  0.00    -0.063 A 
ATOM     13  H4  <0> d          -2.225   3.988   0.055  0.00  0.00     0.087 H 
ATOM     14  H3  <0> d          -2.164   1.552   0.041  0.00  0.00     0.085 H 
ATOM     15  C10 <0> d           1.538   5.755   0.012  0.00  0.00    -0.022 A 
ATOM     16  H1  <0> d          -0.482   6.261   0.044  0.00  0.00     0.165 HD
ATOM     17  H7  <0> d           2.022   6.721   0.011  0.00  0.00     0.111 H 
ATOM     18  H6  <0> d           3.244   4.420  -0.019  0.00  0.00     0.086 H 
ENDBRANCH   2   4
TORSDOF 1
