REMARK  2 active torsions:
REMARK  status: ('A' for Active; 'I' for Inactive)
REMARK    1  A    between atoms: C1_1  and  O1_2 
REMARK    2  A    between atoms: O1_2  and  C2_3 
REMARK       I    between atoms: C2_3  and  N1_5 
ROOT
ATOM      1  C2  <0> d          -0.016   1.342   0.009  0.00  0.00     0.362 C 
ATOM      2  O2  <0> d           1.028   1.964   0.003  0.00  0.00    -0.238 OA
ATOM      3  N1  <0> d          -1.192   2.000   0.019  0.00  0.00    -0.328 N 
ATOM      4  C3  <0> d          -2.523   1.376   0.015  0.00  0.00    -0.000 C 
ATOM      5  C4  <0> d          -3.564   2.515   0.004  0.00  0.00    -0.049 C 
ATOM      6  C5  <0> d          -2.762   3.709  -0.578  0.00  0.00    -0.049 C 
ATOM      7  C6  <0> d          -1.357   3.465   0.027  0.00  0.00    -0.000 C 
ATOM      8  H4  <0> d          -2.631   0.746  -0.880  0.00  0.00     0.064 H 
ATOM      9  H5  <0> d          -2.640   0.755   0.916  0.00  0.00     0.064 H 
ATOM     10  H6  <0> d          -4.416   2.228  -0.630  0.00  0.00     0.035 H 
ATOM     11  H7  <0> d          -3.916   2.700   1.029  0.00  0.00     0.035 H 
ATOM     12  H8  <0> d          -2.777   3.660  -1.677  0.00  0.00     0.035 H 
ATOM     13  H9  <0> d          -3.219   4.654  -0.247  0.00  0.00     0.035 H 
ATOM     14  H10 <0> d          -1.289   3.836   1.061  0.00  0.00     0.064 H 
ATOM     15  H11 <0> d          -0.566   3.927  -0.581  0.00  0.00     0.064 H 
ENDROOT
BRANCH   1  16
ATOM     16  O1  <0> d           0.002  -0.004   0.002  0.00  0.00    -0.309 OA
BRANCH  16  17
ATOM     17  C1  <0> d           1.305  -0.646  -0.014  0.00  0.00     0.015 C 
ATOM     18  H1  <0> d           1.175  -1.738  -0.018  0.00  0.00     0.067 H 
ATOM     19  H2  <0> d           1.871  -0.347   0.880  0.00  0.00     0.067 H 
ATOM     20  H3  <0> d           1.854  -0.338  -0.916  0.00  0.00     0.067 H 
ENDBRANCH  16  17
ENDBRANCH   1  16
TORSDOF 2
