REMARK  0 active torsions:
REMARK  status: ('A' for Active; 'I' for Inactive)
ROOT
ATOM      1  C1  <0> d          -0.016   1.314   0.009  0.00  0.00     0.088 A 
ATOM      2  N1  <0> d           1.094   2.024   0.003  0.00  0.00    -0.246 NA
ATOM      3  C2  <0> d           2.279   1.432  -0.012  0.00  0.00     0.045 A 
ATOM      4  C3  <0> d           2.338   0.050  -0.020  0.00  0.00     0.007 A 
ATOM      5  C4  <0> d           1.150  -0.666  -0.013  0.00  0.00     0.135 A 
ATOM      6  N2  <0> d           0.002  -0.004   0.002  0.00  0.00    -0.229 NA
ATOM      7 Cl1  <0> d           1.166  -2.402  -0.023  0.00  0.00    -0.062 Cl
ATOM      8  C5  <0> d           3.780  -0.403  -0.037  0.00  0.00    -0.036 C 
ATOM      9  C6  <0> d           4.587   0.838  -0.474  0.00  0.00    -0.056 C 
ATOM     10  C7  <0> d           3.679   2.002  -0.022  0.00  0.00    -0.024 C 
ATOM     11  H1  <0> d          -0.967   1.826   0.026  0.00  0.00     0.146 H 
ATOM     12  H2  <0> d           4.087  -0.723   0.959  0.00  0.00     0.040 H 
ATOM     13  H3  <0> d           3.913  -1.213  -0.753  0.00  0.00     0.040 H 
ATOM     14  H4  <0> d           5.548   0.875   0.039  0.00  0.00     0.034 H 
ATOM     15  H5  <0> d           4.723   0.851  -1.556  0.00  0.00     0.034 H 
ATOM     16  H6  <0> d           3.745   2.830  -0.728  0.00  0.00     0.042 H 
ATOM     17  H7  <0> d           3.959   2.334   0.978  0.00  0.00     0.042 H 
ENDROOT
TORSDOF 0
