REMARK  2 active torsions:
REMARK  status: ('A' for Active; 'I' for Inactive)
REMARK    1  A    between atoms: C4_5  and  C5_6 
REMARK    2  A    between atoms: C5_6  and  C6_8 
ROOT
ATOM      1  C6  <0> d           1.280   1.981   0.001  0.00  0.00     0.074 C 
ATOM      2  C7  <0> d           2.412   1.039  -0.015  0.00  0.00     0.067 C 
ATOM      3  N1  <0> d           3.285   0.313  -0.028  0.00  0.00    -0.197 NA
ATOM      4  H4  <0> d           1.318   2.561  -0.813  0.00  0.00     0.067 H 
ATOM      5  H5  <0> d           1.338   2.603   0.893  0.00  0.00     0.067 H 
ENDROOT
BRANCH   1   6
ATOM      6  C5  <0> d          -0.014   1.209   0.009  0.00  0.00     0.172 C 
ATOM      7  O1  <0> d           0.002  -0.004   0.002  0.00  0.00    -0.291 OA
BRANCH   6   8
ATOM      8  C4  <0> d          -1.292   1.924   0.019  0.00  0.00     0.018 A 
ATOM      9  C1  <0> d          -2.551   1.219   0.015  0.00  0.00    -0.063 A 
ATOM     10  C2  <0> d          -3.671   1.966   0.030  0.00  0.00    -0.044 A 
ATOM     11  H1  <0> d          -2.594   0.140   0.005  0.00  0.00     0.085 H 
ATOM     12  S1  <0> d          -3.048   3.634   0.035  0.00  0.00    -0.113 SA
ATOM     13  H2  <0> d          -4.699   1.633   0.033  0.00  0.00     0.095 H 
ATOM     14  C3  <0> d          -1.348   3.307   0.026  0.00  0.00    -0.032 A 
ATOM     15  H3  <0> d          -0.530   4.011   0.025  0.00  0.00     0.096 H 
ENDBRANCH   6   8
ENDBRANCH   1   6
TORSDOF 2
