REMARK  1 active torsions:
REMARK  status: ('A' for Active; 'I' for Inactive)
REMARK    1  A    between atoms: C1_1  and  C2_2 
ROOT
ATOM      1  C2  <0> d           1.319  -0.312  -0.012  0.00  0.00     0.078 A 
ATOM      2  C3  <0> d           0.002  -0.004   0.002  0.00  0.00    -0.012 A 
ATOM      3  C4  <0> d          -0.017   1.420   0.010  0.00  0.00     0.166 A 
ATOM      4  N1  <0> d           1.237   1.800  -0.000  0.00  0.00    -0.117 NA
ATOM      5  O1  <0> d           1.986   0.851  -0.012  0.00  0.00    -0.217 OA
ATOM      6  C5  <0> d          -1.173   2.265   0.020  0.00  0.00     0.122 C 
ATOM      7  N2  <0> d          -2.090   2.935   0.028  0.00  0.00    -0.190 NA
ATOM      8  H4  <0> d          -0.839  -0.681   0.006  0.00  0.00     0.092 H 
ENDROOT
BRANCH   1   9
ATOM      9  C1  <0> d           1.920  -1.694  -0.025  0.00  0.00    -0.029 C 
ATOM     10  H1  <0> d           2.055  -2.021  -1.056  0.00  0.00     0.036 H 
ATOM     11  H2  <0> d           2.886  -1.674   0.479  0.00  0.00     0.036 H 
ATOM     12  H3  <0> d           1.254  -2.384   0.491  0.00  0.00     0.036 H 
ENDBRANCH   1   9
TORSDOF 1
