REMARK  3 active torsions:
REMARK  status: ('A' for Active; 'I' for Inactive)
REMARK    1  A    between atoms: C1_1  and  C2_2 
REMARK    2  A    between atoms: C4_5  and  C7_11 
REMARK    3  A    between atoms: C5_7  and  O1_10 
ROOT
ATOM      1  C2  <0> d           1.593   2.458   1.290  0.00  0.00    -0.055 C 
ATOM      2  H1  <0> d           1.399   3.513   1.096  0.00  0.00     0.039 H 
ATOM      3  C3  <0> d           1.426   1.633  -0.003  0.00  0.00    -0.057 C 
ATOM      4  C4  <0> d          -0.013   1.086   0.008  0.00  0.00    -0.032 C 
ATOM      5  H2  <0> d           0.002  -0.004   0.002  0.00  0.00     0.043 H 
ATOM      6  C5  <0> d          -0.669   1.598   1.307  0.00  0.00     0.039 C 
ATOM      7  H3  <0> d          -1.321   0.835   1.732  0.00  0.00     0.083 H 
ATOM      8  C6  <0> d           0.526   1.879   2.251  0.00  0.00    -0.038 C 
ATOM      9  H7  <0> d           2.138   0.808  -0.014  0.00  0.00     0.034 H 
ATOM     10  H8  <0> d           1.577   2.268  -0.875  0.00  0.00     0.034 H 
ATOM     11  H9  <0> d           0.880   0.956   2.711  0.00  0.00     0.037 H 
ATOM     12  H10 <0> d           0.256   2.610   3.014  0.00  0.00     0.037 H 
ENDROOT
BRANCH   1  13
ATOM     13  C1  <0> d           2.996   2.267   1.869  0.00  0.00    -0.073 C 
ATOM     14  H4  <0> d           3.738   2.595   1.141  0.00  0.00     0.028 H 
ATOM     15  H5  <0> d           3.096   2.857   2.780  0.00  0.00     0.028 H 
ATOM     16  H6  <0> d           3.154   1.213   2.099  0.00  0.00     0.028 H 
ENDBRANCH   1  13
BRANCH   6  17
ATOM     17  O1  <0> d          -1.402   2.799   1.056  0.00  0.00    -0.395 OA
ATOM     18  H11 <0> d          -1.835   3.166   1.839  0.00  0.00     0.210 HD
ENDBRANCH   6  17
BRANCH   4  19
ATOM     19  C7  <0> d          -0.780   1.606  -1.209  0.00  0.00    -0.071 C 
ATOM     20  H12 <0> d          -0.287   1.269  -2.121  0.00  0.00     0.028 H 
ATOM     21  H13 <0> d          -1.801   1.223  -1.186  0.00  0.00     0.028 H 
ATOM     22  H14 <0> d          -0.800   2.696  -1.188  0.00  0.00     0.028 H 
ENDBRANCH   4  19
TORSDOF 3
