REMARK  1 active torsions:
REMARK  status: ('A' for Active; 'I' for Inactive)
REMARK    1  A    between atoms: C2_2  and  C3_3 
ROOT
ATOM      1  C3  <0> d           1.292  -0.726  -0.014  0.00  0.00     0.002 A 
ATOM      2  C4  <0> d           2.493  -0.015  -0.016  0.00  0.00    -0.070 A 
ATOM      3  C5  <0> d           3.693  -0.694  -0.031  0.00  0.00    -0.082 A 
ATOM      4  C6  <0> d           3.710  -2.078  -0.044  0.00  0.00    -0.080 A 
ATOM      5  C7  <0> d           2.525  -2.790  -0.042  0.00  0.00    -0.045 A 
ATOM      6  C8  <0> d           1.314  -2.123  -0.022  0.00  0.00     0.126 A 
ATOM      7  F1  <0> d           0.157  -2.819  -0.015  0.00  0.00    -0.205 F 
ATOM      8  H4  <0> d           2.482   1.065  -0.006  0.00  0.00     0.084 H 
ATOM      9  H5  <0> d           4.623  -0.144  -0.032  0.00  0.00     0.083 H 
ATOM     10  H6  <0> d           4.653  -2.603  -0.055  0.00  0.00     0.083 H 
ATOM     11  H7  <0> d           2.545  -3.870  -0.053  0.00  0.00     0.088 H 
ENDROOT
BRANCH   1  12
ATOM     12  C2  <0> d           0.002  -0.004   0.002  0.00  0.00    -0.079 C 
ATOM     13  C1  <0> d          -0.016   1.322   0.009  0.00  0.00    -0.120 C 
ATOM     14  H1  <0> d           0.912   1.874   0.003  0.00  0.00     0.066 H 
ATOM     15  H2  <0> d          -0.958   1.849   0.017  0.00  0.00     0.066 H 
ATOM     16  H3  <0> d          -0.926  -0.557   0.008  0.00  0.00     0.083 H 
ENDBRANCH   1  12
TORSDOF 1
