REMARK  2 active torsions:
REMARK  status: ('A' for Active; 'I' for Inactive)
REMARK    1  A    between atoms: C1_1  and  C2_2 
REMARK    2  A    between atoms: C3_3  and  C5_7 
ROOT
ATOM      1  C2  <0> d          -0.738   3.125   0.025  0.00  0.00     0.086 A 
ATOM      2  C3  <0> d           0.623   3.139   0.013  0.00  0.00     0.164 A 
ATOM      3  N1  <0> d           1.036   1.842   0.002  0.00  0.00    -0.227 NA
ATOM      4  C4  <0> d          -0.013   1.076   0.008  0.00  0.00     0.104 A 
ATOM      5  O1  <0> d          -1.116   1.837   0.017  0.00  0.00    -0.306 OA
ATOM      6  H4  <0> d           0.002  -0.004   0.002  0.00  0.00     0.155 H 
ENDROOT
BRANCH   1   7
ATOM      7  C1  <0> d          -1.648   4.326   0.040  0.00  0.00    -0.029 C 
ATOM      8  H1  <0> d          -1.877   4.621  -0.985  0.00  0.00     0.036 H 
ATOM      9  H2  <0> d          -2.572   4.076   0.561  0.00  0.00     0.036 H 
ATOM     10  H3  <0> d          -1.153   5.151   0.553  0.00  0.00     0.036 H 
ENDBRANCH   1   7
BRANCH   2  11
ATOM     11  C5  <0> d           1.486   4.332   0.010  0.00  0.00     0.231 C 
ATOM     12  O2  <0> d           0.989   5.441   0.020  0.00  0.00    -0.643 OA
ATOM     13  O3  <0> d           2.827   4.195  -0.004  0.00  0.00    -0.643 OA
ENDBRANCH   2  11
TORSDOF 2
