REMARK  3 active torsions:
REMARK  status: ('A' for Active; 'I' for Inactive)
REMARK    1  A    between atoms: C1_1  and  C2_2 
REMARK    2  A    between atoms: C2_2  and  C3_3 
REMARK    3  A    between atoms: C5_5  and  N3_9 
ROOT
ATOM      1  C3  <0> d           0.000   1.080   2.488  0.00  0.00     0.031 A 
ATOM      2  C4  <0> d           1.065   1.670   3.076  0.00  0.00    -0.014 A 
ATOM      3  C5  <0> d           1.437   0.886   4.180  0.00  0.00     0.143 A 
ATOM      4  N1  <0> d           0.619  -0.138   4.245  0.00  0.00    -0.157 NA
ATOM      5  N2  <0> d          -0.298  -0.032   3.192  0.00  0.00    -0.280 N 
ATOM      6  H1  <0> d          -1.043  -0.669   2.995  0.00  0.00     0.189 HD
ATOM      7  H7  <0> d           1.545   2.583   2.754  0.00  0.00     0.092 H 
ENDROOT
BRANCH   1   8
ATOM      8  C2  <0> d          -0.729   1.579   1.267  0.00  0.00    -0.029 C 
ATOM      9  H5  <0> d          -0.744   2.669   1.273  0.00  0.00     0.041 H 
ATOM     10  H6  <0> d          -1.751   1.202   1.275  0.00  0.00     0.041 H 
BRANCH   8  11
ATOM     11  C1  <0> d          -0.013   1.086   0.008  0.00  0.00    -0.071 C 
ATOM     12  H2  <0> d           0.002  -0.004   0.002  0.00  0.00     0.028 H 
ATOM     13  H3  <0> d           1.010   1.463   0.000  0.00  0.00     0.028 H 
ATOM     14  H4  <0> d          -0.540   1.447  -0.875  0.00  0.00     0.028 H 
ENDBRANCH   8  11
ENDBRANCH   1   8
BRANCH   3  15
ATOM     15  N3  <0> d           2.496   1.150   5.057  0.00  0.00    -0.383 N 
ATOM     16  H8  <0> d           3.049   1.936   4.927  0.00  0.00     0.157 HD
ATOM     17  H9  <0> d           2.676   0.547   5.795  0.00  0.00     0.157 HD
ENDBRANCH   3  15
TORSDOF 3
