REMARK  7 active torsions:
REMARK  status: ('A' for Active; 'I' for Inactive)
REMARK    1  A    between atoms: C1_1  and  C2_2 
REMARK    2  A    between atoms: C2_2  and  O1_3 
REMARK    3  A    between atoms: O1_3  and  C3_4 
REMARK    4  A    between atoms: C5_7  and  C6_9 
REMARK    5  A    between atoms: C6_9  and  O3_11 
REMARK    6  A    between atoms: O3_11  and  C7_12 
REMARK    7  A    between atoms: C7_12  and  C8_13 
ROOT
ATOM      1  C3  <0> d          -2.095   5.749   3.613  0.00  0.00     0.051 A 
ATOM      2  H1  <0> d          -2.822   5.426   4.373  0.00  0.00     0.084 H 
ATOM      3  C4  <0> d          -0.572   5.816   3.482  0.00  0.00    -0.026 A 
ATOM      4  C5  <0> d          -1.404   5.131   2.397  0.00  0.00     0.058 A 
ATOM      5  H2  <0> d          -1.502   5.229   1.305  0.00  0.00     0.059 H 
ATOM      6  H8  <0> d          -0.251   6.868   3.464  0.00  0.00     0.038 H 
ATOM      7  H9  <0> d          -0.107   5.306   4.339  0.00  0.00     0.038 H 
ENDROOT
BRANCH   4   8
ATOM      8  C6  <0> d          -1.345   3.627   2.320  0.00  0.00     0.265 C 
ATOM      9  O2  <0> d          -1.834   2.957   3.198  0.00  0.00    -0.265 OA
BRANCH   8  10
ATOM     10  O3  <0> d          -0.749   3.031   1.275  0.00  0.00    -0.321 OA
BRANCH  10  11
ATOM     11  C7  <0> d          -0.729   1.579   1.267  0.00  0.00     0.025 C 
ATOM     12  H10 <0> d          -0.197   1.215   2.158  0.00  0.00     0.074 H 
ATOM     13  H11 <0> d          -1.761   1.198   1.275  0.00  0.00     0.074 H 
BRANCH  11  14
ATOM     14  C8  <0> d          -0.013   1.086   0.008  0.00  0.00    -0.056 C 
ATOM     15  H12 <0> d           0.002  -0.014   0.002  0.00  0.00     0.030 H 
ATOM     16  H13 <0> d           1.019   1.467   0.000  0.00  0.00     0.030 H 
ATOM     17  H14 <0> d          -0.545   1.450  -0.883  0.00  0.00     0.030 H 
ENDBRANCH  11  14
ENDBRANCH  10  11
ENDBRANCH   8  10
ENDBRANCH   4   8
BRANCH   1  18
ATOM     18  O1  <0> d          -2.828   6.959   3.411  0.00  0.00    -0.385 OA
BRANCH  18  19
ATOM     19  C2  <0> d          -3.938   7.121   4.297  0.00  0.00     0.017 C 
ATOM     20  H6  <0> d          -3.579   7.128   5.337  0.00  0.00     0.073 H 
ATOM     21  H7  <0> d          -4.643   6.287   4.158  0.00  0.00     0.073 H 
BRANCH  19  22
ATOM     22  C1  <0> d          -4.645   8.443   3.992  0.00  0.00    -0.056 C 
ATOM     23  H3  <0> d          -5.500   8.567   4.674  0.00  0.00     0.030 H 
ATOM     24  H4  <0> d          -5.004   8.435   2.952  0.00  0.00     0.030 H 
ATOM     25  H5  <0> d          -3.941   9.276   4.131  0.00  0.00     0.030 H 
ENDBRANCH  19  22
ENDBRANCH  18  19
ENDBRANCH   1  18
TORSDOF 7
