REMARK  2 active torsions:
REMARK  status: ('A' for Active; 'I' for Inactive)
REMARK    1  A    between atoms: C1_1  and  N1_2 
REMARK    2  A    between atoms: C2_3  and  O1_4 
ROOT
ATOM      1  N1  <0> d           0.002  -0.004   0.002  0.00  0.00    -0.253 N 
ATOM      2  C2  <0> d           0.008  -0.793  -1.095  0.00  0.00     0.159 A 
ATOM      3  C3  <0> d           0.027  -2.085  -0.673  0.00  0.00    -0.014 A 
ATOM      4  C4  <0> d           0.034  -2.078   0.726  0.00  0.00     0.026 A 
ATOM      5  N2  <0> d           0.025  -0.834   1.130  0.00  0.00    -0.183 NA
ATOM      6  H4  <0> d           0.036  -2.961  -1.304  0.00  0.00     0.092 H 
ATOM      7  H5  <0> d           0.048  -2.950   1.362  0.00  0.00     0.117 H 
ENDROOT
BRANCH   1   8
ATOM      8  C1  <0> d          -0.018   1.461   0.010  0.00  0.00     0.005 C 
ATOM      9  H1  <0> d           1.005   1.838   0.002  0.00  0.00     0.059 H 
ATOM     10  H2  <0> d          -0.545   1.822  -0.873  0.00  0.00     0.059 H 
ATOM     11  H3  <0> d          -0.528   1.812   0.907  0.00  0.00     0.059 H 
ENDBRANCH   1   8
BRANCH   2  12
ATOM     12  O1  <0> d          -0.004  -0.372  -2.386  0.00  0.00    -0.345 OA
ATOM     13  H6  <0> d           0.876  -0.238  -2.763  0.00  0.00     0.219 HD
ENDBRANCH   2  12
TORSDOF 2
