REMARK  7 active torsions:
REMARK  status: ('A' for Active; 'I' for Inactive)
REMARK    1  A    between atoms: C2_2  and  C3_3 
REMARK    2  A    between atoms: C3_3  and  C4_4 
REMARK    3  A    between atoms: C4_4  and  C5_5 
REMARK    4  A    between atoms: C5_5  and  C6_6 
REMARK    5  A    between atoms: C6_6  and  C7_7 
REMARK    6  A    between atoms: C7_7  and  C8_8 
REMARK    7  A    between atoms: C8_8  and  O1_9 
ROOT
ATOM      1  C1  <0> d           6.042   8.524  -0.010  0.00  0.00    -0.154 C 
ATOM      2  C2  <0> d           4.977   8.031  -0.002  0.00  0.00    -0.117 C 
ATOM      3  H1  <0> d           6.996   8.964  -0.017  0.00  0.00     0.166 H 
ENDROOT
BRANCH   2   4
ATOM      4  C3  <0> d           3.640   7.415   0.007  0.00  0.00    -0.010 C 
ATOM      5  H2  <0> d           3.086   7.734  -0.876  0.00  0.00     0.051 H 
ATOM      6  H3  <0> d           3.103   7.724   0.904  0.00  0.00     0.051 H 
BRANCH   4   7
ATOM      7  C4  <0> d           3.782   5.891  -0.002  0.00  0.00    -0.056 C 
ATOM      8  H4  <0> d           4.335   5.572   0.881  0.00  0.00     0.034 H 
ATOM      9  H5  <0> d           4.318   5.582  -0.899  0.00  0.00     0.034 H 
BRANCH   7  10
ATOM     10  C5  <0> d           2.393   5.250   0.007  0.00  0.00    -0.064 C 
ATOM     11  H6  <0> d           1.839   5.569  -0.876  0.00  0.00     0.033 H 
ATOM     12  H7  <0> d           1.856   5.559   0.904  0.00  0.00     0.033 H 
BRANCH  10  13
ATOM     13  C6  <0> d           2.534   3.726  -0.002  0.00  0.00    -0.063 C 
ATOM     14  H8  <0> d           3.088   3.407   0.881  0.00  0.00     0.033 H 
ATOM     15  H9  <0> d           3.071   3.417  -0.899  0.00  0.00     0.033 H 
BRANCH  13  16
ATOM     16  C7  <0> d           1.145   3.085   0.008  0.00  0.00    -0.045 C 
ATOM     17  H10 <0> d           0.591   3.404  -0.875  0.00  0.00     0.036 H 
ATOM     18  H11 <0> d           0.608   3.395   0.904  0.00  0.00     0.036 H 
BRANCH  16  19
ATOM     19  C8  <0> d           1.286   1.562  -0.002  0.00  0.00     0.017 C 
ATOM     20  H12 <0> d           1.840   1.243   0.881  0.00  0.00     0.073 H 
ATOM     21  H13 <0> d           1.823   1.252  -0.899  0.00  0.00     0.073 H 
BRANCH  19  22
ATOM     22  O1  <0> d          -0.011   0.963   0.007  0.00  0.00    -0.401 OA
ATOM     23  H14 <0> d           0.002  -0.004   0.002  0.00  0.00     0.209 HD
ENDBRANCH  19  22
ENDBRANCH  16  19
ENDBRANCH  13  16
ENDBRANCH  10  13
ENDBRANCH   7  10
ENDBRANCH   4   7
ENDBRANCH   2   4
TORSDOF 7
