REMARK  3 active torsions:
REMARK  status: ('A' for Active; 'I' for Inactive)
REMARK    1  A    between atoms: C5_5  and  N1_7 
REMARK    2  A    between atoms: N1_7  and  C7_8 
REMARK    3  A    between atoms: C7_8  and  C8_9 
ROOT
ATOM      1  C1  <0> d          -0.013   1.086   0.008  0.00  0.00    -0.045 C 
ATOM      2  C2  <0> d          -0.737   1.583  -1.215  0.00  0.00    -0.103 C 
ATOM      3  C3  <0> d          -2.063   1.696  -1.210  0.00  0.00    -0.085 C 
ATOM      4  C4  <0> d          -2.821   1.338  -0.004  0.00  0.00    -0.062 C 
ATOM      5  C5  <0> d          -2.195   1.277   1.179  0.00  0.00     0.005 C 
ATOM      6  C6  <0> d          -0.724   1.577   1.268  0.00  0.00    -0.024 C 
ATOM      7  H1  <0> d           0.002  -0.004   0.002  0.00  0.00     0.039 H 
ATOM      8  H2  <0> d           1.010   1.462   0.000  0.00  0.00     0.039 H 
ATOM      9  H3  <0> d          -0.178   1.848  -2.100  0.00  0.00     0.076 H 
ATOM     10  H4  <0> d          -2.579   2.050  -2.090  0.00  0.00     0.083 H 
ATOM     11  H5  <0> d          -3.878   1.126  -0.071  0.00  0.00     0.086 H 
ATOM     12  H7  <0> d          -0.306   1.072   2.140  0.00  0.00     0.042 H 
ATOM     13  H8  <0> d          -0.579   2.652   1.371  0.00  0.00     0.042 H 
ENDROOT
BRANCH   5  14
ATOM     14  N1  <0> d          -2.901   0.939   2.317  0.00  0.00    -0.383 N 
ATOM     15  H6  <0> d          -2.449   0.894   3.174  0.00  0.00     0.160 HD
BRANCH  14  16
ATOM     16  C7  <0> d          -4.334   0.647   2.230  0.00  0.00     0.072 C 
ATOM     17  H9  <0> d          -4.860   1.520   1.844  0.00  0.00     0.080 H 
ATOM     18  H10 <0> d          -4.493  -0.199   1.560  0.00  0.00     0.080 H 
BRANCH  16  19
ATOM     19  C8  <0> d          -4.862   0.308   3.600  0.00  0.00     0.191 C 
ATOM     20  O1  <0> d          -4.111   0.311   4.561  0.00  0.00    -0.647 OA
ATOM     21  O2  <0> d          -6.041   0.032   3.748  0.00  0.00    -0.647 OA
ENDBRANCH  16  19
ENDBRANCH  14  16
ENDBRANCH   5  14
TORSDOF 3
