REMARK  1 active torsions:
REMARK  status: ('A' for Active; 'I' for Inactive)
REMARK    1  A    between atoms: C1_1  and  C2_2 
ROOT
ATOM      1  C2  <0> d           3.299  -1.681  -0.038  0.00  0.00     0.123 A 
ATOM      2  C3  <0> d           4.078  -0.437  -0.038  0.00  0.00     0.309 A 
ATOM      3  O1  <0> d           5.294  -0.474  -0.050  0.00  0.00    -0.263 OA
ATOM      4  N1  <0> d           3.433   0.749  -0.026  0.00  0.00    -0.015 NA
ATOM      5  C4  <0> d           2.059   0.776  -0.013  0.00  0.00     0.791 A 
ATOM      6  N2  <0> d           1.181   1.756   0.000  0.00  0.00     0.069 NA
ATOM      7  N3  <0> d          -0.015   1.286   0.009  0.00  0.00    -0.006 NA
ATOM      8  N4  <0> d           0.002  -0.004   0.002  0.00  0.00    -0.007 NA
ATOM      9  N5  <0> d           1.351  -0.389  -0.013  0.00  0.00     0.052 N 
ATOM     10  N6  <0> d           1.998  -1.625  -0.026  0.00  0.00    -0.132 NA
ENDROOT
BRANCH   1  11
ATOM     11  C1  <0> d           4.001  -3.015  -0.051  0.00  0.00    -0.028 C 
ATOM     12  H1  <0> d           5.089  -2.857  -0.059  0.00  0.00     0.036 H 
ATOM     13  H2  <0> d           3.705  -3.576  -0.949  0.00  0.00     0.036 H 
ATOM     14  H3  <0> d           3.720  -3.586   0.847  0.00  0.00     0.036 H 
ENDBRANCH   1  11
TORSDOF 1
