REMARK  5 active torsions:
REMARK  status: ('A' for Active; 'I' for Inactive)
REMARK    1  A    between atoms: C1_1  and  C2_2 
REMARK    2  A    between atoms: C2_2  and  O1_8 
REMARK    3  A    between atoms: O1_8  and  C8_9 
REMARK    4  A    between atoms: C8_9  and  C9_10 
REMARK    5  A    between atoms: C9_10  and  O2_11 
ROOT
ATOM      1  C2  <0> d           0.002  -0.004   0.002  0.00  0.00     0.057 C 
ATOM      2  C3  <0> d          -1.433  -0.534   0.013  0.00  0.00    -0.036 C 
ATOM      3  C4  <0> d          -1.413  -2.063   0.004  0.00  0.00    -0.062 C 
ATOM      4  C5  <0> d          -0.673  -2.570   1.244  0.00  0.00    -0.065 C 
ATOM      5  C6  <0> d           0.763  -2.041   1.233  0.00  0.00    -0.062 C 
ATOM      6  C7  <0> d           0.742  -0.511   1.242  0.00  0.00    -0.036 C 
ATOM      7  H4  <0> d          -1.944  -0.182   0.910  0.00  0.00     0.037 H 
ATOM      8  H5  <0> d          -1.960  -0.173  -0.870  0.00  0.00     0.037 H 
ATOM      9  H6  <0> d          -2.435  -2.441   0.012  0.00  0.00     0.033 H 
ATOM     10  H7  <0> d          -0.902  -2.415  -0.892  0.00  0.00     0.033 H 
ATOM     11  H8  <0> d          -1.183  -2.219   2.141  0.00  0.00     0.033 H 
ATOM     12  H9  <0> d          -0.658  -3.660   1.238  0.00  0.00     0.033 H 
ATOM     13  H10 <0> d           1.290  -2.402   2.116  0.00  0.00     0.033 H 
ATOM     14  H11 <0> d           1.273  -2.392   0.336  0.00  0.00     0.033 H 
ATOM     15  H12 <0> d           1.765  -0.134   1.234  0.00  0.00     0.037 H 
ATOM     16  H13 <0> d           0.232  -0.159   2.138  0.00  0.00     0.037 H 
ENDROOT
BRANCH   1  17
ATOM     17  C1  <0> d          -0.019   1.526   0.010  0.00  0.00    -0.048 C 
ATOM     18  H1  <0> d           1.004   1.903   0.003  0.00  0.00     0.031 H 
ATOM     19  H2  <0> d          -0.546   1.887  -0.873  0.00  0.00     0.031 H 
ATOM     20  H3  <0> d          -0.529   1.877   0.907  0.00  0.00     0.031 H 
ENDBRANCH   1  17
BRANCH   1  21
ATOM     21  O1  <0> d           0.671  -0.465  -1.174  0.00  0.00    -0.379 OA
BRANCH  21  22
ATOM     22  C8  <0> d           0.057  -0.045  -2.394  0.00  0.00     0.040 C 
ATOM     23  H14 <0> d          -0.964  -0.423  -2.436  0.00  0.00     0.077 H 
ATOM     24  H15 <0> d           0.044   1.044  -2.438  0.00  0.00     0.077 H 
BRANCH  22  25
ATOM     25  C9  <0> d           0.853  -0.593  -3.580  0.00  0.00     0.036 C 
ATOM     26  H16 <0> d           0.438  -0.200  -4.508  0.00  0.00     0.077 H 
ATOM     27  H17 <0> d           1.896  -0.288  -3.490  0.00  0.00     0.077 H 
BRANCH  25  28
ATOM     28  O2  <0> d           0.774  -2.020  -3.589  0.00  0.00    -0.399 OA
ATOM     29  H18 <0> d           1.256  -2.436  -4.316  0.00  0.00     0.209 HD
ENDBRANCH  25  28
ENDBRANCH  22  25
ENDBRANCH  21  22
ENDBRANCH   1  21
TORSDOF 5
