REMARK  2 active torsions:
REMARK  status: ('A' for Active; 'I' for Inactive)
REMARK    1  A    between atoms: C4_4  and  C7_7 
REMARK    2  A    between atoms: C7_7  and  C8_8 
ROOT
ATOM      1  C7  <0> d           3.711  -0.707  -0.039  0.00  0.00    -0.005 C 
ATOM      2  H6  <0> d           4.475  -0.105   0.475  0.00  0.00     0.049 H 
ATOM      3  H7  <0> d           3.598  -1.673   0.476  0.00  0.00     0.049 H 
ENDROOT
BRANCH   1   4
ATOM      4  C4  <0> d           2.396   0.029  -0.022  0.00  0.00    -0.053 A 
ATOM      5  C3  <0> d           2.377   1.411  -0.014  0.00  0.00    -0.076 A 
ATOM      6  C2  <0> d           1.171   2.086   0.002  0.00  0.00    -0.082 A 
ATOM      7  H3  <0> d           3.305   1.963  -0.019  0.00  0.00     0.084 H 
ATOM      8  C1  <0> d          -0.017   1.378   0.010  0.00  0.00    -0.083 A 
ATOM      9  H2  <0> d           1.156   3.165   0.008  0.00  0.00     0.083 H 
ATOM     10  C6  <0> d           0.002  -0.004   0.002  0.00  0.00    -0.082 A 
ATOM     11  H1  <0> d          -0.959   1.905   0.017  0.00  0.00     0.083 H 
ATOM     12  C5  <0> d           1.208  -0.679  -0.014  0.00  0.00    -0.076 A 
ATOM     13  H5  <0> d          -0.926  -0.557   0.008  0.00  0.00     0.083 H 
ATOM     14  H4  <0> d           1.223  -1.759  -0.020  0.00  0.00     0.084 H 
ENDBRANCH   1   4
BRANCH   1  15
ATOM     15  C8  <0> d           4.135  -0.945  -1.465  0.00  0.00     0.011 C 
ATOM     16  C11 <0> d           5.407  -1.656  -1.871  0.00  0.00    -0.027 C 
ATOM     17  C10 <0> d           5.580  -1.281  -3.363  0.00  0.00    -0.044 C 
ATOM     18  H12 <0> d           6.242  -1.296  -1.252  0.00  0.00     0.042 H 
ATOM     19  H13 <0> d           5.284  -2.740  -1.725  0.00  0.00     0.042 H 
ATOM     20  C9  <0> d           4.120  -0.941  -3.747  0.00  0.00     0.015 C 
ATOM     21  H10 <0> d           5.939  -2.112  -3.988  0.00  0.00     0.035 H 
ATOM     22  H11 <0> d           6.216  -0.399  -3.525  0.00  0.00     0.035 H 
ATOM     23  N1  <0> d           3.467  -0.578  -2.484  0.00  0.00    -0.298 NA
ATOM     24  H8  <0> d           3.606  -1.807  -4.190  0.00  0.00     0.067 H 
ATOM     25  H9  <0> d           4.072  -0.091  -4.443  0.00  0.00     0.067 H 
ENDBRANCH   1  15
TORSDOF 2
