REMARK  3 active torsions:
REMARK  status: ('A' for Active; 'I' for Inactive)
REMARK    1  A    between atoms: C1_1  and  C2_2 
REMARK    2  A    between atoms: C3_3  and  C5_7 
REMARK    3  A    between atoms: C5_7  and  O1_8 
ROOT
ATOM      1  C2  <0> d           2.299   0.023  -0.020  0.00  0.00     0.007 A 
ATOM      2  C3  <0> d           1.135  -0.676  -0.012  0.00  0.00     0.070 A 
ATOM      3  N1  <0> d           0.002  -0.004   0.002  0.00  0.00    -0.255 NA
ATOM      4  C4  <0> d          -0.016   1.309   0.009  0.00  0.00     0.041 A 
ATOM      5  S1  <0> d           1.677   1.698  -0.005  0.00  0.00    -0.086 SA
ATOM      6  H4  <0> d          -0.865   1.976   0.017  0.00  0.00     0.126 H 
ENDROOT
BRANCH   2   7
ATOM      7  C5  <0> d           1.138  -2.183  -0.020  0.00  0.00     0.057 C 
ATOM      8  H5  <0> d           2.042  -2.550   0.488  0.00  0.00     0.083 H 
ATOM      9  H6  <0> d           0.246  -2.554   0.505  0.00  0.00     0.083 H 
BRANCH   7  10
ATOM     10  O1  <0> d           1.127  -2.652  -1.370  0.00  0.00    -0.395 OA
ATOM     11  H7  <0> d           1.128  -3.733  -1.576  0.00  0.00     0.209 HD
ENDBRANCH   7  10
ENDBRANCH   2   7
BRANCH   1  12
ATOM     12  C1  <0> d           3.720  -0.476  -0.036  0.00  0.00    -0.043 C 
ATOM     13  H1  <0> d           3.723  -1.576  -0.042  0.00  0.00     0.034 H 
ATOM     14  H2  <0> d           4.247  -0.113   0.859  0.00  0.00     0.034 H 
ATOM     15  H3  <0> d           4.229  -0.104  -0.937  0.00  0.00     0.034 H 
ENDBRANCH   1  12
TORSDOF 3
