REMARK  4 active torsions:
REMARK  status: ('A' for Active; 'I' for Inactive)
REMARK    1  A    between atoms: C1_1  and  C2_2 
REMARK    2  A    between atoms: C2_2  and  C3_3 
REMARK    3  A    between atoms: C5_6  and  C8_10 
REMARK    4  A    between atoms: C6_7  and  C7_9 
ROOT
ATOM      1  C3  <0> d           0.731  -0.503   1.223  0.00  0.00     0.102 A 
ATOM      2  C4  <0> d           0.882  -1.892   1.439  0.00  0.00     0.270 A 
ATOM      3  N1  <0> d           1.539  -2.317   2.540  0.00  0.00    -0.324 N 
ATOM      4  C5  <0> d           2.038  -1.399   3.409  0.00  0.00     0.032 A 
ATOM      5  C6  <0> d           1.873  -0.075   3.169  0.00  0.00     0.053 A 
ATOM      6  N2  <0> d           1.231   0.349   2.083  0.00  0.00    -0.251 NA
ATOM      7  O1  <0> d           0.425  -2.695   0.643  0.00  0.00    -0.266 OA
ATOM      8  H12 <0> d           1.654  -3.266   2.708  0.00  0.00     0.169 HD
ENDROOT
BRANCH   1   9
ATOM      9  C2  <0> d           0.002  -0.004   0.002  0.00  0.00    -0.023 C 
ATOM     10  H4  <0> d          -1.020  -0.381   0.010  0.00  0.00     0.042 H 
ATOM     11  H5  <0> d           0.512  -0.356  -0.895  0.00  0.00     0.042 H 
BRANCH   9  12
ATOM     12  C1  <0> d          -0.019   1.526   0.010  0.00  0.00    -0.071 C 
ATOM     13  H1  <0> d           1.004   1.903   0.003  0.00  0.00     0.028 H 
ATOM     14  H2  <0> d          -0.546   1.887  -0.873  0.00  0.00     0.028 H 
ATOM     15  H3  <0> d          -0.529   1.877   0.907  0.00  0.00     0.028 H 
ENDBRANCH   9  12
ENDBRANCH   1   9
BRANCH   5  16
ATOM     16  C7  <0> d           2.429   0.932   4.142  0.00  0.00    -0.034 C 
ATOM     17  H6  <0> d           3.449   1.190   3.855  0.00  0.00     0.035 H 
ATOM     18  H7  <0> d           1.811   1.829   4.131  0.00  0.00     0.035 H 
ATOM     19  H8  <0> d           2.432   0.505   5.145  0.00  0.00     0.035 H 
ENDBRANCH   5  16
BRANCH   4  20
ATOM     20  C8  <0> d           2.774  -1.853   4.643  0.00  0.00    -0.035 C 
ATOM     21  H9  <0> d           2.806  -2.942   4.667  0.00  0.00     0.035 H 
ATOM     22  H10 <0> d           3.790  -1.460   4.625  0.00  0.00     0.035 H 
ATOM     23  H11 <0> d           2.258  -1.486   5.530  0.00  0.00     0.035 H 
ENDBRANCH   4  20
TORSDOF 4
