REMARK  3 active torsions:
REMARK  status: ('A' for Active; 'I' for Inactive)
REMARK    1  A    between atoms: C1_1  and  C2_2 
REMARK    2  A    between atoms: C2_2  and  O1_3 
REMARK    3  A    between atoms: O1_3  and  C3_4 
ROOT
ATOM      1  C3  <0> d           2.128   1.634   1.285  0.00  0.00     0.095 C 
ATOM      2  H1  <0> d           1.695   2.069   2.075  0.00  0.00     0.095 H 
ATOM      3  C4  <0> d           1.413   2.063  -0.000  0.00  0.00    -0.034 C 
ATOM      4  C5  <0> d          -0.019   1.525   0.010  0.00  0.00    -0.062 C 
ATOM      5  C6  <0> d           0.002  -0.004   0.002  0.00  0.00    -0.059 C 
ATOM      6  C7  <0> d           0.664  -0.511   1.288  0.00  0.00    -0.007 C 
ATOM      7  C8  <0> d           2.028   0.130   1.411  0.00  0.00     0.155 C 
ATOM      8  O2  <0> d           3.013  -0.542   1.606  0.00  0.00    -0.295 OA
ATOM      9  H7  <0> d           1.945   1.663  -0.863  0.00  0.00     0.037 H 
ATOM     10  H8  <0> d           1.392   3.152  -0.058  0.00  0.00     0.037 H 
ATOM     11  H9  <0> d          -0.548   1.885  -0.872  0.00  0.00     0.033 H 
ATOM     12  H10 <0> d          -0.531   1.876   0.907  0.00  0.00     0.033 H 
ATOM     13  H11 <0> d          -1.019  -0.381  -0.054  0.00  0.00     0.033 H 
ATOM     14  H12 <0> d           0.568  -0.355  -0.861  0.00  0.00     0.033 H 
ATOM     15  H13 <0> d           0.098  -0.264   2.074  0.00  0.00     0.044 H 
ATOM     16  H14 <0> d           0.768  -1.595   1.242  0.00  0.00     0.044 H 
ENDROOT
BRANCH   1  17
ATOM     17  O1  <0> d           3.502   2.020   1.222  0.00  0.00    -0.379 OA
BRANCH  17  18
ATOM     18  C2  <0> d           4.091   2.285   2.497  0.00  0.00     0.017 C 
ATOM     19  H5  <0> d           3.551   3.096   2.985  0.00  0.00     0.073 H 
ATOM     20  H6  <0> d           4.037   1.388   3.115  0.00  0.00     0.073 H 
BRANCH  18  21
ATOM     21  C1  <0> d           5.555   2.687   2.309  0.00  0.00    -0.056 C 
ATOM     22  H2  <0> d           6.095   1.876   1.821  0.00  0.00     0.030 H 
ATOM     23  H3  <0> d           5.609   3.583   1.691  0.00  0.00     0.030 H 
ATOM     24  H4  <0> d           6.004   2.889   3.282  0.00  0.00     0.030 H 
ENDBRANCH  18  21
ENDBRANCH  17  18
ENDBRANCH   1  17
TORSDOF 3
