REMARK  6 active torsions:
REMARK  status: ('A' for Active; 'I' for Inactive)
REMARK    1  A    between atoms: C1_1  and  C2_2 
REMARK    2  A    between atoms: C2_2  and  C3_3 
REMARK    3  A    between atoms: C2_2  and  C4_4 
REMARK    4  A    between atoms: C4_4  and  O1_5 
REMARK    5  A    between atoms: O1_5  and  C5_6 
REMARK    6  A    between atoms: C5_6  and  C6_7 
ROOT
ATOM      1  C2  <0> d           4.260   5.274  -0.010  0.00  0.00    -0.040 C 
ATOM      2  H4  <0> d           4.752   4.775   0.824  0.00  0.00     0.042 H 
ENDROOT
BRANCH   1   3
ATOM      3  C1  <0> d           4.879   4.799  -1.326  0.00  0.00    -0.071 C 
ATOM      4  H1  <0> d           5.942   5.039  -1.335  0.00  0.00     0.028 H 
ATOM      5  H2  <0> d           4.749   3.721  -1.420  0.00  0.00     0.028 H 
ATOM      6  H3  <0> d           4.387   5.298  -2.161  0.00  0.00     0.028 H 
ENDBRANCH   1   3
BRANCH   1   7
ATOM      7  C3  <0> d           4.442   6.787   0.122  0.00  0.00    -0.071 C 
ATOM      8  H5  <0> d           4.001   7.126   1.059  0.00  0.00     0.028 H 
ATOM      9  H6  <0> d           5.505   7.027   0.113  0.00  0.00     0.028 H 
ATOM     10  H7  <0> d           3.950   7.287  -0.713  0.00  0.00     0.028 H 
ENDBRANCH   1   7
BRANCH   1  11
ATOM     11  C4  <0> d           2.768   4.937   0.002  0.00  0.00     0.023 C 
ATOM     12  H8  <0> d           2.292   5.363  -0.881  0.00  0.00     0.074 H 
ATOM     13  H9  <0> d           2.309   5.354   0.899  0.00  0.00     0.074 H 
BRANCH  11  14
ATOM     14  O1  <0> d           2.600   3.518  -0.004  0.00  0.00    -0.380 OA
BRANCH  14  15
ATOM     15  C5  <0> d           1.235   3.094   0.007  0.00  0.00     0.099 C 
ATOM     16  H10 <0> d           0.727   3.482  -0.876  0.00  0.00     0.091 H 
ATOM     17  H11 <0> d           0.744   3.473   0.904  0.00  0.00     0.091 H 
BRANCH  15  18
ATOM     18  C6  <0> d           1.177   1.588  -0.001  0.00  0.00     0.197 C 
ATOM     19  O2  <0> d           2.199   0.944  -0.014  0.00  0.00    -0.646 OA
ATOM     20  O3  <0> d          -0.011   0.963   0.007  0.00  0.00    -0.646 OA
ENDBRANCH  15  18
ENDBRANCH  14  15
ENDBRANCH  11  14
ENDBRANCH   1  11
TORSDOF 6
