REMARK  3 active torsions:
REMARK  status: ('A' for Active; 'I' for Inactive)
REMARK    1  A    between atoms: C1_1  and  O1_2 
REMARK    2  A    between atoms: O1_2  and  C2_3 
REMARK    3  A    between atoms: C5_6  and  N2_10 
ROOT
ATOM      1  C2  <0> d          -0.016   1.354   0.009  0.00  0.00     0.165 A 
ATOM      2  C3  <0> d           1.181   2.056   0.002  0.00  0.00    -0.030 A 
ATOM      3  C4  <0> d           1.153   3.439   0.009  0.00  0.00    -0.050 A 
ATOM      4  C5  <0> d          -0.085   4.078   0.024  0.00  0.00     0.067 A 
ATOM      5  C6  <0> d          -1.241   3.310   0.031  0.00  0.00     0.154 A 
ATOM      6  N1  <0> d          -1.175   1.991   0.018  0.00  0.00    -0.210 NA
ATOM      7 Cl1  <0> d          -2.791   4.091   0.049  0.00  0.00    -0.060 Cl
ATOM      8  H4  <0> d           2.124   1.528  -0.010  0.00  0.00     0.090 H 
ATOM      9  H5  <0> d           2.070   4.011   0.003  0.00  0.00     0.087 H 
ENDROOT
BRANCH   1  10
ATOM     10  O1  <0> d           0.002  -0.004   0.002  0.00  0.00    -0.339 OA
BRANCH  10  11
ATOM     11  C1  <0> d          -1.262  -0.670   0.011  0.00  0.00     0.012 C 
ATOM     12  H1  <0> d          -1.105  -1.749   0.003  0.00  0.00     0.067 H 
ATOM     13  H2  <0> d          -1.815  -0.390   0.907  0.00  0.00     0.067 H 
ATOM     14  H3  <0> d          -1.832  -0.380  -0.873  0.00  0.00     0.067 H 
ENDBRANCH  10  11
ENDBRANCH   1  10
BRANCH   4  15
ATOM     15  N2  <0> d          -0.162   5.476   0.031  0.00  0.00    -0.397 N 
ATOM     16  H6  <0> d           0.650   6.007   0.026  0.00  0.00     0.156 HD
ATOM     17  H7  <0> d          -1.027   5.914   0.042  0.00  0.00     0.156 HD
ENDBRANCH   4  15
TORSDOF 3
