REMARK  2 active torsions:
REMARK  status: ('A' for Active; 'I' for Inactive)
REMARK    1  A    between atoms: C6_6  and  O1_12 
REMARK    2  A    between atoms: C7_7  and  N1_11 
ROOT
ATOM      1  C1  <0> d           2.394   0.041  -0.021  0.00  0.00    -0.082 A 
ATOM      2  C2  <0> d           2.375   1.434  -0.013  0.00  0.00    -0.082 A 
ATOM      3  C3  <0> d           1.198   2.119   0.002  0.00  0.00    -0.072 A 
ATOM      4  C4  <0> d          -0.017   1.413   0.010  0.00  0.00    -0.023 A 
ATOM      5  C5  <0> d          -1.250   2.089   0.031  0.00  0.00    -0.038 A 
ATOM      6  C6  <0> d          -2.412   1.376   0.034  0.00  0.00     0.092 A 
ATOM      7  C7  <0> d          -2.394  -0.029   0.026  0.00  0.00     0.060 A 
ATOM      8  C8  <0> d          -1.212  -0.713   0.010  0.00  0.00    -0.044 A 
ATOM      9  C9  <0> d           0.002  -0.004   0.002  0.00  0.00    -0.024 A 
ATOM     10  C10 <0> d           1.236  -0.676  -0.013  0.00  0.00    -0.072 A 
ATOM     11  H1  <0> d           3.341  -0.479  -0.032  0.00  0.00     0.083 H 
ATOM     12  H2  <0> d           3.307   1.979  -0.020  0.00  0.00     0.083 H 
ATOM     13  H3  <0> d           1.199   3.199   0.007  0.00  0.00     0.084 H 
ATOM     14  H4  <0> d          -1.276   3.169   0.037  0.00  0.00     0.089 H 
ATOM     15  H5  <0> d          -1.210  -1.792   0.005  0.00  0.00     0.088 H 
ATOM     16  H6  <0> d           1.266  -1.756  -0.020  0.00  0.00     0.084 H 
ENDROOT
BRANCH   7  17
ATOM     17  N1  <0> d          -3.600  -0.735   0.034  0.00  0.00    -0.397 N 
ATOM     18  H7  <0> d          -3.594  -1.705   0.029  0.00  0.00     0.156 HD
ATOM     19  H8  <0> d          -4.443  -0.255   0.045  0.00  0.00     0.156 HD
ENDBRANCH   7  17
BRANCH   6  20
ATOM     20  O1  <0> d          -3.602   2.032   0.050  0.00  0.00    -0.358 OA
ATOM     21  H9  <0> d          -3.938   2.217   0.938  0.00  0.00     0.217 HD
ENDBRANCH   6  20
TORSDOF 2
