REMARK  0 active torsions:
REMARK  status: ('A' for Active; 'I' for Inactive)
ROOT
ATOM      1  C1  <0> d           0.479   2.174   1.273  0.00  0.00    -0.013 A 
ATOM      2  C2  <0> d          -0.018   1.468   0.010  0.00  0.00     0.067 A 
ATOM      3  H1  <0> d          -0.842   1.930  -0.534  0.00  0.00     0.067 H 
ATOM      4  C3  <0> d           1.329   2.193   0.001  0.00  0.00     0.130 A 
ATOM      5 Cl1  <0> d           2.820   1.179  -0.018  0.00  0.00    -0.100 Cl
ATOM      6 Cl2  <0> d           1.433   3.746  -0.909  0.00  0.00    -0.100 Cl
ATOM      7  C4  <0> d           0.002  -0.004   0.002  0.00  0.00     0.067 C 
ATOM      8  N1  <0> d           0.018  -1.140  -0.004  0.00  0.00    -0.197 NA
ATOM      9  H2  <0> d          -0.018   3.101   1.560  0.00  0.00     0.039 H 
ATOM     10  H3  <0> d           0.821   1.549   2.098  0.00  0.00     0.039 H 
ENDROOT
TORSDOF 0
