REMARK  1 active torsions:
REMARK  status: ('A' for Active; 'I' for Inactive)
REMARK    1  A    between atoms: C1_1  and  C2_2 
ROOT
ATOM      1  C2  <0> d           0.002  -0.004   0.002  0.00  0.00     0.063 A 
ATOM      2  C3  <0> d           0.008  -0.857  -1.182  0.00  0.00     0.021 A 
ATOM      3  C4  <0> d          -0.002  -0.609  -2.559  0.00  0.00    -0.032 A 
ATOM      4  C5  <0> d           0.008  -1.659  -3.434  0.00  0.00     0.117 A 
ATOM      5  C6  <0> d           0.028  -2.969  -2.968  0.00  0.00    -0.043 A 
ATOM      6  C7  <0> d           0.038  -3.235  -1.628  0.00  0.00    -0.052 A 
ATOM      7  C8  <0> d           0.029  -2.185  -0.713  0.00  0.00     0.062 A 
ATOM      8  N1  <0> d           0.035  -2.119   0.657  0.00  0.00    -0.277 N 
ATOM      9  H1  <0> d           0.048  -2.881   1.257  0.00  0.00     0.189 HD
ATOM     10  N2  <0> d           0.023  -0.777   1.050  0.00  0.00    -0.179 NA
ATOM     11  F1  <0> d          -0.002  -1.421  -4.764  0.00  0.00    -0.206 F 
ATOM     12  H5  <0> d          -0.018   0.406  -2.928  0.00  0.00     0.089 H 
ATOM     13  H6  <0> d           0.035  -3.787  -3.674  0.00  0.00     0.088 H 
ATOM     14  H7  <0> d           0.053  -4.256  -1.279  0.00  0.00     0.087 H 
ENDROOT
BRANCH   1  15
ATOM     15  C1  <0> d          -0.018   1.503   0.010  0.00  0.00    -0.033 C 
ATOM     16  H2  <0> d           1.004   1.880   0.003  0.00  0.00     0.035 H 
ATOM     17  H3  <0> d          -0.545   1.864  -0.873  0.00  0.00     0.035 H 
ATOM     18  H4  <0> d          -0.529   1.854   0.907  0.00  0.00     0.035 H 
ENDBRANCH   1  15
TORSDOF 1
