REMARK  7 active torsions:
REMARK  status: ('A' for Active; 'I' for Inactive)
REMARK    1  A    between atoms: C1_1  and  C2_2 
REMARK    2  A    between atoms: C2_2  and  C3_3 
REMARK    3  A    between atoms: C3_3  and  O1_4 
REMARK    4  A    between atoms: O1_4  and  C4_5 
REMARK    5  A    between atoms: C4_5  and  C5_7 
REMARK    6  A    between atoms: C5_7  and  O3_8 
REMARK    7  A    between atoms: O3_8  and  C6_9 
ROOT
ATOM      1  O1  <0> d          -1.414  -1.962   0.005  0.00  0.00    -0.320 OA
ENDROOT
BRANCH   1   2
ATOM      2  C3  <0> d          -1.433  -0.534   0.013  0.00  0.00     0.029 C 
ATOM      3  H6  <0> d          -1.944  -0.182   0.910  0.00  0.00     0.075 H 
ATOM      4  H7  <0> d          -1.960  -0.173  -0.870  0.00  0.00     0.075 H 
BRANCH   2   5
ATOM      5  C2  <0> d           0.002  -0.004   0.002  0.00  0.00    -0.048 C 
ATOM      6  H4  <0> d           0.512  -0.356  -0.895  0.00  0.00     0.035 H 
ATOM      7  H5  <0> d           0.529  -0.365   0.885  0.00  0.00     0.035 H 
BRANCH   5   8
ATOM      8  C1  <0> d          -0.019   1.526   0.010  0.00  0.00    -0.075 C 
ATOM      9  H1  <0> d           1.004   1.903   0.003  0.00  0.00     0.027 H 
ATOM     10  H2  <0> d          -0.546   1.887  -0.873  0.00  0.00     0.027 H 
ATOM     11  H3  <0> d          -0.529   1.877   0.907  0.00  0.00     0.027 H 
ENDBRANCH   5   8
ENDBRANCH   2   5
ENDBRANCH   1   2
BRANCH   1  12
ATOM     12  C4  <0> d          -2.602  -2.588   0.013  0.00  0.00     0.282 C 
ATOM     13  O2  <0> d          -3.624  -1.944   0.026  0.00  0.00    -0.263 OA
BRANCH  12  14
ATOM     14  C5  <0> d          -2.660  -4.094   0.005  0.00  0.00     0.099 C 
ATOM     15  H8  <0> d          -2.169  -4.472  -0.891  0.00  0.00     0.089 H 
ATOM     16  H9  <0> d          -2.152  -4.482   0.889  0.00  0.00     0.089 H 
BRANCH  14  17
ATOM     17  O3  <0> d          -4.025  -4.518   0.016  0.00  0.00    -0.386 OA
BRANCH  17  18
ATOM     18  C6  <0> d          -4.193  -5.937   0.010  0.00  0.00     0.005 C 
ATOM     19  H10 <0> d          -3.734  -6.353  -0.886  0.00  0.00     0.066 H 
ATOM     20  H11 <0> d          -3.717  -6.363   0.893  0.00  0.00     0.066 H 
ATOM     21  H12 <0> d          -5.256  -6.177   0.019  0.00  0.00     0.066 H 
ENDBRANCH  17  18
ENDBRANCH  14  17
ENDBRANCH  12  14
ENDBRANCH   1  12
TORSDOF 7
