REMARK  6 active torsions:
REMARK  status: ('A' for Active; 'I' for Inactive)
REMARK    1  A    between atoms: C1_1  and  C2_2 
REMARK    2  A    between atoms: C2_2  and  C3_3 
REMARK    3  A    between atoms: C3_3  and  C4_4 
REMARK    4  A    between atoms: C4_4  and  C5_5 
REMARK    5  A    between atoms: C6_7  and  C8_12 
REMARK    6  A    between atoms: C7_10  and  O1_11 
ROOT
ATOM      1  C4  <0> d           0.739  -2.027  -1.265  0.00  0.00    -0.035 C 
ATOM      2  H9  <0> d           1.266  -2.388  -0.382  0.00  0.00     0.040 H 
ATOM      3  H10 <0> d          -0.284  -2.405  -1.258  0.00  0.00     0.040 H 
ENDROOT
BRANCH   1   4
ATOM      4  C3  <0> d           0.718  -0.497  -1.257  0.00  0.00    -0.061 C 
ATOM      5  H7  <0> d           0.191  -0.136  -2.140  0.00  0.00     0.033 H 
ATOM      6  H8  <0> d           1.741  -0.120  -1.264  0.00  0.00     0.033 H 
BRANCH   4   7
ATOM      7  C2  <0> d           0.002  -0.004   0.002  0.00  0.00    -0.068 C 
ATOM      8  H5  <0> d           0.529  -0.365   0.885  0.00  0.00     0.032 H 
ATOM      9  H6  <0> d          -1.020  -0.381   0.010  0.00  0.00     0.032 H 
BRANCH   7  10
ATOM     10  C1  <0> d          -0.019   1.526   0.010  0.00  0.00    -0.077 C 
ATOM     11  H2  <0> d           1.004   1.903   0.003  0.00  0.00     0.027 H 
ATOM     12  H3  <0> d          -0.546   1.887  -0.873  0.00  0.00     0.027 H 
ATOM     13  H4  <0> d          -0.529   1.877   0.907  0.00  0.00     0.027 H 
ENDBRANCH   7  10
ENDBRANCH   4   7
ENDBRANCH   1   4
BRANCH   1  14
ATOM     14  C5  <0> d           1.444  -2.513  -2.505  0.00  0.00     0.020 A 
ATOM     15  C7  <0> d           2.818  -2.769  -2.627  0.00  0.00     0.189 A 
ATOM     16  N2  <0> d           3.049  -3.178  -3.851  0.00  0.00    -0.149 NA
ATOM     17  N1  <0> d           1.833  -3.186  -4.546  0.00  0.00    -0.280 N 
ATOM     18  C6  <0> d           0.866  -2.775  -3.700  0.00  0.00     0.034 A 
ATOM     19  H11 <0> d           1.708  -3.442  -5.473  0.00  0.00     0.189 HD
BRANCH  15  20
ATOM     20  O1  <0> d           3.748  -2.621  -1.646  0.00  0.00    -0.343 OA
ATOM     21  H1  <0> d           3.884  -3.414  -1.110  0.00  0.00     0.219 HD
ENDBRANCH  15  20
BRANCH  18  22
ATOM     22  C8  <0> d          -0.599  -2.633  -4.027  0.00  0.00    -0.035 C 
ATOM     23  H12 <0> d          -0.793  -1.626  -4.395  0.00  0.00     0.035 H 
ATOM     24  H13 <0> d          -0.872  -3.360  -4.792  0.00  0.00     0.035 H 
ATOM     25  H14 <0> d          -1.190  -2.812  -3.129  0.00  0.00     0.035 H 
ENDBRANCH  18  22
ENDBRANCH   1  14
TORSDOF 6
