REMARK  4 active torsions:
REMARK  status: ('A' for Active; 'I' for Inactive)
REMARK    1  A    between atoms: C1_1  and  C2_2 
REMARK    2  A    between atoms: C2_2  and  C3_4 
REMARK    3  A    between atoms: C2_2  and  C5_7 
REMARK    4  A    between atoms: C3_4  and  C4_5 
ROOT
ATOM      1  C2  <0> d           2.696   3.548  -0.005  0.00  0.00    -0.033 C 
ATOM      2  H1  <0> d           3.226   3.088   0.830  0.00  0.00     0.046 H 
ENDROOT
BRANCH   1   3
ATOM      3  C1  <0> d           3.351   3.124  -1.321  0.00  0.00    -0.069 C 
ATOM      4  H2  <0> d           3.307   2.039  -1.416  0.00  0.00     0.028 H 
ATOM      5  H3  <0> d           2.822   3.584  -2.155  0.00  0.00     0.028 H 
ATOM      6  H4  <0> d           4.392   3.447  -1.329  0.00  0.00     0.028 H 
ENDBRANCH   1   3
BRANCH   1   7
ATOM      7  C3  <0> d           1.235   3.094   0.007  0.00  0.00     0.022 C 
ATOM      8  H5  <0> d           0.727   3.482  -0.876  0.00  0.00     0.050 H 
ATOM      9  H6  <0> d           0.744   3.473   0.904  0.00  0.00     0.050 H 
BRANCH   7  10
ATOM     10  C4  <0> d           1.177   1.588  -0.001  0.00  0.00     0.173 C 
ATOM     11  O1  <0> d           2.199   0.944  -0.014  0.00  0.00    -0.648 OA
ATOM     12  O2  <0> d          -0.011   0.963   0.007  0.00  0.00    -0.648 OA
ENDBRANCH   7  10
ENDBRANCH   1   7
BRANCH   1  13
ATOM     13  C5  <0> d           2.757   5.048   0.127  0.00  0.00    -0.108 C 
ATOM     14  C6  <0> d           3.385   5.592   1.140  0.00  0.00    -0.124 C 
ATOM     15  H8  <0> d           3.859   4.965   1.881  0.00  0.00     0.066 H 
ATOM     16  H9  <0> d           3.429   6.667   1.234  0.00  0.00     0.066 H 
ATOM     17  H7  <0> d           2.284   5.675  -0.614  0.00  0.00     0.076 H 
ENDBRANCH   1  13
TORSDOF 4
