REMARK  1 active torsions:
REMARK  status: ('A' for Active; 'I' for Inactive)
REMARK    1  A    between atoms: C1_1  and  C2_2 
ROOT
ATOM      1  C2  <0> d          -0.855   3.279   0.027  0.00  0.00    -0.055 A 
ATOM      2  C3  <0> d          -1.077   1.915   0.017  0.00  0.00    -0.070 A 
ATOM      3  C4  <0> d          -0.013   1.076   0.008  0.00  0.00    -0.045 A 
ATOM      4  S1  <0> d           1.359   2.219   0.001  0.00  0.00    -0.113 SA
ATOM      5  C5  <0> d           0.421   3.738   0.017  0.00  0.00    -0.039 A 
ATOM      6  H4  <0> d          -2.083   1.524   0.018  0.00  0.00     0.085 H 
ATOM      7  H5  <0> d           0.002  -0.004   0.002  0.00  0.00     0.095 H 
ATOM      8  H6  <0> d           0.777   4.757   0.019  0.00  0.00     0.095 H 
ENDROOT
BRANCH   1   9
ATOM      9  C1  <0> d          -2.014   4.243   0.042  0.00  0.00    -0.051 C 
ATOM     10  H1  <0> d          -2.302   4.480  -0.982  0.00  0.00     0.033 H 
ATOM     11  H2  <0> d          -2.857   3.788   0.561  0.00  0.00     0.033 H 
ATOM     12  H3  <0> d          -1.720   5.157   0.558  0.00  0.00     0.033 H 
ENDBRANCH   1   9
TORSDOF 1
