REMARK  1 active torsions:
REMARK  status: ('A' for Active; 'I' for Inactive)
REMARK    1  A    between atoms: C1_1  and  C2_2 
ROOT
ATOM      1  C2  <0> d          -0.835   1.635  -1.179  0.00  0.00     0.046 C 
ATOM      2  H1  <0> d          -1.560   0.891  -1.511  0.00  0.00     0.083 H 
ATOM      3  C3  <0> d          -0.013   1.086   0.008  0.00  0.00    -0.017 C 
ATOM      4  C4  <0> d          -0.813   1.623   1.218  0.00  0.00     0.116 C 
ATOM      5  H2  <0> d          -1.529   0.877   1.563  0.00  0.00     0.078 H 
ATOM      6  C5  <0> d          -1.533   2.836   0.668  0.00  0.00     0.277 C 
ATOM      7  O1  <0> d          -2.045   3.700   1.340  0.00  0.00    -0.264 OA
ATOM      8  O2  <0> d          -1.519   2.813  -0.670  0.00  0.00    -0.315 OA
ATOM      9  C6  <0> d           0.097   2.011   2.308  0.00  0.00     0.074 C 
ATOM     10  N1  <0> d           0.799   2.310   3.149  0.00  0.00    -0.196 NA
ATOM     11  H6  <0> d           0.002  -0.004   0.002  0.00  0.00     0.039 H 
ATOM     12  H7  <0> d           1.000   1.488   0.001  0.00  0.00     0.039 H 
ENDROOT
BRANCH   1  13
ATOM     13  C1  <0> d           0.093   2.020  -2.333  0.00  0.00    -0.051 C 
ATOM     14  H3  <0> d           0.649   1.141  -2.660  0.00  0.00     0.030 H 
ATOM     15  H4  <0> d          -0.499   2.405  -3.163  0.00  0.00     0.030 H 
ATOM     16  H5  <0> d           0.791   2.787  -1.997  0.00  0.00     0.030 H 
ENDBRANCH   1  13
TORSDOF 1
