REMARK  3 active torsions:
REMARK  status: ('A' for Active; 'I' for Inactive)
REMARK    1  A    between atoms: C1_1  and  C2_2 
REMARK    2  A    between atoms: C2_2  and  C3_4 
REMARK    3  A    between atoms: C4_5  and  O2_11 
ROOT
ATOM      1  C3  <0> d          -2.166   1.767   1.120  0.00  0.00     0.081 A 
ATOM      2  C4  <0> d          -2.911   2.263   2.203  0.00  0.00     0.082 A 
ATOM      3  C5  <0> d          -4.278   2.448   2.067  0.00  0.00    -0.050 A 
ATOM      4  C6  <0> d          -4.907   2.136   0.877  0.00  0.00    -0.077 A 
ATOM      5  C7  <0> d          -4.181   1.641  -0.193  0.00  0.00    -0.044 A 
ATOM      6  C8  <0> d          -2.817   1.454  -0.082  0.00  0.00     0.133 A 
ATOM      7  F1  <0> d          -2.112   0.972  -1.129  0.00  0.00    -0.205 F 
ATOM      8  H4  <0> d          -4.854   2.834   2.896  0.00  0.00     0.087 H 
ATOM      9  H5  <0> d          -5.973   2.279   0.781  0.00  0.00     0.083 H 
ATOM     10  H6  <0> d          -4.683   1.401  -1.118  0.00  0.00     0.088 H 
ENDROOT
BRANCH   1  11
ATOM     11  C2  <0> d          -0.718   1.572   1.248  0.00  0.00     0.161 C 
ATOM     12  O1  <0> d           0.043   2.469   0.953  0.00  0.00    -0.293 OA
BRANCH  11  13
ATOM     13  C1  <0> d          -0.176   0.257   1.745  0.00  0.00    -0.016 C 
ATOM     14  H1  <0> d          -0.168   0.256   2.745  0.00  0.00     0.038 H 
ATOM     15  H2  <0> d           0.839   0.118   1.374  0.00  0.00     0.038 H 
ATOM     16  H3  <0> d          -0.808  -0.556   1.387  0.00  0.00     0.038 H 
ENDBRANCH  11  13
ENDBRANCH   1  11
BRANCH   2  17
ATOM     17  O2  <0> d          -2.296   2.564   3.373  0.00  0.00    -0.360 OA
ATOM     18  H7  <0> d          -1.981   3.477   3.428  0.00  0.00     0.217 HD
ENDBRANCH   2  17
TORSDOF 3
