REMARK  6 active torsions:
REMARK  status: ('A' for Active; 'I' for Inactive)
REMARK    1  A    between atoms: C1_1  and  O1_2 
REMARK    2  A    between atoms: O1_2  and  C2_3 
REMARK    3  A    between atoms: C2_3  and  C3_4 
REMARK    4  A    between atoms: C2_3  and  O3_6 
REMARK    5  A    between atoms: C3_4  and  O2_5 
REMARK    6  A    between atoms: O3_6  and  C4_7 
ROOT
ATOM      1  C2  <0> d           1.461   3.117   0.361  0.00  0.00     0.149 C 
ATOM      2  H4  <0> d           2.326   3.725   0.625  0.00  0.00     0.132 H 
ENDROOT
BRANCH   1   3
ATOM      3  O1  <0> d           1.120   3.341  -1.009  0.00  0.00    -0.364 OA
BRANCH   3   4
ATOM      4  C1  <0> d           1.353   4.679  -1.454  0.00  0.00     0.007 C 
ATOM      5  H1  <0> d           0.850   5.378  -0.785  0.00  0.00     0.066 H 
ATOM      6  H2  <0> d           2.424   4.882  -1.451  0.00  0.00     0.066 H 
ATOM      7  H3  <0> d           0.963   4.799  -2.465  0.00  0.00     0.066 H 
ENDBRANCH   3   4
ENDBRANCH   1   3
BRANCH   1   8
ATOM      8  C3  <0> d           1.795   1.638   0.568  0.00  0.00     0.062 C 
ATOM      9  H5  <0> d           2.054   1.467   1.612  0.00  0.00     0.081 H 
ATOM     10  H6  <0> d           2.638   1.364  -0.066  0.00  0.00     0.081 H 
BRANCH   8  11
ATOM     11  O2  <0> d           0.660   0.841   0.222  0.00  0.00    -0.396 OA
ATOM     12  H7  <0> d           0.801  -0.110   0.329  0.00  0.00     0.209 HD
ENDBRANCH   8  11
ENDBRANCH   1   8
BRANCH   1  13
ATOM     13  O3  <0> d           0.355   3.476   1.192  0.00  0.00    -0.364 OA
BRANCH  13  14
ATOM     14  C4  <0> d           0.157   4.886   1.318  0.00  0.00     0.007 C 
ATOM     15  H8  <0> d          -0.306   5.271   0.409  0.00  0.00     0.066 H 
ATOM     16  H9  <0> d          -0.494   5.086   2.169  0.00  0.00     0.066 H 
ATOM     17  H10 <0> d           1.118   5.376   1.472  0.00  0.00     0.066 H 
ENDBRANCH  13  14
ENDBRANCH   1  13
TORSDOF 6
