REMARK  2 active torsions:
REMARK  status: ('A' for Active; 'I' for Inactive)
REMARK    1  A    between atoms: C1_1  and  O1_2 
REMARK    2  A    between atoms: O1_2  and  C2_3 
ROOT
ATOM      1  C2  <0> d          -0.017   1.425   0.010  0.00  0.00     0.138 C 
ATOM      2  C3  <0> d          -0.745   2.003  -1.216  0.00  0.00    -0.025 C 
ATOM      3  C4  <0> d          -0.732   3.544  -1.132  0.00  0.00    -0.055 C 
ATOM      4  C5  <0> d          -0.029   4.014   0.148  0.00  0.00    -0.031 C 
ATOM      5  H1  <0> d          -0.083   5.098   0.245  0.00  0.00     0.046 H 
ATOM      6  C6  <0> d           1.436   3.540   0.093  0.00  0.00     0.000 C 
ATOM      7  C7  <0> d           1.388   2.022  -0.000  0.00  0.00     0.165 C 
ATOM      8  O2  <0> d           2.383   1.342  -0.077  0.00  0.00    -0.294 OA
ATOM      9  C8  <0> d          -0.699   3.313   1.320  0.00  0.00    -0.099 C 
ATOM     10  C9  <0> d          -0.699   1.986   1.254  0.00  0.00    -0.066 C 
ATOM     11  H5  <0> d          -0.245   1.668  -2.125  0.00  0.00     0.038 H 
ATOM     12  H6  <0> d          -1.778   1.654  -1.222  0.00  0.00     0.038 H 
ATOM     13  H7  <0> d          -1.756   3.917  -1.138  0.00  0.00     0.034 H 
ATOM     14  H8  <0> d          -0.201   3.938  -1.999  0.00  0.00     0.034 H 
ATOM     15  H9  <0> d           1.915   3.840   0.918  0.00  0.00     0.045 H 
ATOM     16  H10 <0> d           1.931   3.954  -0.785  0.00  0.00     0.045 H 
ATOM     17  H11 <0> d          -1.140   3.854   2.144  0.00  0.00     0.077 H 
ATOM     18  H12 <0> d          -1.144   1.360   2.013  0.00  0.00     0.081 H 
ENDROOT
BRANCH   1  19
ATOM     19  O1  <0> d           0.002  -0.004   0.002  0.00  0.00    -0.373 OA
BRANCH  19  20
ATOM     20  C1  <0> d           0.673  -0.582   1.123  0.00  0.00     0.006 C 
ATOM     21  H2  <0> d           0.177  -0.273   2.043  0.00  0.00     0.066 H 
ATOM     22  H3  <0> d           0.644  -1.669   1.043  0.00  0.00     0.066 H 
ATOM     23  H4  <0> d           1.710  -0.247   1.139  0.00  0.00     0.066 H 
ENDBRANCH  19  20
ENDBRANCH   1  19
TORSDOF 2
