REMARK  0 active torsions:
REMARK  status: ('A' for Active; 'I' for Inactive)
ROOT
ATOM      1  C1  <0> d          -0.017   1.381   0.010  0.00  0.00    -0.081 A 
ATOM      2  C2  <0> d           1.157   2.100   0.002  0.00  0.00    -0.069 A 
ATOM      3  C3  <0> d           2.387   1.432  -0.013  0.00  0.00     0.013 A 
ATOM      4  C4  <0> d           3.778   1.873  -0.025  0.00  0.00     0.034 A 
ATOM      5  N1  <0> d           4.531   0.811  -0.038  0.00  0.00    -0.186 NA
ATOM      6  N2  <0> d           3.736  -0.340  -0.036  0.00  0.00    -0.276 N 
ATOM      7  H1  <0> d           4.066  -1.252  -0.045  0.00  0.00     0.189 HD
ATOM      8  C5  <0> d           2.420   0.025  -0.021  0.00  0.00     0.082 A 
ATOM      9  C6  <0> d           1.211  -0.694  -0.014  0.00  0.00     0.073 A 
ATOM     10  C7  <0> d           0.002  -0.004   0.002  0.00  0.00    -0.060 A 
ATOM     11  C8  <0> d           1.224  -2.126  -0.022  0.00  0.00     0.102 C 
ATOM     12  N3  <0> d           1.234  -3.262  -0.029  0.00  0.00    -0.191 NA
ATOM     13  H2  <0> d          -0.962   1.902   0.026  0.00  0.00     0.083 H 
ATOM     14  H3  <0> d           1.130   3.179   0.008  0.00  0.00     0.085 H 
ATOM     15  H4  <0> d           4.122   2.897  -0.023  0.00  0.00     0.118 H 
ATOM     16  H5  <0> d          -0.928  -0.553   0.008  0.00  0.00     0.086 H 
ENDROOT
TORSDOF 0
