REMARK  3 active torsions:
REMARK  status: ('A' for Active; 'I' for Inactive)
REMARK    1  A    between atoms: C1_1  and  C2_2 
REMARK    2  A    between atoms: C7_8  and  C8_10 
REMARK    3  A    between atoms: C8_10  and  O1_11 
ROOT
ATOM      1  C2  <0> d          -0.061   3.850  -0.381  0.00  0.00    -0.049 C 
ATOM      2  H1  <0> d          -0.252   3.679  -1.440  0.00  0.00     0.040 H 
ATOM      3  C3  <0> d           1.262   3.192   0.017  0.00  0.00    -0.047 C 
ATOM      4  C4  <0> d           1.122   1.698   0.001  0.00  0.00    -0.106 C 
ATOM      5  C5  <0> d          -0.013   1.076   0.008  0.00  0.00    -0.106 C 
ATOM      6  C6  <0> d          -1.347   1.761   0.018  0.00  0.00    -0.044 C 
ATOM      7  C7  <0> d          -1.185   3.221   0.453  0.00  0.00    -0.027 C 
ATOM      8  H2  <0> d          -0.925   3.266   1.511  0.00  0.00     0.044 H 
ATOM      9  H6  <0> d           1.541   3.518   1.019  0.00  0.00     0.039 H 
ATOM     10  H7  <0> d           2.038   3.490  -0.689  0.00  0.00     0.039 H 
ATOM     11  H8  <0> d           2.025   1.105  -0.019  0.00  0.00     0.076 H 
ATOM     12  H9  <0> d           0.002  -0.004   0.002  0.00  0.00     0.076 H 
ATOM     13  H10 <0> d          -1.780   1.725  -0.982  0.00  0.00     0.039 H 
ATOM     14  H11 <0> d          -2.011   1.250   0.716  0.00  0.00     0.039 H 
ENDROOT
BRANCH   7  15
ATOM     15  C8  <0> d          -2.492   3.978   0.208  0.00  0.00     0.021 C 
ATOM     16  H12 <0> d          -2.342   5.038   0.412  0.00  0.00     0.074 H 
ATOM     17  H13 <0> d          -2.798   3.848  -0.830  0.00  0.00     0.074 H 
BRANCH  15  18
ATOM     18  O1  <0> d          -3.509   3.465   1.071  0.00  0.00    -0.400 OA
ATOM     19  H14 <0> d          -4.367   3.899   0.970  0.00  0.00     0.209 HD
ENDBRANCH  15  18
ENDBRANCH   7  15
BRANCH   1  20
ATOM     20  C1  <0> d           0.009   5.354  -0.107  0.00  0.00    -0.072 C 
ATOM     21  H3  <0> d           0.820   5.791  -0.689  0.00  0.00     0.028 H 
ATOM     22  H4  <0> d          -0.935   5.819  -0.391  0.00  0.00     0.028 H 
ATOM     23  H5  <0> d           0.192   5.521   0.954  0.00  0.00     0.028 H 
ENDBRANCH   1  20
TORSDOF 3
