REMARK  4 active torsions:
REMARK  status: ('A' for Active; 'I' for Inactive)
REMARK    1  A    between atoms: C1_1  and  C2_2 
REMARK    2  A    between atoms: C2_2  and  N1_6 
REMARK    3  A    between atoms: C3_3  and  C4_4 
REMARK       I    between atoms: N1_6  and  C5_7 
REMARK    4  A    between atoms: C5_7  and  C6_9 
ROOT
ATOM      1  C2  <0> d          -0.016   1.497   0.014  0.00  0.00     0.014 C 
ATOM      2  C3  <0> d           1.184   2.107  -0.026  0.00  0.00     0.012 C 
ATOM      3  H4  <0> d           2.086   1.520  -0.121  0.00  0.00     0.097 H 
ENDROOT
BRANCH   1   4
ATOM      4  C1  <0> d          -0.096  -0.007   0.056  0.00  0.00    -0.037 C 
ATOM      5  H1  <0> d          -0.005  -0.347   1.088  0.00  0.00     0.035 H 
ATOM      6  H2  <0> d          -1.054  -0.332  -0.350  0.00  0.00     0.035 H 
ATOM      7  H3  <0> d           0.713  -0.431  -0.539  0.00  0.00     0.035 H 
ENDBRANCH   1   4
BRANCH   1   8
ATOM      8  N1  <0> d          -1.168   2.245   0.010  0.00  0.00    -0.331 N 
ATOM      9  C5  <0> d          -2.053   2.126   1.020  0.00  0.00     0.217 C 
ATOM     10  O2  <0> d          -1.789   1.431   1.978  0.00  0.00    -0.274 OA
ATOM     11  H5  <0> d          -1.344   2.860  -0.719  0.00  0.00     0.168 HD
BRANCH   9  12
ATOM     12  C6  <0> d          -3.370   2.856   0.958  0.00  0.00    -0.003 C 
ATOM     13  H6  <0> d          -3.926   2.527   0.080  0.00  0.00     0.040 H 
ATOM     14  H7  <0> d          -3.948   2.639   1.856  0.00  0.00     0.040 H 
ATOM     15  H8  <0> d          -3.188   3.928   0.892  0.00  0.00     0.040 H 
ENDBRANCH   9  12
ENDBRANCH   1   8
BRANCH   2  16
ATOM     16  C4  <0> d           1.264   3.518   0.056  0.00  0.00     0.200 C 
ATOM     17  O1  <0> d           0.246   4.185   0.070  0.00  0.00    -0.644 OA
ATOM     18  O3  <0> d           2.468   4.123   0.119  0.00  0.00    -0.644 OA
ENDBRANCH   2  16
TORSDOF 4
