REMARK  1 active torsions:
REMARK  status: ('A' for Active; 'I' for Inactive)
REMARK    1  A    between atoms: C2_2  and  C3_7 
ROOT
ATOM      1  C1  <0> d          -0.013   1.076   0.008  0.00  0.00     0.059 A 
ATOM      2  C2  <0> d           1.081   1.921   0.002  0.00  0.00     0.147 A 
ATOM      3  N1  <0> d           0.561   3.190   0.014  0.00  0.00    -0.252 N 
ATOM      4  N2  <0> d          -0.722   3.093   0.026  0.00  0.00    -0.068 NA
ATOM      5  N3  <0> d          -1.089   1.862   0.017  0.00  0.00    -0.142 NA
ATOM      6  H1  <0> d           1.070   4.016   0.014  0.00  0.00     0.191 HD
ATOM      7  H2  <0> d           0.002  -0.004   0.002  0.00  0.00     0.121 H 
ENDROOT
BRANCH   2   8
ATOM      8  C3  <0> d           2.499   1.540  -0.013  0.00  0.00     0.229 C 
ATOM      9  O1  <0> d           3.365   2.406  -0.017  0.00  0.00    -0.643 OA
ATOM     10  O2  <0> d           2.816   0.358  -0.023  0.00  0.00    -0.643 OA
ENDBRANCH   2   8
TORSDOF 1
