REMARK  5 active torsions:
REMARK  status: ('A' for Active; 'I' for Inactive)
REMARK    1  A    between atoms: C1_1  and  C2_2 
REMARK    2  A    between atoms: C2_2  and  O1_3 
REMARK    3  A    between atoms: O1_3  and  C3_4 
REMARK    4  A    between atoms: C7_8  and  N1_10 
REMARK    5  A    between atoms: N1_10  and  C9_11 
ROOT
ATOM      1  C3  <0> d          -1.498  -1.848   0.006  0.00  0.00     0.070 A 
ATOM      2  C4  <0> d          -0.386  -2.679  -0.003  0.00  0.00    -0.051 A 
ATOM      3  C5  <0> d          -0.547  -4.051  -0.009  0.00  0.00    -0.078 A 
ATOM      4  C6  <0> d          -1.814  -4.601  -0.005  0.00  0.00    -0.057 A 
ATOM      5  C7  <0> d          -2.931  -3.775   0.004  0.00  0.00     0.030 A 
ATOM      6  C8  <0> d          -2.771  -2.396   0.016  0.00  0.00    -0.025 A 
ATOM      7  H6  <0> d           0.606  -2.252  -0.006  0.00  0.00     0.087 H 
ATOM      8  H7  <0> d           0.320  -4.696  -0.016  0.00  0.00     0.083 H 
ATOM      9  H8  <0> d          -1.937  -5.674  -0.010  0.00  0.00     0.086 H 
ATOM     10  H9  <0> d          -3.638  -1.751   0.028  0.00  0.00     0.091 H 
ENDROOT
BRANCH   1  11
ATOM     11  O1  <0> d          -1.339  -0.499   0.012  0.00  0.00    -0.351 OA
BRANCH  11  12
ATOM     12  C2  <0> d           0.002  -0.004   0.002  0.00  0.00     0.023 C 
ATOM     13  H4  <0> d           0.512  -0.356  -0.895  0.00  0.00     0.074 H 
ATOM     14  H5  <0> d           0.529  -0.365   0.885  0.00  0.00     0.074 H 
BRANCH  12  15
ATOM     15  C1  <0> d          -0.019   1.526   0.010  0.00  0.00    -0.056 C 
ATOM     16  H1  <0> d           1.004   1.903   0.003  0.00  0.00     0.030 H 
ATOM     17  H2  <0> d          -0.546   1.887  -0.873  0.00  0.00     0.030 H 
ATOM     18  H3  <0> d          -0.529   1.877   0.907  0.00  0.00     0.030 H 
ENDBRANCH  12  15
ENDBRANCH  11  12
ENDBRANCH   1  11
BRANCH   5  19
ATOM     19  N1  <0> d          -4.212  -4.330   0.007  0.00  0.00    -0.394 N 
ATOM     20  H10 <0> d          -4.992  -3.753   0.014  0.00  0.00     0.159 HD
BRANCH  19  21
ATOM     21  C9  <0> d          -4.380  -5.786   0.001  0.00  0.00    -0.021 C 
ATOM     22  H11 <0> d          -5.442  -6.029   0.005  0.00  0.00     0.056 H 
ATOM     23  H12 <0> d          -3.915  -6.201  -0.893  0.00  0.00     0.056 H 
ATOM     24  H13 <0> d          -3.906  -6.210   0.887  0.00  0.00     0.056 H 
ENDBRANCH  19  21
ENDBRANCH   5  19
TORSDOF 5
