REMARK  3 active torsions:
REMARK  status: ('A' for Active; 'I' for Inactive)
REMARK    1  A    between atoms: C1_1  and  C2_2 
REMARK    2  A    between atoms: C2_2  and  N1_3 
REMARK       I    between atoms: N1_3  and  C3_4 
REMARK    3  A    between atoms: C3_4  and  C4_6 
ROOT
ATOM      1  N1  <0> d          -2.425   2.190   0.027  0.00  0.00    -0.357 N 
ATOM      2  C3  <0> d          -1.173   2.688   0.022  0.00  0.00     0.258 C 
ATOM      3  O1  <0> d          -0.997   3.893   0.028  0.00  0.00    -0.267 OA
ATOM      4  H6  <0> d          -2.565   1.230   0.022  0.00  0.00     0.162 HD
ENDROOT
BRANCH   2   5
ATOM      5  C4  <0> d          -0.022   1.780   0.012  0.00  0.00     0.072 A 
ATOM      6  S1  <0> d           0.002  -0.004   0.002  0.00  0.00    -0.097 SA
ATOM      7  C7  <0> d           1.719  -0.241  -0.016  0.00  0.00    -0.044 A 
ATOM      8  C6  <0> d           2.208   1.027  -0.013  0.00  0.00    -0.075 A 
ATOM      9  H9  <0> d           2.268  -1.171  -0.026  0.00  0.00     0.095 H 
ATOM     10  C5  <0> d           1.330   2.083   0.001  0.00  0.00    -0.060 A 
ATOM     11  H8  <0> d           3.273   1.202  -0.023  0.00  0.00     0.084 H 
ATOM     12  H7  <0> d           1.679   3.105   0.003  0.00  0.00     0.085 H 
ENDBRANCH   2   5
BRANCH   1  13
ATOM     13  C2  <0> d          -3.574   3.098   0.037  0.00  0.00    -0.008 C 
ATOM     14  H4  <0> d          -3.536   3.722   0.930  0.00  0.00     0.063 H 
ATOM     15  H5  <0> d          -3.546   3.731  -0.850  0.00  0.00     0.063 H 
BRANCH  13  16
ATOM     16  C1  <0> d          -4.869   2.282   0.040  0.00  0.00    -0.061 C 
ATOM     17  H1  <0> d          -4.897   1.649   0.927  0.00  0.00     0.029 H 
ATOM     18  H2  <0> d          -5.724   2.957   0.048  0.00  0.00     0.029 H 
ATOM     19  H3  <0> d          -4.907   1.658  -0.853  0.00  0.00     0.029 H 
ENDBRANCH  13  16
ENDBRANCH   1  13
TORSDOF 3
