REMARK  1 active torsions:
REMARK  status: ('A' for Active; 'I' for Inactive)
REMARK    1  A    between atoms: C2_2  and  N3_7 
ROOT
ATOM      1  C1  <0> d          -0.013   1.076   0.008  0.00  0.00     0.030 A 
ATOM      2  C2  <0> d           1.178   1.799   0.001  0.00  0.00     0.061 A 
ATOM      3  C3  <0> d           1.104   3.190   0.009  0.00  0.00     0.030 A 
ATOM      4  N1  <0> d          -0.085   3.769   0.023  0.00  0.00    -0.252 NA
ATOM      5  C4  <0> d          -1.188   3.049   0.030  0.00  0.00     0.086 A 
ATOM      6  N2  <0> d          -1.161   1.731   0.017  0.00  0.00    -0.252 NA
ATOM      7  H1  <0> d           0.002  -0.004   0.002  0.00  0.00     0.118 H 
ATOM      8  H2  <0> d           2.005   3.786   0.003  0.00  0.00     0.118 H 
ATOM      9  H3  <0> d          -2.143   3.554   0.042  0.00  0.00     0.146 H 
ENDROOT
BRANCH   2  10
ATOM     10  N3  <0> d           2.413   1.146  -0.014  0.00  0.00    -0.397 N 
ATOM     11  H4  <0> d           2.450   0.177  -0.020  0.00  0.00     0.156 HD
ATOM     12  H5  <0> d           3.234   1.662  -0.019  0.00  0.00     0.156 HD
ENDBRANCH   2  10
TORSDOF 1
