REMARK  4 active torsions:
REMARK  status: ('A' for Active; 'I' for Inactive)
REMARK    1  A    between atoms: C1_1  and  C2_2 
REMARK    2  A    between atoms: C2_2  and  O2_9 
REMARK    3  A    between atoms: C6_6  and  C7_7 
REMARK    4  A    between atoms: C6_6  and  O1_8 
ROOT
ATOM      1  C2  <0> d           1.471   1.943  -0.002  0.00  0.00     0.085 C 
ATOM      2  C3  <0> d          -0.019   1.545   0.011  0.00  0.00    -0.034 C 
ATOM      3  C4  <0> d           0.002  -0.004   0.002  0.00  0.00    -0.059 C 
ATOM      4  C5  <0> d           1.207  -0.335   0.918  0.00  0.00    -0.034 C 
ATOM      5  C6  <0> d           2.251   0.748   0.575  0.00  0.00     0.085 C 
ATOM      6  H4  <0> d          -0.523   1.924  -0.878  0.00  0.00     0.037 H 
ATOM      7  H5  <0> d          -0.505   1.915   0.913  0.00  0.00     0.037 H 
ATOM      8  H6  <0> d          -0.922  -0.405   0.419  0.00  0.00     0.033 H 
ATOM      9  H7  <0> d           0.168  -0.383  -1.007  0.00  0.00     0.033 H 
ATOM     10  H8  <0> d           0.918  -0.268   1.967  0.00  0.00     0.037 H 
ATOM     11  H9  <0> d           1.596  -1.327   0.692  0.00  0.00     0.037 H 
ENDROOT
BRANCH   1  12
ATOM     12  C1  <0> d           1.690   3.182   0.870  0.00  0.00    -0.045 C 
ATOM     13  H1  <0> d           1.361   2.972   1.888  0.00  0.00     0.031 H 
ATOM     14  H2  <0> d           2.749   3.440   0.876  0.00  0.00     0.031 H 
ATOM     15  H3  <0> d           1.115   4.015   0.468  0.00  0.00     0.031 H 
ENDBRANCH   1  12
BRANCH   1  16
ATOM     16  O2  <0> d           1.897   2.205  -1.340  0.00  0.00    -0.387 OA
ATOM     17  H14 <0> d           1.427   2.935  -1.767  0.00  0.00     0.210 HD
ENDBRANCH   1  16
BRANCH   5  18
ATOM     18  C7  <0> d           3.238   0.214  -0.464  0.00  0.00    -0.045 C 
ATOM     19  H10 <0> d           2.695  -0.086  -1.361  0.00  0.00     0.031 H 
ATOM     20  H11 <0> d           3.955   0.995  -0.719  0.00  0.00     0.031 H 
ATOM     21  H12 <0> d           3.767  -0.646  -0.054  0.00  0.00     0.031 H 
ENDBRANCH   5  18
BRANCH   5  22
ATOM     22  O1  <0> d           2.950   1.145   1.756  0.00  0.00    -0.387 OA
ATOM     23  H13 <0> d           3.445   0.429   2.179  0.00  0.00     0.210 HD
ENDBRANCH   5  22
TORSDOF 4
