REMARK  4 active torsions:
REMARK  status: ('A' for Active; 'I' for Inactive)
REMARK    1  A    between atoms: C1_1  and  C2_2 
REMARK    2  A    between atoms: C6_6  and  N1_9 
REMARK    3  A    between atoms: C7_7  and  C8_8 
REMARK    4  A    between atoms: N1_9  and  C9_10 
ROOT
ATOM      1  C2  <0> d           2.399   0.022  -0.021  0.00  0.00    -0.054 A 
ATOM      2  C3  <0> d           1.208  -0.681  -0.013  0.00  0.00    -0.077 A 
ATOM      3  C4  <0> d           0.002  -0.004   0.002  0.00  0.00    -0.080 A 
ATOM      4  C5  <0> d          -0.017   1.377   0.010  0.00  0.00    -0.057 A 
ATOM      5  C6  <0> d           1.177   2.086   0.002  0.00  0.00     0.034 A 
ATOM      6  C7  <0> d           2.387   1.403  -0.014  0.00  0.00    -0.030 A 
ATOM      7  H4  <0> d           1.220  -1.760  -0.018  0.00  0.00     0.084 H 
ATOM      8  H5  <0> d          -0.926  -0.556   0.008  0.00  0.00     0.083 H 
ATOM      9  H6  <0> d          -0.959   1.905   0.017  0.00  0.00     0.086 H 
ENDROOT
BRANCH   5  10
ATOM     10  N1  <0> d           1.162   3.483   0.009  0.00  0.00    -0.394 N 
ATOM     11  H10 <0> d           2.109   4.043   0.003  0.00  0.00     0.159 HD
BRANCH  10  12
ATOM     12  C9  <0> d          -0.114   4.201   0.025  0.00  0.00    -0.021 C 
ATOM     13  H11 <0> d           0.075   5.285   0.029  0.00  0.00     0.056 H 
ATOM     14  H12 <0> d          -0.680   3.925   0.927  0.00  0.00     0.056 H 
ATOM     15  H13 <0> d          -0.697   3.934  -0.869  0.00  0.00     0.056 H 
ENDBRANCH  10  12
ENDBRANCH   5  10
BRANCH   6  16
ATOM     16  C8  <0> d           3.686   2.168  -0.022  0.00  0.00    -0.049 C 
ATOM     17  H7  <0> d           3.475   3.248  -0.015  0.00  0.00     0.033 H 
ATOM     18  H8  <0> d           4.256   1.912  -0.927  0.00  0.00     0.033 H 
ATOM     19  H9  <0> d           4.273   1.903   0.870  0.00  0.00     0.033 H 
ENDBRANCH   6  16
BRANCH   1  20
ATOM     20  C1  <0> d           3.711  -0.719  -0.037  0.00  0.00    -0.051 C 
ATOM     21  H1  <0> d           3.519  -1.802  -0.040  0.00  0.00     0.033 H 
ATOM     22  H2  <0> d           4.293  -0.453   0.857  0.00  0.00     0.033 H 
ATOM     23  H3  <0> d           4.277  -0.444  -0.939  0.00  0.00     0.033 H 
ENDBRANCH   1  20
TORSDOF 4
