REMARK  3 active torsions:
REMARK  status: ('A' for Active; 'I' for Inactive)
REMARK    1  A    between atoms: C1_1  and  C2_2 
REMARK    2  A    between atoms: C2_2  and  C3_4 
REMARK    3  A    between atoms: C2_2  and  N2_7 
REMARK       I    between atoms: C3_4  and  N1_6 
ROOT
ATOM      1  N2  <0> d           0.713  -0.491   1.192  0.00  0.00     0.105 N 
ATOM      2  C4  <0> d           0.102   0.035   2.422  0.00  0.00     0.134 C 
ATOM      3  C5  <0> d           0.908  -0.447   3.631  0.00  0.00     0.044 C 
ATOM      4  O2  <0> d           0.962  -1.876   3.623  0.00  0.00    -0.388 OA
ATOM      5  C6  <0> d           1.551  -2.422   2.439  0.00  0.00     0.044 C 
ATOM      6  C7  <0> d           0.752  -1.960   1.218  0.00  0.00     0.134 C 
ATOM      7  H7  <0> d           0.106   1.125   2.393  0.00  0.00     0.083 H 
ATOM      8  H8  <0> d          -0.924  -0.323   2.501  0.00  0.00     0.083 H 
ATOM      9  H9  <0> d           1.919  -0.044   3.579  0.00  0.00     0.077 H 
ATOM     10  H10 <0> d           0.426  -0.106   4.548  0.00  0.00     0.077 H 
ATOM     11  H11 <0> d           2.581  -2.077   2.353  0.00  0.00     0.077 H 
ATOM     12  H12 <0> d           1.535  -3.511   2.494  0.00  0.00     0.077 H 
ATOM     13  H13 <0> d          -0.263  -2.351   1.278  0.00  0.00     0.083 H 
ATOM     14  H14 <0> d           1.231  -2.327   0.310  0.00  0.00     0.083 H 
ENDROOT
BRANCH   1  15
ATOM     15  C2  <0> d           0.002  -0.004   0.002  0.00  0.00     0.207 C 
ATOM     16  H1  <0> d          -1.020  -0.381   0.010  0.00  0.00     0.103 H 
BRANCH  15  17
ATOM     17  C1  <0> d          -0.019   1.526   0.010  0.00  0.00    -0.039 C 
ATOM     18  H2  <0> d           1.004   1.903   0.003  0.00  0.00     0.031 H 
ATOM     19  H3  <0> d          -0.546   1.887  -0.873  0.00  0.00     0.031 H 
ATOM     20  H4  <0> d          -0.529   1.877   0.907  0.00  0.00     0.031 H 
ENDBRANCH  15  17
BRANCH  15  21
ATOM     21  C3  <0> d           0.707  -0.490  -1.238  0.00  0.00     0.248 C 
ATOM     22  O1  <0> d           1.704  -1.174  -1.140  0.00  0.00    -0.271 OA
ATOM     23  N1  <0> d           0.231  -0.164  -2.456  0.00  0.00    -0.368 N 
ATOM     24  H5  <0> d          -0.566   0.383  -2.534  0.00  0.00     0.159 HD
ATOM     25  H6  <0> d           0.685  -0.477  -3.254  0.00  0.00     0.159 HD
ENDBRANCH  15  21
ENDBRANCH   1  15
TORSDOF 3
