REMARK  2 active torsions:
REMARK  status: ('A' for Active; 'I' for Inactive)
REMARK    1  A    between atoms: C2_2  and  C3_3 
REMARK    2  A    between atoms: C4_4  and  C5_5 
ROOT
ATOM      1  C5  <0> d           2.585  -2.784  -0.038  0.00  0.00    -0.036 A 
ATOM      2  C6  <0> d           3.788  -2.072  -0.039  0.00  0.00    -0.073 A 
ATOM      3  C7  <0> d           4.988  -2.753  -0.054  0.00  0.00    -0.082 A 
ATOM      4  C8  <0> d           5.002  -4.136  -0.067  0.00  0.00    -0.083 A 
ATOM      5  C9  <0> d           3.815  -4.848  -0.065  0.00  0.00    -0.082 A 
ATOM      6  C10 <0> d           2.608  -4.182  -0.045  0.00  0.00    -0.073 A 
ATOM      7  H6  <0> d           3.778  -0.993  -0.030  0.00  0.00     0.084 H 
ATOM      8  H7  <0> d           5.918  -2.204  -0.056  0.00  0.00     0.083 H 
ATOM      9  H8  <0> d           5.945  -4.664  -0.079  0.00  0.00     0.083 H 
ATOM     10  H9  <0> d           3.835  -5.928  -0.075  0.00  0.00     0.083 H 
ATOM     11  H10 <0> d           1.683  -4.739  -0.040  0.00  0.00     0.084 H 
ENDROOT
BRANCH   1  12
ATOM     12  C4  <0> d           1.300  -2.065  -0.021  0.00  0.00    -0.073 C 
ATOM     13  C3  <0> d           1.281  -0.720  -0.014  0.00  0.00    -0.083 C 
ATOM     14  H4  <0> d           2.209  -0.167  -0.020  0.00  0.00     0.083 H 
ATOM     15  H5  <0> d           0.372  -2.618  -0.015  0.00  0.00     0.084 H 
BRANCH  13  16
ATOM     16  C2  <0> d           0.002  -0.004   0.002  0.00  0.00    -0.092 C 
ATOM     17  C1  <0> d          -0.016   1.328   0.009  0.00  0.00    -0.121 C 
ATOM     18  H1  <0> d           0.912   1.881   0.004  0.00  0.00     0.066 H 
ATOM     19  H2  <0> d          -0.959   1.855   0.017  0.00  0.00     0.066 H 
ATOM     20  H3  <0> d          -0.926  -0.557   0.008  0.00  0.00     0.082 H 
ENDBRANCH  13  16
ENDBRANCH   1  12
TORSDOF 2
