REMARK  0 active torsions:
REMARK  status: ('A' for Active; 'I' for Inactive)
ROOT
ATOM      1  C1  <0> d           1.134   3.176   0.008  0.00  0.00    -0.082 A 
ATOM      2  C2  <0> d           1.170   1.787   0.001  0.00  0.00    -0.082 A 
ATOM      3  C3  <0> d          -0.013   1.076   0.008  0.00  0.00    -0.066 A 
ATOM      4  C4  <0> d          -1.213   1.754   0.017  0.00  0.00     0.016 A 
ATOM      5  C5  <0> d          -1.280   3.167   0.031  0.00  0.00    -0.017 A 
ATOM      6  C6  <0> d          -0.041   3.857   0.023  0.00  0.00    -0.072 A 
ATOM      7  C7  <0> d          -2.579   3.708   0.047  0.00  0.00    -0.045 A 
ATOM      8  C8  <0> d          -3.658   2.881   0.034  0.00  0.00     0.086 A 
ATOM      9  S1  <0> d          -2.917   1.258   0.022  0.00  0.00    -0.079 SA
ATOM     10  C9  <0> d          -5.048   3.228   0.042  0.00  0.00     0.107 C 
ATOM     11  N1  <0> d          -6.150   3.503   0.049  0.00  0.00    -0.191 NA
ATOM     12  H1  <0> d           2.062   3.728   0.002  0.00  0.00     0.083 H 
ATOM     13  H2  <0> d           2.117   1.268  -0.012  0.00  0.00     0.083 H 
ATOM     14  H3  <0> d           0.002  -0.004   0.002  0.00  0.00     0.085 H 
ATOM     15  H4  <0> d          -0.032   4.937   0.028  0.00  0.00     0.084 H 
ATOM     16  H5  <0> d          -2.718   4.779   0.054  0.00  0.00     0.087 H 
ENDROOT
TORSDOF 0
