REMARK  4 active torsions:
REMARK  status: ('A' for Active; 'I' for Inactive)
REMARK    1  A    between atoms: C1_1  and  O1_2 
REMARK    2  A    between atoms: O1_2  and  C2_3 
REMARK    3  A    between atoms: C2_3  and  C3_5 
REMARK    4  A    between atoms: C6_8  and  O3_11 
ROOT
ATOM      1  C3  <0> d          -2.188   1.063  -1.221  0.00  0.00     0.030 C 
ATOM      2  C4  <0> d          -0.753   1.593  -1.232  0.00  0.00    -0.051 C 
ATOM      3  C5  <0> d          -0.013   1.086   0.008  0.00  0.00    -0.040 C 
ATOM      4  C6  <0> d          -0.729   1.579   1.267  0.00  0.00     0.035 C 
ATOM      5  C7  <0> d          -2.164   1.050   1.278  0.00  0.00    -0.040 C 
ATOM      6  C8  <0> d          -2.904   1.556   0.038  0.00  0.00    -0.051 C 
ATOM      7  H4  <0> d          -2.181  -0.037  -1.240  0.00  0.00     0.055 H 
ATOM      8  H5  <0> d          -0.238   1.238  -2.136  0.00  0.00     0.034 H 
ATOM      9  H6  <0> d          -0.768   2.693  -1.225  0.00  0.00     0.034 H 
ATOM     10  H7  <0> d           0.002  -0.014   0.002  0.00  0.00     0.036 H 
ATOM     11  H8  <0> d           1.019   1.466   0.000  0.00  0.00     0.036 H 
ATOM     12  H9  <0> d          -0.187   1.281   2.176  0.00  0.00     0.082 H 
ATOM     13  H10 <0> d          -2.149  -0.050   1.272  0.00  0.00     0.036 H 
ATOM     14  H11 <0> d          -2.679   1.405   2.183  0.00  0.00     0.036 H 
ATOM     15  H12 <0> d          -2.919   2.656   0.044  0.00  0.00     0.034 H 
ATOM     16  H13 <0> d          -3.936   1.176   0.046  0.00  0.00     0.034 H 
ENDROOT
BRANCH   1  17
ATOM     17  C2  <0> d          -2.917   1.562  -2.442  0.00  0.00     0.262 C 
ATOM     18  O2  <0> d          -2.347   2.269  -3.239  0.00  0.00    -0.265 OA
BRANCH  17  19
ATOM     19  O1  <0> d          -4.199   1.222  -2.644  0.00  0.00    -0.326 OA
BRANCH  19  20
ATOM     20  C1  <0> d          -4.838   1.739  -3.841  0.00  0.00     0.013 C 
ATOM     21  H1  <0> d          -5.879   1.386  -3.882  0.00  0.00     0.067 H 
ATOM     22  H2  <0> d          -4.295   1.384  -4.729  0.00  0.00     0.067 H 
ATOM     23  H3  <0> d          -4.825   2.838  -3.817  0.00  0.00     0.067 H 
ENDBRANCH  19  20
ENDBRANCH  17  19
ENDBRANCH   1  17
BRANCH   4  24
ATOM     24  O3  <0> d          -0.748   3.008   1.275  0.00  0.00    -0.396 OA
ATOM     25  H14 <0> d          -1.224   3.547   2.107  0.00  0.00     0.210 HD
ENDBRANCH   4  24
TORSDOF 4
