REMARK  2 active torsions:
REMARK  status: ('A' for Active; 'I' for Inactive)
REMARK    1  A    between atoms: C1_1  and  C2_2 
REMARK    2  A    between atoms: C5_5  and  S1_8 
ROOT
ATOM      1  C2  <0> d           0.040  -2.768  -0.013  0.00  0.00    -0.062 A 
ATOM      2  C3  <0> d          -0.217  -2.074  -1.181  0.00  0.00    -0.076 A 
ATOM      3  C4  <0> d          -0.236  -0.692  -1.173  0.00  0.00    -0.061 A 
ATOM      4  C5  <0> d           0.002  -0.004   0.002  0.00  0.00     0.074 A 
ATOM      5  C6  <0> d           0.265  -0.698   1.168  0.00  0.00    -0.061 A 
ATOM      6  C7  <0> d           0.279  -2.080   1.162  0.00  0.00    -0.076 A 
ATOM      7  H4  <0> d          -0.404  -2.612  -2.099  0.00  0.00     0.084 H 
ATOM      8  H5  <0> d          -0.437  -0.150  -2.085  0.00  0.00     0.085 H 
ATOM      9  H6  <0> d           0.455  -0.161   2.085  0.00  0.00     0.085 H 
ATOM     10  H7  <0> d           0.480  -2.623   2.074  0.00  0.00     0.084 H 
ENDROOT
BRANCH   1  11
ATOM     11  C1  <0> d           0.059  -4.275  -0.021  0.00  0.00    -0.051 C 
ATOM     12  H1  <0> d           1.069  -4.625  -0.236  0.00  0.00     0.033 H 
ATOM     13  H2  <0> d          -0.254  -4.648   0.954  0.00  0.00     0.033 H 
ATOM     14  H3  <0> d          -0.623  -4.643  -0.787  0.00  0.00     0.033 H 
ENDBRANCH   1  11
BRANCH   4  15
ATOM     15  S1  <0> d          -0.022   1.758   0.012  0.00  0.00     0.286 S 
ATOM     16  O1  <0> d           1.352   2.120   0.001  0.00  0.00    -0.206 OA
ATOM     17  O2  <0> d          -0.485   2.112   1.418  0.00  0.00    -0.206 OA
ENDBRANCH   4  15
TORSDOF 2
