REMARK  0 active torsions:
REMARK  status: ('A' for Active; 'I' for Inactive)
ROOT
ATOM      1  C1  <0> d          -0.016   1.319   0.009  0.00  0.00     0.047 A 
ATOM      2  C2  <0> d           1.186   2.011   0.002  0.00  0.00     0.174 A 
ATOM      3  C3  <0> d           2.369   1.284  -0.014  0.00  0.00     0.170 A 
ATOM      4  N1  <0> d           2.312  -0.040  -0.020  0.00  0.00    -0.190 NA
ATOM      5  C4  <0> d           1.147  -0.666  -0.013  0.00  0.00     0.300 A 
ATOM      6  O1  <0> d           1.126  -2.021  -0.019  0.00  0.00    -0.147 OA
ATOM      7  N2  <0> d           0.002  -0.004   0.002  0.00  0.00    -0.214 NA
ATOM      8 Cl1  <0> d           3.903   2.098  -0.025  0.00  0.00    -0.059 Cl
ATOM      9  F1  <0> d           1.205   3.362   0.008  0.00  0.00    -0.201 F 
ATOM     10  H1  <0> d          -0.954   1.853   0.026  0.00  0.00     0.119 H 
ENDROOT
TORSDOF 0
