REMARK  2 active torsions:
REMARK  status: ('A' for Active; 'I' for Inactive)
REMARK    1  A    between atoms: C1_1  and  C2_2 
REMARK    2  A    between atoms: C6_7  and  C7_8 
ROOT
ATOM      1  C2  <0> d          -0.742   1.585  -1.213  0.00  0.00    -0.046 A 
ATOM      2  C3  <0> d          -1.271   0.682  -2.136  0.00  0.00    -0.025 A 
ATOM      3  C4  <0> d          -1.929   1.146  -3.238  0.00  0.00     0.182 A 
ATOM      4  N1  <0> d          -2.074   2.483  -3.445  0.00  0.00    -0.301 N 
ATOM      5  C5  <0> d          -1.571   3.372  -2.568  0.00  0.00     0.253 A 
ATOM      6  C6  <0> d          -0.896   2.928  -1.425  0.00  0.00     0.012 A 
ATOM      7  O1  <0> d          -1.708   4.569  -2.768  0.00  0.00    -0.268 OA
ATOM      8  O2  <0> d          -2.441   0.270  -4.131  0.00  0.00    -0.172 OA
ATOM      9  H4  <0> d          -1.160  -0.380  -1.978  0.00  0.00     0.091 H 
ATOM     10  H8  <0> d          -2.544   2.798  -4.233  0.00  0.00     0.171 HD
ENDROOT
BRANCH   1  11
ATOM     11  C1  <0> d          -0.013   1.086   0.008  0.00  0.00    -0.050 C 
ATOM     12  H1  <0> d           0.002  -0.004   0.002  0.00  0.00     0.033 H 
ATOM     13  H2  <0> d           1.010   1.463   0.000  0.00  0.00     0.033 H 
ATOM     14  H3  <0> d          -0.523   1.437   0.905  0.00  0.00     0.033 H 
ENDBRANCH   1  11
BRANCH   6  15
ATOM     15  C7  <0> d          -0.338   3.921  -0.438  0.00  0.00    -0.045 C 
ATOM     16  H5  <0> d           0.682   4.180  -0.721  0.00  0.00     0.033 H 
ATOM     17  H6  <0> d          -0.955   4.820  -0.439  0.00  0.00     0.033 H 
ATOM     18  H7  <0> d          -0.338   3.482   0.559  0.00  0.00     0.033 H 
ENDBRANCH   6  15
TORSDOF 2
