REMARK  3 active torsions:
REMARK  status: ('A' for Active; 'I' for Inactive)
REMARK    1  A    between atoms: C1_1  and  C2_2 
REMARK    2  A    between atoms: C4_5  and  C6_9 
REMARK    3  A    between atoms: C5_6  and  N3_8 
ROOT
ATOM      1  C2  <0> d           1.813   0.029  -0.925  0.00  0.00     0.124 A 
ATOM      2  N1  <0> d           1.141  -0.629   0.002  0.00  0.00    -0.245 NA
ATOM      3  C3  <0> d           0.481   0.011   0.952  0.00  0.00     0.024 A 
ATOM      4  C4  <0> d           0.500   1.409   0.967  0.00  0.00     0.103 A 
ATOM      5  C5  <0> d           1.230   2.072  -0.042  0.00  0.00     0.141 A 
ATOM      6  N2  <0> d           1.863   1.344  -0.957  0.00  0.00    -0.216 NA
ATOM      7  H4  <0> d          -0.064  -0.538   1.705  0.00  0.00     0.116 H 
ENDROOT
BRANCH   1   8
ATOM      8  C1  <0> d           2.546  -0.753  -1.984  0.00  0.00    -0.019 C 
ATOM      9  H1  <0> d           1.885  -0.924  -2.834  0.00  0.00     0.037 H 
ATOM     10  H2  <0> d           3.420  -0.190  -2.312  0.00  0.00     0.037 H 
ATOM     11  H3  <0> d           2.864  -1.712  -1.574  0.00  0.00     0.037 H 
ENDBRANCH   1   8
BRANCH   5  12
ATOM     12  N3  <0> d           1.284   3.449  -0.080  0.00  0.00    -0.383 N 
ATOM     13  H5  <0> d           0.629   3.974   0.406  0.00  0.00     0.157 HD
ATOM     14  H6  <0> d           1.979   3.893  -0.591  0.00  0.00     0.157 HD
ENDBRANCH   5  12
BRANCH   4  15
ATOM     15  C6  <0> d          -0.225   2.166   2.002  0.00  0.00     0.214 C 
ATOM     16  O1  <0> d          -0.109   3.374   2.063  0.00  0.00    -0.644 OA
ATOM     17  O2  <0> d          -1.016   1.519   2.880  0.00  0.00    -0.644 OA
ENDBRANCH   4  15
TORSDOF 3
