REMARK  5 active torsions:
REMARK  status: ('A' for Active; 'I' for Inactive)
REMARK    1  A    between atoms: C1_1  and  C2_2 
REMARK    2  A    between atoms: C2_2  and  C3_3 
REMARK    3  A    between atoms: C2_2  and  C4_4 
REMARK    4  A    between atoms: C2_2  and  C5_5 
REMARK    5  A    between atoms: C7_7  and  N2_10 
ROOT
ATOM      1  C2  <0> d           1.919  -1.694  -0.025  0.00  0.00     0.000 C 
ENDROOT
BRANCH   1   2
ATOM      2  C1  <0> d           1.450  -2.443  -1.274  0.00  0.00    -0.064 C 
ATOM      3  H1  <0> d           1.767  -1.900  -2.164  0.00  0.00     0.028 H 
ATOM      4  H2  <0> d           1.884  -3.442  -1.284  0.00  0.00     0.028 H 
ATOM      5  H3  <0> d           0.362  -2.520  -1.264  0.00  0.00     0.028 H 
ENDBRANCH   1   2
BRANCH   1   6
ATOM      6  C3  <0> d           3.446  -1.586  -0.039  0.00  0.00    -0.064 C 
ATOM      7  H4  <0> d           3.780  -1.053   0.850  0.00  0.00     0.028 H 
ATOM      8  H5  <0> d           3.880  -2.586  -0.049  0.00  0.00     0.028 H 
ATOM      9  H6  <0> d           3.763  -1.044  -0.929  0.00  0.00     0.028 H 
ENDBRANCH   1   6
BRANCH   1  10
ATOM     10  C4  <0> d           1.474  -2.456   1.224  0.00  0.00    -0.064 C 
ATOM     11  H7  <0> d           0.386  -2.533   1.234  0.00  0.00     0.028 H 
ATOM     12  H8  <0> d           1.908  -3.456   1.215  0.00  0.00     0.028 H 
ATOM     13  H9  <0> d           1.808  -1.923   2.114  0.00  0.00     0.028 H 
ENDBRANCH   1  10
BRANCH   1  14
ATOM     14  C5  <0> d           1.319  -0.312  -0.012  0.00  0.00     0.090 A 
ATOM     15  O1  <0> d           1.985   0.851  -0.012  0.00  0.00    -0.215 OA
ATOM     16  N1  <0> d           1.234   1.798  -0.000  0.00  0.00    -0.111 NA
ATOM     17  C7  <0> d          -0.017   1.417   0.010  0.00  0.00     0.151 A 
ATOM     18  C6  <0> d           0.002  -0.004   0.002  0.00  0.00    -0.005 A 
ATOM     19  H10 <0> d          -0.840  -0.681   0.006  0.00  0.00     0.093 H 
BRANCH  17  20
ATOM     20  N2  <0> d          -1.141   2.237   0.020  0.00  0.00    -0.382 N 
ATOM     21  H11 <0> d          -2.028   1.844   0.022  0.00  0.00     0.157 HD
ATOM     22  H12 <0> d          -1.037   3.201   0.025  0.00  0.00     0.157 HD
ENDBRANCH  17  20
ENDBRANCH   1  14
TORSDOF 5
