REMARK  3 active torsions:
REMARK  status: ('A' for Active; 'I' for Inactive)
REMARK    1  A    between atoms: C1_1  and  C2_2 
REMARK    2  A    between atoms: C2_2  and  N1_3 
REMARK    3  A    between atoms: N1_3  and  C3_4 
ROOT
ATOM      1  C3  <0> d          -0.848   3.362   1.444  0.00  0.00     0.142 A 
ATOM      2  C4  <0> d          -0.335   4.281   0.531  0.00  0.00     0.046 A 
ATOM      3  N2  <0> d          -0.477   5.574   0.750  0.00  0.00    -0.266 NA
ATOM      4  C5  <0> d          -1.096   5.999   1.838  0.00  0.00     0.041 A 
ATOM      5  C6  <0> d          -1.603   5.090   2.750  0.00  0.00     0.145 A 
ATOM      6  N3  <0> d          -1.468   3.792   2.535  0.00  0.00    -0.216 NA
ATOM      7 Cl1  <0> d          -2.414   5.655   4.177  0.00  0.00    -0.061 Cl
ATOM      8  H7  <0> d           0.174   3.934  -0.356  0.00  0.00     0.120 H 
ATOM      9  H8  <0> d          -1.206   7.059   2.016  0.00  0.00     0.119 H 
ENDROOT
BRANCH   1  10
ATOM     10  N1  <0> d          -0.704   1.998   1.216  0.00  0.00    -0.374 N 
ATOM     11  H6  <0> d          -1.058   1.359   1.854  0.00  0.00     0.161 HD
BRANCH  10  12
ATOM     12  C2  <0> d          -0.019   1.526   0.010  0.00  0.00    -0.009 C 
ATOM     13  H4  <0> d           1.004   1.903   0.003  0.00  0.00     0.063 H 
ATOM     14  H5  <0> d          -0.546   1.887  -0.873  0.00  0.00     0.063 H 
BRANCH  12  15
ATOM     15  C1  <0> d           0.002  -0.004   0.002  0.00  0.00    -0.061 C 
ATOM     16  H1  <0> d          -1.020  -0.381   0.010  0.00  0.00     0.029 H 
ATOM     17  H2  <0> d           0.512  -0.356  -0.895  0.00  0.00     0.029 H 
ATOM     18  H3  <0> d           0.529  -0.365   0.885  0.00  0.00     0.029 H 
ENDBRANCH  12  15
ENDBRANCH  10  12
ENDBRANCH   1  10
TORSDOF 3
