REMARK  7 active torsions:
REMARK  status: ('A' for Active; 'I' for Inactive)
REMARK    1  A    between atoms: C1_1  and  C2_2 
REMARK    2  A    between atoms: C2_2  and  C3_3 
REMARK    3  A    between atoms: C3_3  and  C4_5 
REMARK    4  A    between atoms: C3_3  and  C5_6 
REMARK    5  A    between atoms: C5_6  and  C6_8 
REMARK    6  A    between atoms: C5_6  and  C7_9 
REMARK    7  A    between atoms: C7_9  and  O1_10 
ROOT
ATOM      1  C3  <0> d          -0.729   1.579   1.267  0.00  0.00    -0.053 C 
ATOM      2  H1  <0> d          -1.751   1.202   1.275  0.00  0.00     0.040 H 
ENDROOT
BRANCH   1   3
ATOM      3  C2  <0> d          -0.750   3.109   1.275  0.00  0.00    -0.065 C 
ATOM      4  H6  <0> d          -1.180   3.462   2.213  0.00  0.00     0.033 H 
ATOM      5  H7  <0> d           0.268   3.487   1.178  0.00  0.00     0.033 H 
BRANCH   3   6
ATOM      6  C1  <0> d          -1.595   3.614   0.104  0.00  0.00    -0.076 C 
ATOM      7  H3  <0> d          -1.610   4.704   0.110  0.00  0.00     0.027 H 
ATOM      8  H4  <0> d          -1.165   3.262  -0.833  0.00  0.00     0.027 H 
ATOM      9  H5  <0> d          -2.613   3.236   0.202  0.00  0.00     0.027 H 
ENDBRANCH   3   6
ENDBRANCH   1   3
BRANCH   1  10
ATOM     10  C4  <0> d          -0.013   1.086   0.008  0.00  0.00    -0.072 C 
ATOM     11  H8  <0> d           0.002  -0.004   0.002  0.00  0.00     0.028 H 
ATOM     12  H9  <0> d           1.010   1.463   0.000  0.00  0.00     0.028 H 
ATOM     13  H10 <0> d          -0.540   1.447  -0.875  0.00  0.00     0.028 H 
ENDBRANCH   1  10
BRANCH   1  14
ATOM     14  C5  <0> d           0.011   1.072   2.506  0.00  0.00    -0.034 C 
ATOM     15  H2  <0> d           1.034   1.450   2.499  0.00  0.00     0.043 H 
BRANCH  14  16
ATOM     16  C6  <0> d           0.032  -0.457   2.498  0.00  0.00    -0.071 C 
ATOM     17  H11 <0> d           0.559  -0.819   3.381  0.00  0.00     0.028 H 
ATOM     18  H12 <0> d          -0.991  -0.835   2.506  0.00  0.00     0.028 H 
ATOM     19  H13 <0> d           0.542  -0.809   1.601  0.00  0.00     0.028 H 
ENDBRANCH  14  16
BRANCH  14  20
ATOM     20  C7  <0> d          -0.705   1.566   3.765  0.00  0.00     0.020 C 
ATOM     21  H14 <0> d          -0.798   2.651   3.728  0.00  0.00     0.074 H 
ATOM     22  H15 <0> d          -1.697   1.117   3.818  0.00  0.00     0.074 H 
BRANCH  20  23
ATOM     23  O1  <0> d           0.049   1.192   4.920  0.00  0.00    -0.400 OA
ATOM     24  H16 <0> d          -0.347   1.473   5.756  0.00  0.00     0.209 HD
ENDBRANCH  20  23
ENDBRANCH  14  20
ENDBRANCH   1  14
TORSDOF 7
