REMARK  1 active torsions:
REMARK  status: ('A' for Active; 'I' for Inactive)
REMARK    1  A    between atoms: C3_3  and  N3_7 
ROOT
ATOM      1  C1  <0> d           0.002  -0.004   0.002  0.00  0.00     0.045 A 
ATOM      2  C2  <0> d           1.351  -0.428  -0.013  0.00  0.00     0.108 A 
ATOM      3  C3  <0> d           2.138   0.721  -0.015  0.00  0.00     0.137 A 
ATOM      4  N1  <0> d           1.299   1.777  -0.001  0.00  0.00    -0.262 N 
ATOM      5  H1  <0> d           1.571   2.740   0.002  0.00  0.00     0.191 HD
ATOM      6  N2  <0> d          -0.016   1.299   0.009  0.00  0.00    -0.184 NA
ATOM      7  C4  <0> d           1.819  -1.781  -0.025  0.00  0.00     0.105 C 
ATOM      8  N4  <0> d           2.190  -2.854  -0.034  0.00  0.00    -0.191 NA
ATOM      9  H2  <0> d          -0.864  -0.649   0.007  0.00  0.00     0.119 H 
ENDROOT
BRANCH   3  10
ATOM     10  N3  <0> d           3.519   0.769  -0.027  0.00  0.00    -0.383 N 
ATOM     11  H3  <0> d           4.034  -0.053  -0.035  0.00  0.00     0.157 HD
ATOM     12  H4  <0> d           3.974   1.626  -0.026  0.00  0.00     0.157 HD
ENDBRANCH   3  10
TORSDOF 1
