REMARK  0 active torsions:
REMARK  status: ('A' for Active; 'I' for Inactive)
ROOT
ATOM      1  C1  <0> d           0.859   3.456   0.012  0.00  0.00    -0.049 A 
ATOM      2  C2  <0> d          -0.484   3.530   0.025  0.00  0.00    -0.020 A 
ATOM      3  N1  <0> d          -1.015   2.267   0.018  0.00  0.00    -0.351 N 
ATOM      4  H1  <0> d          -2.106   2.130   0.021  0.00  0.00     0.166 HD
ATOM      5  C3  <0> d          -0.016   1.339   0.009  0.00  0.00     0.122 A 
ATOM      6  C4  <0> d           1.199   2.036   0.002  0.00  0.00     0.079 A 
ATOM      7  C5  <0> d           2.408   1.302  -0.013  0.00  0.00     0.281 A 
ATOM      8  O1  <0> d           3.487   1.870  -0.020  0.00  0.00    -0.265 OA
ATOM      9  N2  <0> d           2.333  -0.049  -0.021  0.00  0.00    -0.205 NA
ATOM     10  C6  <0> d           1.124  -0.666  -0.012  0.00  0.00     0.069 A 
ATOM     11  N3  <0> d           0.002  -0.004   0.002  0.00  0.00    -0.336 N 
ATOM     12  H2  <0> d           1.550   4.285   0.010  0.00  0.00     0.087 H 
ATOM     13  H3  <0> d          -1.057   4.446   0.034  0.00  0.00     0.111 H 
ATOM     14  H4  <0> d           1.091  -1.745  -0.017  0.00  0.00     0.143 H 
ATOM     15  H5  <0> d          -0.943  -0.567   0.008  0.00  0.00     0.168 HD
ENDROOT
TORSDOF 0
