REMARK  2 active torsions:
REMARK  status: ('A' for Active; 'I' for Inactive)
REMARK    1  A    between atoms: C1_1  and  N1_2 
REMARK    2  A    between atoms: N2_5  and  C5_8 
ROOT
ATOM      1  N1  <0> d          -0.762   1.593  -1.161  0.00  0.00     0.150 N 
ATOM      2  C2  <0> d          -0.013   1.086   0.008  0.00  0.00     0.143 C 
ATOM      3  C3  <0> d          -0.772   1.602   1.249  0.00  0.00     0.143 C 
ATOM      4  N2  <0> d          -1.522   2.779   0.729  0.00  0.00     0.150 N 
ATOM      5  C4  <0> d          -1.921   2.348  -0.635  0.00  0.00     0.442 C 
ATOM      6  F1  <0> d          -2.178   3.463  -1.440  0.00  0.00    -0.184 F 
ATOM      7  H4  <0> d           0.008  -0.014  -0.019  0.00  0.00     0.082 H 
ATOM      8  H5  <0> d           1.016   1.473  -0.020  0.00  0.00     0.082 H 
ATOM      9  H6  <0> d          -1.438   0.812   1.626  0.00  0.00     0.082 H 
ATOM     10  H7  <0> d          -0.050   1.877   2.032  0.00  0.00     0.082 H 
ATOM     11  H8  <0> d          -2.860   1.776  -0.660  0.00  0.00     0.195 H 
ENDROOT
BRANCH   1  12
ATOM     12  C1  <0> d          -1.202   0.488  -2.024  0.00  0.00     0.101 C 
ATOM     13  H1  <0> d          -0.323  -0.055  -2.400  0.00  0.00     0.072 H 
ATOM     14  H2  <0> d          -1.775   0.891  -2.872  0.00  0.00     0.072 H 
ATOM     15  H3  <0> d          -1.837  -0.199  -1.445  0.00  0.00     0.072 H 
ENDBRANCH   1  12
BRANCH   4  16
ATOM     16  C5  <0> d          -2.702   3.059   1.558  0.00  0.00     0.101 C 
ATOM     17  H9  <0> d          -3.236   3.931   1.152  0.00  0.00     0.072 H 
ATOM     18  H10 <0> d          -2.384   3.272   2.589  0.00  0.00     0.072 H 
ATOM     19  H11 <0> d          -3.370   2.185   1.553  0.00  0.00     0.072 H 
ENDBRANCH   4  16
TORSDOF 2
