REMARK  2 active torsions:
REMARK  status: ('A' for Active; 'I' for Inactive)
REMARK    1  A    between atoms: C2_2  and  C5_7 
REMARK    2  A    between atoms: C3_3  and  N1_6 
ROOT
ATOM      1  C1  <0> d          -1.090  -2.152   0.001  0.00  0.00    -0.026 A 
ATOM      2  C2  <0> d          -1.219  -0.776   0.015  0.00  0.00     0.073 A 
ATOM      3  C3  <0> d           0.002  -0.004   0.002  0.00  0.00     0.050 A 
ATOM      4  C4  <0> d           1.164  -0.696  -0.012  0.00  0.00    -0.019 A 
ATOM      5  S1  <0> d           0.625  -2.393  -0.016  0.00  0.00    -0.110 SA
ATOM      6  H1  <0> d          -1.871  -2.898   0.005  0.00  0.00     0.096 H 
ATOM      7  H2  <0> d           2.173  -0.312  -0.020  0.00  0.00     0.098 H 
ENDROOT
BRANCH   2   8
ATOM      8  C5  <0> d          -2.537  -0.129   0.037  0.00  0.00     0.212 C 
ATOM      9  O1  <0> d          -2.618   1.084   0.045  0.00  0.00    -0.644 OA
ATOM     10  O2  <0> d          -3.656  -0.880   0.049  0.00  0.00    -0.644 OA
ENDBRANCH   2   8
BRANCH   3  11
ATOM     11  N1  <0> d          -0.017   1.400   0.010  0.00  0.00    -0.398 N 
ATOM     12  H3  <0> d           0.816   1.896   0.004  0.00  0.00     0.156 HD
ATOM     13  H4  <0> d          -0.864   1.873   0.016  0.00  0.00     0.156 HD
ENDBRANCH   3  11
TORSDOF 2
