REMARK  7 active torsions:
REMARK  status: ('A' for Active; 'I' for Inactive)
REMARK    1  A    between atoms: C1_1  and  C2_2 
REMARK    2  A    between atoms: C2_2  and  C3_3 
REMARK    3  A    between atoms: C3_3  and  C4_5 
REMARK    4  A    between atoms: C3_3  and  C5_6 
REMARK    5  A    between atoms: C5_6  and  C6_7 
REMARK    6  A    between atoms: C6_7  and  N1_9 
REMARK    7  A    between atoms: C6_7  and  O1_10 
ROOT
ATOM      1  C3  <0> d          -3.060   1.575  -2.174  0.00  0.00    -0.054 C 
ATOM      2  H1  <0> d          -2.566   1.448  -3.138  0.00  0.00     0.039 H 
ENDROOT
BRANCH   1   3
ATOM      3  C2  <0> d          -4.432   0.899  -2.211  0.00  0.00    -0.065 C 
ATOM      4  H6  <0> d          -4.304  -0.177  -2.330  0.00  0.00     0.033 H 
ATOM      5  H7  <0> d          -4.962   1.101  -1.281  0.00  0.00     0.033 H 
BRANCH   3   6
ATOM      6  C1  <0> d          -5.240   1.449  -3.389  0.00  0.00    -0.076 C 
ATOM      7  H3  <0> d          -6.217   0.968  -3.415  0.00  0.00     0.027 H 
ATOM      8  H4  <0> d          -5.368   2.525  -3.270  0.00  0.00     0.027 H 
ATOM      9  H5  <0> d          -4.710   1.247  -4.319  0.00  0.00     0.027 H 
ENDBRANCH   3   6
ENDBRANCH   1   3
BRANCH   1  10
ATOM     10  C4  <0> d          -3.235   3.067  -1.883  0.00  0.00    -0.073 C 
ATOM     11  H8  <0> d          -3.729   3.194  -0.920  0.00  0.00     0.028 H 
ATOM     12  H9  <0> d          -2.257   3.549  -1.857  0.00  0.00     0.028 H 
ATOM     13  H10 <0> d          -3.842   3.522  -2.666  0.00  0.00     0.028 H 
ENDBRANCH   1  10
BRANCH   1  14
ATOM     14  C5  <0> d          -2.207   0.938  -1.076  0.00  0.00    -0.012 C 
ATOM     15  H11 <0> d          -2.156  -0.139  -1.234  0.00  0.00     0.040 H 
ATOM     16  H12 <0> d          -2.655   1.142  -0.103  0.00  0.00     0.040 H 
BRANCH  14  17
ATOM     17  C6  <0> d          -0.795   1.527  -1.120  0.00  0.00     0.219 C 
ATOM     18  H2  <0> d          -0.853   2.613  -1.050  0.00  0.00     0.132 H 
BRANCH  17  19
ATOM     19  N1  <0> d          -0.012   1.005   0.008  0.00  0.00     0.106 N 
ATOM     20  H13 <0> d           0.002  -0.004   0.002  0.00  0.00     0.316 HD
ATOM     21  H14 <0> d           0.925   1.379   0.001  0.00  0.00     0.316 HD
ENDBRANCH  17  19
BRANCH  17  22
ATOM     22  O1  <0> d          -0.165   1.161  -2.349  0.00  0.00    -0.368 OA
ATOM     23  H15 <0> d          -0.080   0.206  -2.478  0.00  0.00     0.212 HD
ENDBRANCH  17  22
ENDBRANCH  14  17
ENDBRANCH   1  14
TORSDOF 7
