REMARK  2 active torsions:
REMARK  status: ('A' for Active; 'I' for Inactive)
REMARK    1  A    between atoms: C1_1  and  C2_2 
REMARK    2  A    between atoms: C4_4  and  C6_7 
ROOT
ATOM      1  C2  <0> d           1.298   2.058   0.001  0.00  0.00    -0.054 A 
ATOM      2  C3  <0> d           2.237   1.058  -0.014  0.00  0.00    -0.053 A 
ATOM      3  C4  <0> d           1.769  -0.248  -0.016  0.00  0.00     0.081 A 
ATOM      4  S1  <0> d           0.002  -0.004   0.002  0.00  0.00    -0.095 SA
ATOM      5  C5  <0> d          -0.021   1.729   0.012  0.00  0.00    -0.038 A 
ATOM      6  H4  <0> d           3.294   1.278  -0.022  0.00  0.00     0.086 H 
ATOM      7  H5  <0> d          -0.877   2.389   0.019  0.00  0.00     0.095 H 
ENDROOT
BRANCH   1   8
ATOM      8  C1  <0> d           1.723   3.504   0.004  0.00  0.00    -0.051 C 
ATOM      9  H1  <0> d           1.836   3.847   1.032  0.00  0.00     0.033 H 
ATOM     10  H2  <0> d           2.674   3.604  -0.519  0.00  0.00     0.033 H 
ATOM     11  H3  <0> d           0.967   4.106  -0.499  0.00  0.00     0.033 H 
ENDBRANCH   1   8
BRANCH   3  12
ATOM     12  C6  <0> d           2.528  -1.500  -0.030  0.00  0.00     0.216 C 
ATOM     13  O1  <0> d           3.744  -1.474  -0.042  0.00  0.00    -0.643 OA
ATOM     14  O2  <0> d           1.879  -2.682  -0.030  0.00  0.00    -0.643 OA
ENDBRANCH   3  12
TORSDOF 2
