REMARK  0 active torsions:
REMARK  status: ('A' for Active; 'I' for Inactive)
ROOT
ATOM      1  C1  <0> d          -0.017   1.380   0.010  0.00  0.00    -0.082 A 
ATOM      2  C2  <0> d           1.167   2.096   0.002  0.00  0.00    -0.082 A 
ATOM      3  C3  <0> d           2.379   1.435  -0.013  0.00  0.00    -0.072 A 
ATOM      4  C4  <0> d           2.403   0.042  -0.021  0.00  0.00    -0.030 A 
ATOM      5  C5  <0> d           1.205  -0.676  -0.013  0.00  0.00    -0.048 A 
ATOM      6  C6  <0> d           0.002  -0.004   0.002  0.00  0.00    -0.076 A 
ATOM      7  C7  <0> d           1.247  -2.181  -0.020  0.00  0.00    -0.037 C 
ATOM      8  C8  <0> d           2.437  -2.663  -0.847  0.00  0.00    -0.046 C 
ATOM      9  C9  <0> d           3.699  -1.965  -0.421  0.00  0.00    -0.102 C 
ATOM     10  C10 <0> d           3.683  -0.696  -0.039  0.00  0.00    -0.076 C 
ATOM     11  H1  <0> d          -0.961   1.904   0.026  0.00  0.00     0.083 H 
ATOM     12  H2  <0> d           1.143   3.176   0.008  0.00  0.00     0.083 H 
ATOM     13  H3  <0> d           3.303   1.994  -0.020  0.00  0.00     0.084 H 
ATOM     14  H4  <0> d          -0.926  -0.557   0.008  0.00  0.00     0.084 H 
ATOM     15  H5  <0> d           1.346  -2.546   1.003  0.00  0.00     0.040 H 
ATOM     16  H6  <0> d           0.325  -2.567  -0.453  0.00  0.00     0.040 H 
ATOM     17  H7  <0> d           2.558  -3.737  -0.711  0.00  0.00     0.039 H 
ATOM     18  H8  <0> d           2.250  -2.454  -1.900  0.00  0.00     0.039 H 
ATOM     19  H9  <0> d           4.633  -2.506  -0.427  0.00  0.00     0.076 H 
ATOM     20  H10 <0> d           4.598  -0.205   0.257  0.00  0.00     0.084 H 
ENDROOT
TORSDOF 0
