REMARK  1 active torsions:
REMARK  status: ('A' for Active; 'I' for Inactive)
REMARK    1  A    between atoms: C6_6  and  O1_7 
ROOT
ATOM      1  C1  <0> d          -0.017   1.388   0.010  0.00  0.00    -0.050 A 
ATOM      2  C2  <0> d           1.154   2.089   0.002  0.00  0.00    -0.064 A 
ATOM      3  C3  <0> d           2.378   1.409  -0.013  0.00  0.00     0.045 A 
ATOM      4  C4  <0> d           2.408   0.005  -0.021  0.00  0.00     0.086 A 
ATOM      5  C5  <0> d           1.205  -0.692  -0.013  0.00  0.00    -0.018 A 
ATOM      6  C6  <0> d           0.002  -0.004   0.002  0.00  0.00     0.068 A 
ATOM      7  O2  <0> d           3.681  -0.455  -0.036  0.00  0.00    -0.343 OA
ATOM      8  C7  <0> d           4.606   0.633  -0.039  0.00  0.00     0.085 A 
ATOM      9  C8  <0> d           3.765   1.892  -0.024  0.00  0.00     0.186 A 
ATOM     10  O3  <0> d           4.151   3.042  -0.021  0.00  0.00    -0.290 OA
ATOM     11  H1  <0> d          -0.960   1.914   0.026  0.00  0.00     0.087 H 
ATOM     12  H2  <0> d           1.137   3.169   0.008  0.00  0.00     0.085 H 
ATOM     13  H3  <0> d           1.208  -1.772  -0.019  0.00  0.00     0.092 H 
ATOM     14  H5  <0> d           5.237   0.592   0.849  0.00  0.00     0.087 H 
ATOM     15  H6  <0> d           5.220   0.602  -0.939  0.00  0.00     0.087 H 
ENDROOT
BRANCH   6  16
ATOM     16  O1  <0> d          -1.167  -0.693   0.010  0.00  0.00    -0.361 OA
ATOM     17  H4  <0> d          -1.514  -0.888  -0.871  0.00  0.00     0.217 HD
ENDBRANCH   6  16
TORSDOF 1
