REMARK  6 active torsions:
REMARK  status: ('A' for Active; 'I' for Inactive)
REMARK    1  A    between atoms: C1_1  and  C2_2 
REMARK    2  A    between atoms: C2_2  and  C3_4 
REMARK    3  A    between atoms: C2_2  and  O2_7 
REMARK    4  A    between atoms: C3_4  and  C4_6 
REMARK    5  A    between atoms: O2_7  and  C5_8 
REMARK    6  A    between atoms: C5_8  and  C6_10 
ROOT
ATOM      1  C2  <0> d          -1.329   1.939   0.019  0.00  0.00     0.101 C 
ATOM      2  H1  <0> d          -1.265   2.729   0.629  0.00  0.00     0.095 H 
ENDROOT
BRANCH   1   3
ATOM      3  C1  <0> d          -1.659   2.414  -1.398  0.00  0.00    -0.045 C 
ATOM      4  H2  <0> d          -2.610   2.946  -1.390  0.00  0.00     0.031 H 
ATOM      5  H3  <0> d          -0.872   3.082  -1.749  0.00  0.00     0.031 H 
ATOM      6  H4  <0> d          -1.729   1.554  -2.062  0.00  0.00     0.031 H 
ENDBRANCH   1   3
BRANCH   1   7
ATOM      7  C3  <0> d          -0.014   1.203   0.009  0.00  0.00     0.151 C 
ATOM      8  O1  <0> d           0.002  -0.004   0.002  0.00  0.00    -0.296 OA
BRANCH   7   9
ATOM      9  C4  <0> d           1.280   1.975   0.000  0.00  0.00    -0.018 C 
ATOM     10  H5  <0> d           2.049   1.335  -0.010  0.00  0.00     0.037 H 
ATOM     11  H6  <0> d           1.321   2.607  -0.887  0.00  0.00     0.037 H 
ATOM     12  H7  <0> d           1.338   2.597   0.893  0.00  0.00     0.037 H 
ENDBRANCH   7   9
ENDBRANCH   1   7
BRANCH   1  13
ATOM     13  O2  <0> d          -2.378   1.050   0.487  0.00  0.00    -0.309 OA
BRANCH  13  14
ATOM     14  C5  <0> d          -3.409   1.613   1.136  0.00  0.00     0.255 C 
ATOM     15  O3  <0> d          -3.436   2.809   1.306  0.00  0.00    -0.266 OA
BRANCH  14  16
ATOM     16  C6  <0> d          -4.535   0.753   1.651  0.00  0.00     0.004 C 
ATOM     17  H8  <0> d          -4.309   0.430   2.667  0.00  0.00     0.041 H 
ATOM     18  H9  <0> d          -5.461   1.328   1.650  0.00  0.00     0.041 H 
ATOM     19  H10 <0> d          -4.649  -0.120   1.008  0.00  0.00     0.041 H 
ENDBRANCH  14  16
ENDBRANCH  13  14
ENDBRANCH   1  13
TORSDOF 6
