REMARK  3 active torsions:
REMARK  status: ('A' for Active; 'I' for Inactive)
REMARK    1  A    between atoms: C1_1  and  C2_2 
REMARK    2  A    between atoms: C2_2  and  C3_3 
REMARK    3  A    between atoms: C6_6  and  C7_9 
REMARK       I    between atoms: C7_9  and  N2_11 
ROOT
ATOM      1  C3  <0> d           0.731  -0.503   1.223  0.00  0.00     0.009 A 
ATOM      2  C4  <0> d           2.073  -0.652   1.333  0.00  0.00    -0.059 A 
ATOM      3  C5  <0> d           2.346  -1.136   2.617  0.00  0.00    -0.050 A 
ATOM      4  C6  <0> d           1.137  -1.271   3.265  0.00  0.00     0.100 A 
ATOM      5  N1  <0> d           0.151  -0.871   2.392  0.00  0.00    -0.355 N 
ATOM      6  H1  <0> d          -0.800  -0.857   2.580  0.00  0.00     0.166 HD
ATOM      7  H7  <0> d           2.802  -0.436   0.567  0.00  0.00     0.086 H 
ATOM      8  H8  <0> d           3.321  -1.362   3.023  0.00  0.00     0.087 H 
ENDROOT
BRANCH   1   9
ATOM      9  C2  <0> d           0.002  -0.004   0.002  0.00  0.00    -0.030 C 
ATOM     10  H5  <0> d          -1.020  -0.381   0.010  0.00  0.00     0.041 H 
ATOM     11  H6  <0> d           0.512  -0.356  -0.895  0.00  0.00     0.041 H 
BRANCH   9  12
ATOM     12  C1  <0> d          -0.019   1.526   0.010  0.00  0.00    -0.071 C 
ATOM     13  H2  <0> d           1.004   1.903   0.003  0.00  0.00     0.028 H 
ATOM     14  H3  <0> d          -0.546   1.887  -0.873  0.00  0.00     0.028 H 
ATOM     15  H4  <0> d          -0.529   1.877   0.907  0.00  0.00     0.028 H 
ENDBRANCH   9  12
ENDBRANCH   1   9
BRANCH   4  16
ATOM     16  C7  <0> d           0.938  -1.749   4.637  0.00  0.00     0.266 C 
ATOM     17  O1  <0> d           1.896  -2.071   5.315  0.00  0.00    -0.266 OA
ATOM     18  N2  <0> d          -0.306  -1.832   5.148  0.00  0.00    -0.365 N 
ATOM     19  H9  <0> d          -1.070  -1.575   4.608  0.00  0.00     0.159 HD
ATOM     20  H10 <0> d          -0.438  -2.148   6.056  0.00  0.00     0.159 HD
ENDBRANCH   4  16
TORSDOF 3
