REMARK  3 active torsions:
REMARK  status: ('A' for Active; 'I' for Inactive)
REMARK    1  A    between atoms: C1_1  and  O1_2 
REMARK    2  A    between atoms: O1_2  and  C2_3 
REMARK    3  A    between atoms: C2_3  and  N1_4 
ROOT
ATOM      1  N1  <0> d           1.145   3.482   0.010  0.00  0.00    -0.328 N 
ATOM      2  C3  <0> d           1.065   4.298  -1.087  0.00  0.00    -0.001 A 
ATOM      3  C4  <0> d           0.946   5.558  -0.628  0.00  0.00     0.018 A 
ATOM      4  N2  <0> d           0.962   5.514   0.713  0.00  0.00    -0.255 NA
ATOM      5  C5  <0> d           1.081   4.274   1.102  0.00  0.00     0.067 A 
ATOM      6  H6  <0> d           1.089   3.989  -2.122  0.00  0.00     0.114 H 
ATOM      7  H7  <0> d           0.858   6.448  -1.233  0.00  0.00     0.117 H 
ATOM      8  H8  <0> d           1.122   3.938   2.127  0.00  0.00     0.143 H 
ENDROOT
BRANCH   1   9
ATOM      9  C2  <0> d           1.280   2.024   0.001  0.00  0.00     0.083 C 
ATOM     10  H4  <0> d           1.834   1.705   0.884  0.00  0.00     0.107 H 
ATOM     11  H5  <0> d           1.817   1.714  -0.896  0.00  0.00     0.107 H 
BRANCH   9  12
ATOM     12  O1  <0> d          -0.017   1.425   0.010  0.00  0.00    -0.377 OA
BRANCH  12  13
ATOM     13  C1  <0> d           0.002  -0.004   0.002  0.00  0.00     0.006 C 
ATOM     14  H1  <0> d           0.512  -0.356  -0.895  0.00  0.00     0.066 H 
ATOM     15  H2  <0> d           0.529  -0.365   0.885  0.00  0.00     0.066 H 
ATOM     16  H3  <0> d          -1.020  -0.381   0.010  0.00  0.00     0.066 H 
ENDBRANCH  12  13
ENDBRANCH   9  12
ENDBRANCH   1   9
TORSDOF 3
