REMARK  4 active torsions:
REMARK  status: ('A' for Active; 'I' for Inactive)
REMARK    1  A    between atoms: C1_1  and  C2_2 
REMARK    2  A    between atoms: C5_8  and  C6_10 
REMARK    3  A    between atoms: C6_10  and  C7_11 
REMARK    4  A    between atoms: C6_10  and  C8_12 
ROOT
ATOM      1  C2  <0> d           0.002  -0.004   0.002  0.00  0.00     0.038 A 
ATOM      2  C3  <0> d           0.006  -0.679  -1.181  0.00  0.00     0.006 A 
ATOM      3  C4  <0> d           0.025  -2.089  -1.153  0.00  0.00     0.248 A 
ATOM      4  O1  <0> d           0.030  -2.733  -2.189  0.00  0.00    -0.268 OA
ATOM      5  N1  <0> d           0.040  -2.712   0.045  0.00  0.00    -0.311 N 
ATOM      6  H1  <0> d           0.054  -3.680   0.089  0.00  0.00     0.170 HD
ATOM      7  C5  <0> d           0.035  -1.985   1.180  0.00  0.00     0.110 A 
ATOM      8  N2  <0> d           0.022  -0.679   1.154  0.00  0.00    -0.240 NA
ATOM      9  H5  <0> d          -0.007  -0.147  -2.120  0.00  0.00     0.095 H 
ENDROOT
BRANCH   7  10
ATOM     10  C6  <0> d           0.052  -2.695   2.509  0.00  0.00    -0.003 C 
ATOM     11  H6  <0> d           0.653  -3.600   2.430  0.00  0.00     0.050 H 
BRANCH  10  12
ATOM     12  C7  <0> d           0.654  -1.773   3.572  0.00  0.00    -0.067 C 
ATOM     13  H7  <0> d           0.665  -2.287   4.534  0.00  0.00     0.028 H 
ATOM     14  H8  <0> d           1.673  -1.509   3.289  0.00  0.00     0.028 H 
ATOM     15  H9  <0> d           0.052  -0.868   3.651  0.00  0.00     0.028 H 
ENDBRANCH  10  12
BRANCH  10  16
ATOM     16  C8  <0> d          -1.378  -3.066   2.907  0.00  0.00    -0.067 C 
ATOM     17  H10 <0> d          -1.807  -3.722   2.150  0.00  0.00     0.028 H 
ATOM     18  H11 <0> d          -1.367  -3.579   3.868  0.00  0.00     0.028 H 
ATOM     19  H12 <0> d          -1.980  -2.160   2.986  0.00  0.00     0.028 H 
ENDBRANCH  10  16
ENDBRANCH   7  10
BRANCH   1  20
ATOM     20  C1  <0> d          -0.018   1.503   0.010  0.00  0.00    -0.035 C 
ATOM     21  H2  <0> d           1.004   1.880   0.003  0.00  0.00     0.035 H 
ATOM     22  H3  <0> d          -0.545   1.864  -0.873  0.00  0.00     0.035 H 
ATOM     23  H4  <0> d          -0.529   1.854   0.907  0.00  0.00     0.035 H 
ENDBRANCH   1  20
TORSDOF 4
