REMARK  0 active torsions:
REMARK  status: ('A' for Active; 'I' for Inactive)
ROOT
ATOM      1  C1  <0> d          -1.172   3.036   0.030  0.00  0.00    -0.001 A 
ATOM      2  C2  <0> d           0.031   3.674   0.021  0.00  0.00     0.009 A 
ATOM      3  N1  <0> d           1.161   2.962   0.006  0.00  0.00    -0.256 NA
ATOM      4  C3  <0> d           1.146   1.656   0.000  0.00  0.00     0.066 A 
ATOM      5  N2  <0> d          -0.011   0.966   0.007  0.00  0.00    -0.318 N 
ATOM      6  H1  <0> d           0.002  -0.004   0.002  0.00  0.00     0.169 HD
ATOM      7  C4  <0> d          -1.189   1.626   0.017  0.00  0.00     0.247 A 
ATOM      8  O1  <0> d          -2.245   1.015   0.018  0.00  0.00    -0.268 OA
ATOM      9  H2  <0> d          -2.094   3.598   0.041  0.00  0.00     0.094 H 
ATOM     10  H3  <0> d           0.072   4.753   0.027  0.00  0.00     0.115 H 
ATOM     11  H4  <0> d           2.082   1.117  -0.012  0.00  0.00     0.143 H 
ENDROOT
TORSDOF 0
