REMARK  1 active torsions:
REMARK  status: ('A' for Active; 'I' for Inactive)
REMARK    1  A    between atoms: C3_3  and  C7_9 
ROOT
ATOM      1  C1  <0> d           1.205  -0.674  -0.013  0.00  0.00    -0.044 A 
ATOM      2  C2  <0> d           0.002  -0.004   0.002  0.00  0.00    -0.060 A 
ATOM      3  C3  <0> d          -0.017   1.393   0.010  0.00  0.00     0.079 A 
ATOM      4  C4  <0> d           1.190   2.104   0.002  0.00  0.00     0.136 A 
ATOM      5  C5  <0> d           2.389   1.419  -0.013  0.00  0.00    -0.007 A 
ATOM      6  C6  <0> d           2.398   0.034  -0.021  0.00  0.00     0.119 A 
ATOM      7  F1  <0> d           3.575  -0.631  -0.035  0.00  0.00    -0.206 F 
ATOM      8  F2  <0> d           1.180   3.454   0.009  0.00  0.00    -0.205 F 
ATOM      9  H1  <0> d           1.220  -1.754  -0.019  0.00  0.00     0.088 H 
ATOM     10  H2  <0> d          -0.925  -0.558   0.007  0.00  0.00     0.085 H 
ATOM     11  H3  <0> d           3.321   1.964  -0.019  0.00  0.00     0.093 H 
ENDROOT
BRANCH   3  12
ATOM     12  C7  <0> d          -1.302   2.116   0.020  0.00  0.00     0.212 C 
ATOM     13  O1  <0> d          -1.315   3.331   0.026  0.00  0.00    -0.644 OA
ATOM     14  O2  <0> d          -2.461   1.430   0.021  0.00  0.00    -0.644 OA
ENDBRANCH   3  12
TORSDOF 1
