REMARK  2 active torsions:
REMARK  status: ('A' for Active; 'I' for Inactive)
REMARK    1  A    between atoms: C1_1  and  C2_2 
REMARK    2  A    between atoms: N3_6  and  N4_7 
ROOT
ATOM      1  C2  <0> d           0.002  -0.004   0.002  0.00  0.00     0.140 A 
ATOM      2  N1  <0> d           0.008  -0.772  -1.054  0.00  0.00    -0.135 NA
ATOM      3  N2  <0> d           0.027  -2.006  -0.691  0.00  0.00    -0.142 NA
ATOM      4  C3  <0> d           0.034  -2.081   0.612  0.00  0.00     0.104 A 
ATOM      5  N3  <0> d           0.023  -0.813   1.089  0.00  0.00    -0.256 N 
ATOM      6  H4  <0> d           0.049  -2.986   1.200  0.00  0.00     0.148 H 
ENDROOT
BRANCH   1   7
ATOM      7  C1  <0> d          -0.018   1.503   0.010  0.00  0.00    -0.018 C 
ATOM      8  H1  <0> d           1.004   1.880   0.003  0.00  0.00     0.038 H 
ATOM      9  H2  <0> d          -0.545   1.864  -0.873  0.00  0.00     0.038 H 
ATOM     10  H3  <0> d          -0.529   1.854   0.907  0.00  0.00     0.038 H 
ENDBRANCH   1   7
BRANCH   5  11
ATOM     11  N4  <0> d           0.030  -0.428   2.400  0.00  0.00    -0.240 NA
ATOM     12  H5  <0> d          -0.910  -0.340   2.755  0.00  0.00     0.143 HD
ATOM     13  H6  <0> d           0.570  -1.068   2.962  0.00  0.00     0.143 HD
ENDBRANCH   5  11
TORSDOF 2
