REMARK  4 active torsions:
REMARK  status: ('A' for Active; 'I' for Inactive)
REMARK    1  A    between atoms: C4_5  and  S1_7 
REMARK    2  A    between atoms: S1_7  and  C6_8 
REMARK    3  A    between atoms: C6_8  and  C7_9 
REMARK    4  A    between atoms: C7_9  and  O1_10 
ROOT
ATOM      1  C1  <0> d          -1.221   1.761   0.017  0.00  0.00    -0.079 A 
ATOM      2  C2  <0> d          -0.013   1.076   0.008  0.00  0.00    -0.066 A 
ATOM      3  C3  <0> d           1.169   1.789   0.001  0.00  0.00     0.003 A 
ATOM      4  N1  <0> d           1.163   3.109   0.007  0.00  0.00    -0.254 NA
ATOM      5  C4  <0> d           0.033   3.798   0.022  0.00  0.00     0.093 A 
ATOM      6  C5  <0> d          -1.196   3.143   0.030  0.00  0.00    -0.049 A 
ATOM      7  H1  <0> d          -2.159   1.226   0.019  0.00  0.00     0.083 H 
ATOM      8  H2  <0> d           0.002  -0.004   0.002  0.00  0.00     0.085 H 
ATOM      9  H3  <0> d           2.111   1.260  -0.011  0.00  0.00     0.114 H 
ATOM     10  H4  <0> d          -2.117   3.708   0.042  0.00  0.00     0.087 H 
ENDROOT
BRANCH   5  11
ATOM     11  S1  <0> d           0.084   5.559   0.031  0.00  0.00    -0.108 SA
BRANCH  11  12
ATOM     12  C6  <0> d           1.856   5.947   0.016  0.00  0.00     0.002 C 
ATOM     13  H5  <0> d           2.329   5.518   0.899  0.00  0.00     0.052 H 
ATOM     14  H6  <0> d           2.312   5.528  -0.881  0.00  0.00     0.052 H 
BRANCH  12  15
ATOM     15  C7  <0> d           2.046   7.465   0.022  0.00  0.00     0.025 C 
ATOM     16  H7  <0> d           1.572   7.894  -0.861  0.00  0.00     0.075 H 
ATOM     17  H8  <0> d           1.589   7.885   0.919  0.00  0.00     0.075 H 
BRANCH  15  18
ATOM     18  O1  <0> d           3.441   7.771   0.011  0.00  0.00    -0.400 OA
ATOM     19  H9  <0> d           3.637   8.718   0.014  0.00  0.00     0.209 HD
ENDBRANCH  15  18
ENDBRANCH  12  15
ENDBRANCH  11  12
ENDBRANCH   5  11
TORSDOF 4
