REMARK  5 active torsions:
REMARK  status: ('A' for Active; 'I' for Inactive)
REMARK    1  A    between atoms: C1_1  and  C2_2 
REMARK    2  A    between atoms: C2_2  and  C3_3 
REMARK    3  A    between atoms: C3_3  and  C4_4 
REMARK    4  A    between atoms: C3_3  and  C5_5 
REMARK    5  A    between atoms: C3_3  and  O2_10 
ROOT
ATOM      1  C3  <0> d           0.718  -0.497  -1.257  0.00  0.00     0.102 C 
ENDROOT
BRANCH   1   2
ATOM      2  C2  <0> d           0.002  -0.004   0.002  0.00  0.00    -0.034 C 
ATOM      3  H4  <0> d           0.534  -0.368   0.893  0.00  0.00     0.037 H 
ATOM      4  H5  <0> d          -1.030  -0.385   0.010  0.00  0.00     0.037 H 
BRANCH   2   5
ATOM      5  C1  <0> d          -0.019   1.526   0.010  0.00  0.00    -0.073 C 
ATOM      6  H1  <0> d          -0.534   1.881   0.915  0.00  0.00     0.027 H 
ATOM      7  H2  <0> d          -0.551   1.890  -0.881  0.00  0.00     0.027 H 
ATOM      8  H3  <0> d           1.013   1.907   0.003  0.00  0.00     0.027 H 
ENDBRANCH   2   5
ENDBRANCH   1   2
BRANCH   1   9
ATOM      9  C4  <0> d           2.154   0.032  -1.268  0.00  0.00    -0.042 C 
ATOM     10  H6  <0> d           2.668  -0.323  -2.173  0.00  0.00     0.032 H 
ATOM     11  H7  <0> d           2.686  -0.332  -0.376  0.00  0.00     0.032 H 
ATOM     12  H8  <0> d           2.139   1.132  -1.262  0.00  0.00     0.032 H 
ENDBRANCH   1   9
BRANCH   1  13
ATOM     13  C5  <0> d           0.739  -2.004  -1.265  0.00  0.00     0.086 A 
ATOM     14  O1  <0> d           0.765  -2.795  -0.180  0.00  0.00    -0.324 OA
ATOM     15  C8  <0> d           0.774  -4.082  -0.564  0.00  0.00     0.019 A 
ATOM     16  C7  <0> d           0.761  -4.125  -1.909  0.00  0.00    -0.059 A 
ATOM     17  H11 <0> d           0.791  -4.938   0.094  0.00  0.00     0.123 H 
ATOM     18  C6  <0> d           0.739  -2.785  -2.361  0.00  0.00    -0.050 A 
ATOM     19  H10 <0> d           0.767  -5.012  -2.525  0.00  0.00     0.086 H 
ATOM     20  H9  <0> d           0.725  -2.452  -3.388  0.00  0.00     0.087 H 
ENDBRANCH   1  13
BRANCH   1  21
ATOM     21  O2  <0> d           0.027  -0.024  -2.414  0.00  0.00    -0.383 OA
ATOM     22  H12 <0> d           0.397  -0.279  -3.418  0.00  0.00     0.211 HD
ENDBRANCH   1  21
TORSDOF 5
