REMARK  2 active torsions:
REMARK  status: ('A' for Active; 'I' for Inactive)
REMARK    1  A    between atoms: C1_1  and  C2_2 
REMARK    2  A    between atoms: C3_3  and  N1_4 
ROOT
ATOM      1  N1  <0> d           1.147   3.129   0.009  0.00  0.00    -0.301 N 
ATOM      2  C4  <0> d           1.150   1.769  -0.005  0.00  0.00    -0.012 A 
ATOM      3  C5  <0> d          -0.013   1.076   0.004  0.00  0.00    -0.067 A 
ATOM      4  C6  <0> d          -1.236   1.761   0.020  0.00  0.00    -0.076 A 
ATOM      5  C7  <0> d          -1.236   3.125   0.040  0.00  0.00    -0.017 A 
ATOM      6  C8  <0> d          -0.012   3.814   0.031  0.00  0.00     0.251 A 
ATOM      7  O1  <0> d           0.001   5.035   0.043  0.00  0.00    -0.268 OA
ATOM      8  H6  <0> d           2.089   1.237  -0.022  0.00  0.00     0.112 H 
ATOM      9  H7  <0> d           0.002  -0.004  -0.007  0.00  0.00     0.085 H 
ATOM     10  H8  <0> d          -2.168   1.215   0.022  0.00  0.00     0.083 H 
ATOM     11  H9  <0> d          -2.169   3.670   0.058  0.00  0.00     0.092 H 
ENDROOT
BRANCH   1  12
ATOM     12  C3  <0> d           2.356   3.821   0.001  0.00  0.00    -0.016 C 
ATOM     13  C2  <0> d           3.495   3.160   0.086  0.00  0.00    -0.091 C 
ATOM     14  H4  <0> d           3.494   2.080   0.080  0.00  0.00     0.078 H 
ATOM     15  H5  <0> d           2.361   4.898  -0.075  0.00  0.00     0.111 H 
BRANCH  13  16
ATOM     16  C1  <0> d           4.796   3.912   0.192  0.00  0.00    -0.058 C 
ATOM     17  H1  <0> d           5.622   3.203   0.252  0.00  0.00     0.032 H 
ATOM     18  H2  <0> d           4.923   4.543  -0.688  0.00  0.00     0.032 H 
ATOM     19  H3  <0> d           4.785   4.533   1.087  0.00  0.00     0.032 H 
ENDBRANCH  13  16
ENDBRANCH   1  12
TORSDOF 2
