REMARK  3 active torsions:
REMARK  status: ('A' for Active; 'I' for Inactive)
REMARK    1  A    between atoms: N1_5  and  C5_7 
REMARK    2  A    between atoms: C5_7  and  C6_8 
REMARK    3  A    between atoms: C6_8  and  O2_9 
ROOT
ATOM      1  C1  <0> d          -0.787   1.610   1.239  0.00  0.00    -0.042 C 
ATOM      2  C2  <0> d          -0.013   1.086   0.008  0.00  0.00     0.011 C 
ATOM      3  C3  <0> d          -0.793   1.611  -1.176  0.00  0.00     0.219 C 
ATOM      4  O1  <0> d          -0.377   1.665  -2.314  0.00  0.00    -0.273 OA
ATOM      5  N1  <0> d          -2.016   2.009  -0.784  0.00  0.00    -0.350 N 
ATOM      6  C4  <0> d          -2.209   1.800   0.655  0.00  0.00    -0.002 C 
ATOM      7  H1  <0> d          -0.789   0.872   2.042  0.00  0.00     0.036 H 
ATOM      8  H2  <0> d          -0.376   2.559   1.584  0.00  0.00     0.036 H 
ATOM      9  H3  <0> d           0.002  -0.004   0.002  0.00  0.00     0.047 H 
ATOM     10  H4  <0> d           1.003   1.480   0.000  0.00  0.00     0.047 H 
ATOM     11  H5  <0> d          -2.686   2.672   1.103  0.00  0.00     0.064 H 
ATOM     12  H6  <0> d          -2.812   0.909   0.830  0.00  0.00     0.064 H 
ENDROOT
BRANCH   5  13
ATOM     13  C5  <0> d          -3.027   2.577  -1.680  0.00  0.00     0.017 C 
ATOM     14  H7  <0> d          -3.656   3.272  -1.123  0.00  0.00     0.067 H 
ATOM     15  H8  <0> d          -2.534   3.107  -2.495  0.00  0.00     0.067 H 
BRANCH  13  16
ATOM     16  C6  <0> d          -3.892   1.452  -2.252  0.00  0.00     0.032 C 
ATOM     17  H9  <0> d          -4.586   1.864  -2.985  0.00  0.00     0.076 H 
ATOM     18  H10 <0> d          -3.253   0.711  -2.732  0.00  0.00     0.076 H 
BRANCH  16  19
ATOM     19  O2  <0> d          -4.628   0.833  -1.195  0.00  0.00    -0.399 OA
ATOM     20  H11 <0> d          -5.199   0.109  -1.486  0.00  0.00     0.209 HD
ENDBRANCH  16  19
ENDBRANCH  13  16
ENDBRANCH   5  13
TORSDOF 3
