REMARK  0 active torsions:
REMARK  status: ('A' for Active; 'I' for Inactive)
ROOT
ATOM      1  C1  <0> d          -0.019   1.561   0.011  0.00  0.00    -0.064 C 
ATOM      2  C2  <0> d           1.474   2.007  -0.001  0.00  0.00    -0.061 C 
ATOM      3  C3  <0> d           2.252   0.730  -0.221  0.00  0.00    -0.044 C 
ATOM      4  H1  <0> d           2.316   0.479  -1.280  0.00  0.00     0.041 H 
ATOM      5  C4  <0> d           3.551   0.418   0.508  0.00  0.00    -0.046 C 
ATOM      6  C5  <0> d           3.468  -1.114   0.603  0.00  0.00    -0.105 C 
ATOM      7  C6  <0> d           2.184  -1.488   0.625  0.00  0.00    -0.102 C 
ATOM      8  C7  <0> d           1.351  -0.286   0.581  0.00  0.00    -0.034 C 
ATOM      9  H2  <0> d           1.335   0.104   1.599  0.00  0.00     0.046 H 
ATOM     10  C8  <0> d           0.002  -0.004   0.002  0.00  0.00    -0.058 C 
ATOM     11  H3  <0> d          -0.513   1.925   0.911  0.00  0.00     0.033 H 
ATOM     12  H4  <0> d          -0.530   1.935  -0.877  0.00  0.00     0.033 H 
ATOM     13  H5  <0> d           1.655   2.707  -0.817  0.00  0.00     0.033 H 
ATOM     14  H6  <0> d           1.744   2.457   0.954  0.00  0.00     0.033 H 
ATOM     15  H7  <0> d           4.416   0.730  -0.078  0.00  0.00     0.039 H 
ATOM     16  H8  <0> d           3.566   0.874   1.498  0.00  0.00     0.039 H 
ATOM     17  H9  <0> d           4.315  -1.783   0.645  0.00  0.00     0.076 H 
ATOM     18  H10 <0> d           1.819  -2.504   0.653  0.00  0.00     0.076 H 
ATOM     19  H11 <0> d          -0.788  -0.409   0.635  0.00  0.00     0.033 H 
ATOM     20  H12 <0> d          -0.076  -0.391  -1.014  0.00  0.00     0.033 H 
ENDROOT
TORSDOF 0
