REMARK  2 active torsions:
REMARK  status: ('A' for Active; 'I' for Inactive)
REMARK    1  A    between atoms: C3_3  and  O2_9 
REMARK    2  A    between atoms: C6_6  and  O1_7 
ROOT
ATOM      1  C1  <0> d           0.041  -2.085   1.191  0.00  0.00    -0.048 A 
ATOM      2  C2  <0> d           0.023  -0.704   1.199  0.00  0.00    -0.047 A 
ATOM      3  C3  <0> d           0.002  -0.004   0.002  0.00  0.00     0.087 A 
ATOM      4  C4  <0> d          -0.006  -0.692  -1.204  0.00  0.00     0.069 A 
ATOM      5  C5  <0> d           0.018  -2.074  -1.211  0.00  0.00    -0.027 A 
ATOM      6  C6  <0> d           0.039  -2.773  -0.013  0.00  0.00     0.067 A 
ATOM      7 Cl1  <0> d          -0.039   0.184  -2.703  0.00  0.00    -0.081 Cl
ATOM      8  H1  <0> d           0.057  -2.630   2.124  0.00  0.00     0.087 H 
ATOM      9  H2  <0> d           0.025  -0.169   2.137  0.00  0.00     0.087 H 
ATOM     10  H3  <0> d           0.016  -2.609  -2.149  0.00  0.00     0.090 H 
ENDROOT
BRANCH   3  11
ATOM     11  O2  <0> d          -0.016   1.356   0.009  0.00  0.00    -0.359 OA
ATOM     12  H5  <0> d           0.862   1.761   0.003  0.00  0.00     0.217 HD
ENDBRANCH   3  11
BRANCH   6  13
ATOM     13  O1  <0> d           0.056  -4.133  -0.020  0.00  0.00    -0.361 OA
ATOM     14  H4  <0> d          -0.822  -4.537  -0.013  0.00  0.00     0.217 HD
ENDBRANCH   6  13
TORSDOF 2
