REMARK  8 active torsions:
REMARK  status: ('A' for Active; 'I' for Inactive)
REMARK    1  A    between atoms: C1_1  and  C2_2 
REMARK    2  A    between atoms: C2_2  and  C3_3 
REMARK    3  A    between atoms: C3_3  and  C4_4 
REMARK    4  A    between atoms: C4_4  and  C5_6 
REMARK    5  A    between atoms: C4_4  and  O3_11 
REMARK    6  A    between atoms: C5_6  and  C6_8 
REMARK    7  A    between atoms: C5_6  and  O2_10 
REMARK    8  A    between atoms: C6_8  and  O1_9 
ROOT
ATOM      1  C4  <0> d          -0.019   1.526   0.010  0.00  0.00     0.062 C 
ATOM      2  H1  <0> d           1.004   1.903   0.003  0.00  0.00     0.086 H 
ENDROOT
BRANCH   1   3
ATOM      3  C3  <0> d          -0.759   2.033  -1.229  0.00  0.00    -0.039 C 
ATOM      4  H8  <0> d          -0.302   1.609  -2.123  0.00  0.00     0.036 H 
ATOM      5  H9  <0> d          -1.804   1.730  -1.177  0.00  0.00     0.036 H 
BRANCH   3   6
ATOM      6  C2  <0> d          -0.672   3.559  -1.286  0.00  0.00    -0.066 C 
ATOM      7  H6  <0> d          -1.129   3.983  -0.392  0.00  0.00     0.032 H 
ATOM      8  H7  <0> d           0.374   3.862  -1.338  0.00  0.00     0.032 H 
BRANCH   6   9
ATOM      9  C1  <0> d          -1.412   4.066  -2.526  0.00  0.00    -0.076 C 
ATOM     10  H3  <0> d          -0.955   3.642  -3.420  0.00  0.00     0.027 H 
ATOM     11  H4  <0> d          -2.458   3.763  -2.474  0.00  0.00     0.027 H 
ATOM     12  H5  <0> d          -1.350   5.153  -2.566  0.00  0.00     0.027 H 
ENDBRANCH   6   9
ENDBRANCH   3   6
ENDBRANCH   1   3
BRANCH   1  13
ATOM     13  C5  <0> d           0.002  -0.004   0.002  0.00  0.00     0.080 C 
ATOM     14  H2  <0> d          -1.020  -0.381   0.010  0.00  0.00     0.090 H 
BRANCH  13  15
ATOM     15  C6  <0> d           0.742  -0.511   1.242  0.00  0.00     0.043 C 
ATOM     16  H10 <0> d           1.788  -0.208   1.190  0.00  0.00     0.078 H 
ATOM     17  H11 <0> d           0.285  -0.087   2.136  0.00  0.00     0.078 H 
BRANCH  15  18
ATOM     18  O1  <0> d           0.661  -1.937   1.295  0.00  0.00    -0.398 OA
ATOM     19  H12 <0> d           1.110  -2.328   2.057  0.00  0.00     0.209 HD
ENDBRANCH  15  18
ENDBRANCH  13  15
BRANCH  13  20
ATOM     20  O2  <0> d           0.671  -0.465  -1.174  0.00  0.00    -0.391 OA
ATOM     21  H13 <0> d           1.588  -0.167  -1.247  0.00  0.00     0.210 HD
ENDBRANCH  13  20
ENDBRANCH   1  13
BRANCH   1  22
ATOM     22  O3  <0> d          -0.688   1.987   1.186  0.00  0.00    -0.393 OA
ATOM     23  H14 <0> d          -1.605   1.688   1.259  0.00  0.00     0.210 HD
ENDBRANCH   1  22
TORSDOF 8
