REMARK  2 active torsions:
REMARK  status: ('A' for Active; 'I' for Inactive)
REMARK    1  A    between atoms: C5_6  and  C6_7 
REMARK    2  A    between atoms: C6_7  and  O2_8 
ROOT
ATOM      1  C1  <0> d          -0.019   1.528   0.010  0.00  0.00    -0.024 C 
ATOM      2  C2  <0> d           1.420   2.050  -0.001  0.00  0.00     0.021 C 
ATOM      3  O1  <0> d           2.124   1.527   1.128  0.00  0.00    -0.391 OA
ATOM      4  C3  <0> d           2.216   0.101   1.149  0.00  0.00     0.021 C 
ATOM      5  C4  <0> d           0.809  -0.499   1.206  0.00  0.00    -0.024 C 
ATOM      6  C5  <0> d           0.002  -0.004   0.002  0.00  0.00     0.074 C 
ATOM      7  C7  <0> d           0.629  -0.481  -1.241  0.00  0.00     0.071 C 
ATOM      8  N1  <0> d           1.113  -0.849  -2.201  0.00  0.00    -0.196 NA
ATOM      9  H1  <0> d          -0.527   1.880   0.908  0.00  0.00     0.038 H 
ATOM     10  H2  <0> d          -0.544   1.890  -0.873  0.00  0.00     0.038 H 
ATOM     11  H3  <0> d           1.916   1.731  -0.917  0.00  0.00     0.074 H 
ATOM     12  H4  <0> d           1.412   3.139   0.049  0.00  0.00     0.074 H 
ATOM     13  H5  <0> d           2.722  -0.243   0.247  0.00  0.00     0.074 H 
ATOM     14  H6  <0> d           2.782  -0.214   2.026  0.00  0.00     0.074 H 
ATOM     15  H7  <0> d           0.876  -1.587   1.177  0.00  0.00     0.038 H 
ATOM     16  H8  <0> d           0.318  -0.188   2.127  0.00  0.00     0.038 H 
ENDROOT
BRANCH   6  17
ATOM     17  C6  <0> d          -1.430  -0.536   0.092  0.00  0.00     0.036 C 
ATOM     18  H9  <0> d          -1.890  -0.184   1.015  0.00  0.00     0.076 H 
ATOM     19  H10 <0> d          -2.005  -0.176  -0.761  0.00  0.00     0.076 H 
BRANCH  17  20
ATOM     20  O2  <0> d          -1.409  -1.965   0.084  0.00  0.00    -0.399 OA
ATOM     21  H11 <0> d          -2.284  -2.371   0.139  0.00  0.00     0.209 HD
ENDBRANCH  17  20
ENDBRANCH   6  17
TORSDOF 2
