REMARK  4 active torsions:
REMARK  status: ('A' for Active; 'I' for Inactive)
REMARK    1  A    between atoms: C1_1  and  C2_2 
REMARK    2  A    between atoms: C2_2  and  N1_3 
REMARK    3  A    between atoms: C3_4  and  C7_10 
REMARK    4  A    between atoms: C4_5  and  C6_8 
ROOT
ATOM      1  N1  <0> d          -0.017   1.395   0.010  0.00  0.00    -0.274 N 
ATOM      2  C3  <0> d           1.250   1.839  -0.000  0.00  0.00     0.045 A 
ATOM      3  C4  <0> d           2.075   0.731  -0.014  0.00  0.00     0.083 A 
ATOM      4  C5  <0> d           1.242  -0.410  -0.012  0.00  0.00     0.040 A 
ATOM      5  N2  <0> d           0.002  -0.004   0.002  0.00  0.00    -0.184 NA
ATOM      6  H6  <0> d           1.573  -1.438  -0.020  0.00  0.00     0.119 H 
ENDROOT
BRANCH   1   7
ATOM      7  C2  <0> d          -1.217   2.235   0.020  0.00  0.00     0.014 C 
ATOM      8  H4  <0> d          -1.008   3.175  -0.490  0.00  0.00     0.066 H 
ATOM      9  H5  <0> d          -2.028   1.716  -0.492  0.00  0.00     0.066 H 
BRANCH   7  10
ATOM     10  C1  <0> d          -1.628   2.519   1.466  0.00  0.00    -0.059 C 
ATOM     11  H1  <0> d          -1.837   1.579   1.976  0.00  0.00     0.029 H 
ATOM     12  H2  <0> d          -0.818   3.038   1.979  0.00  0.00     0.029 H 
ATOM     13  H3  <0> d          -2.521   3.144   1.474  0.00  0.00     0.029 H 
ENDBRANCH   7  10
ENDBRANCH   1   7
BRANCH   2  14
ATOM     14  C7  <0> d           1.691   3.280   0.003  0.00  0.00    -0.035 C 
ATOM     15  H7  <0> d           1.806   3.622   1.031  0.00  0.00     0.035 H 
ATOM     16  H8  <0> d           2.643   3.369  -0.520  0.00  0.00     0.035 H 
ATOM     17  H9  <0> d           0.941   3.890  -0.501  0.00  0.00     0.035 H 
ENDBRANCH   2  14
BRANCH   3  18
ATOM     18  C6  <0> d           3.548   0.738  -0.029  0.00  0.00     0.212 C 
ATOM     19  O1  <0> d           4.151   1.794  -0.029  0.00  0.00    -0.644 OA
ATOM     20  O2  <0> d           4.227  -0.425  -0.042  0.00  0.00    -0.644 OA
ENDBRANCH   3  18
TORSDOF 4
