REMARK  2 active torsions:
REMARK  status: ('A' for Active; 'I' for Inactive)
REMARK    1  A    between atoms: C1_1  and  C2_2 
REMARK    2  A    between atoms: C4_4  and  C5_8 
ROOT
ATOM      1  C2  <0> d           0.002  -0.004   0.002  0.00  0.00     0.052 A 
ATOM      2  C3  <0> d           0.008  -0.818  -1.135  0.00  0.00    -0.034 A 
ATOM      3  C4  <0> d           0.028  -2.107  -0.725  0.00  0.00     0.034 A 
ATOM      4  N1  <0> d           0.034  -2.109   0.625  0.00  0.00    -0.282 N 
ATOM      5  H1  <0> d           0.048  -2.894   1.194  0.00  0.00     0.189 HD
ATOM      6  N2  <0> d           0.023  -0.777   1.058  0.00  0.00    -0.180 NA
ATOM      7  H5  <0> d          -0.002  -0.478  -2.160  0.00  0.00     0.089 H 
ENDROOT
BRANCH   3   8
ATOM      8  C5  <0> d           0.040  -3.323  -1.615  0.00  0.00    -0.012 A 
ATOM      9  C7  <0> d           0.838  -4.539  -1.139  0.00  0.00    -0.056 A 
ATOM     10  C6  <0> d          -0.692  -4.571  -1.117  0.00  0.00    -0.056 A 
ATOM     11  H9  <0> d           1.343  -5.138  -1.898  0.00  0.00     0.034 H 
ATOM     12  H10 <0> d           1.354  -4.459  -0.183  0.00  0.00     0.034 H 
ATOM     13  H7  <0> d          -1.182  -4.512  -0.145  0.00  0.00     0.034 H 
ATOM     14  H8  <0> d          -1.193  -5.191  -1.860  0.00  0.00     0.034 H 
ATOM     15  H6  <0> d           0.020  -3.122  -2.686  0.00  0.00     0.049 H 
ENDBRANCH   3   8
BRANCH   1  16
ATOM     16  C1  <0> d          -0.018   1.503   0.010  0.00  0.00    -0.034 C 
ATOM     17  H2  <0> d           1.004   1.880   0.003  0.00  0.00     0.035 H 
ATOM     18  H3  <0> d          -0.545   1.864  -0.873  0.00  0.00     0.035 H 
ATOM     19  H4  <0> d          -0.529   1.854   0.907  0.00  0.00     0.035 H 
ENDBRANCH   1  16
TORSDOF 2
