REMARK  5 active torsions:
REMARK  status: ('A' for Active; 'I' for Inactive)
REMARK    1  A    between atoms: C1_1  and  C2_2 
REMARK    2  A    between atoms: C2_2  and  C3_3 
REMARK    3  A    between atoms: C3_3  and  C4_4 
REMARK    4  A    between atoms: C3_3  and  C5_5 
REMARK    5  A    between atoms: C3_3  and  O2_10 
ROOT
ATOM      1  C3  <0> d           0.002  -0.004   0.002  0.00  0.00     0.102 C 
ENDROOT
BRANCH   1   2
ATOM      2  C2  <0> d           1.265  -0.501   0.709  0.00  0.00    -0.034 C 
ATOM      3  H4  <0> d           1.226  -0.216   1.771  0.00  0.00     0.037 H 
ATOM      4  H5  <0> d           2.150  -0.048   0.240  0.00  0.00     0.037 H 
BRANCH   2   5
ATOM      5  C1  <0> d           1.349  -2.024   0.592  0.00  0.00    -0.073 C 
ATOM      6  H1  <0> d           2.256  -2.381   1.101  0.00  0.00     0.027 H 
ATOM      7  H2  <0> d           1.387  -2.309  -0.470  0.00  0.00     0.027 H 
ATOM      8  H3  <0> d           0.463  -2.477   1.062  0.00  0.00     0.027 H 
ENDBRANCH   2   5
ENDBRANCH   1   2
BRANCH   1   9
ATOM      9  C4  <0> d          -0.004  -0.506  -1.443  0.00  0.00    -0.042 C 
ATOM     10  H6  <0> d          -0.912  -0.149  -1.952  0.00  0.00     0.032 H 
ATOM     11  H7  <0> d           0.011  -1.606  -1.449  0.00  0.00     0.032 H 
ATOM     12  H8  <0> d           0.884  -0.125  -1.968  0.00  0.00     0.032 H 
ENDBRANCH   1   9
BRANCH   1  13
ATOM     13  C5  <0> d          -0.018   1.503   0.010  0.00  0.00     0.086 A 
ATOM     14  O1  <0> d           1.060   2.303   0.004  0.00  0.00    -0.324 OA
ATOM     15  C8  <0> d           0.666   3.587   0.015  0.00  0.00     0.019 A 
ATOM     16  C7  <0> d          -0.679   3.618   0.027  0.00  0.00    -0.059 A 
ATOM     17  H11 <0> d           1.317   4.448   0.013  0.00  0.00     0.123 H 
ATOM     18  C6  <0> d          -1.120   2.275   0.019  0.00  0.00    -0.050 A 
ATOM     19  H10 <0> d          -1.302   4.500   0.037  0.00  0.00     0.086 H 
ATOM     20  H9  <0> d          -2.145   1.933   0.022  0.00  0.00     0.087 H 
ENDBRANCH   1  13
BRANCH   1  21
ATOM     21  O2  <0> d          -1.152  -0.500   0.683  0.00  0.00    -0.383 OA
ATOM     22  H12 <0> d          -2.158  -0.246   0.318  0.00  0.00     0.211 HD
ENDBRANCH   1  21
TORSDOF 5
