REMARK  3 active torsions:
REMARK  status: ('A' for Active; 'I' for Inactive)
REMARK    1  A    between atoms: C1_1  and  O1_2 
REMARK    2  A    between atoms: O1_2  and  C2_3 
REMARK       I    between atoms: C2_3  and  N1_5 
REMARK    3  A    between atoms: N1_5  and  C3_6 
ROOT
ATOM      1  C2  <0> d          -1.189  -0.632   0.010  0.00  0.00     0.366 C 
ATOM      2  O2  <0> d          -2.217   0.016   0.023  0.00  0.00    -0.238 OA
ATOM      3  N1  <0> d          -1.241  -1.978   0.003  0.00  0.00    -0.281 N 
ATOM      4  H4  <0> d          -0.421  -2.495  -0.007  0.00  0.00     0.173 HD
ENDROOT
BRANCH   3   5
ATOM      5  C3  <0> d          -2.471  -2.626   0.012  0.00  0.00     0.174 A 
ATOM      6  S1  <0> d          -2.782  -4.280   0.006  0.00  0.00    -0.062 SA
ATOM      7  C5  <0> d          -4.566  -4.197   0.025  0.00  0.00    -0.025 A 
ATOM      8  C4  <0> d          -4.755  -2.854   0.027  0.00  0.00     0.011 A 
ATOM      9  H6  <0> d          -5.293  -4.995   0.030  0.00  0.00     0.097 H 
ATOM     10  N2  <0> d          -3.675  -2.095   0.020  0.00  0.00    -0.236 NA
ATOM     11  H5  <0> d          -5.746  -2.425   0.035  0.00  0.00     0.115 H 
ENDBRANCH   3   5
BRANCH   1  12
ATOM     12  O1  <0> d           0.002  -0.004   0.002  0.00  0.00    -0.309 OA
BRANCH  12  13
ATOM     13  C1  <0> d          -0.017   1.425   0.010  0.00  0.00     0.015 C 
ATOM     14  H1  <0> d           1.005   1.802   0.002  0.00  0.00     0.067 H 
ATOM     15  H2  <0> d          -0.544   1.786  -0.873  0.00  0.00     0.067 H 
ATOM     16  H3  <0> d          -0.527   1.776   0.907  0.00  0.00     0.067 H 
ENDBRANCH  12  13
ENDBRANCH   1  12
TORSDOF 3
