REMARK  2 active torsions:
REMARK  status: ('A' for Active; 'I' for Inactive)
REMARK    1  A    between atoms: C4_5  and  O2_14 
REMARK    2  A    between atoms: C7_10  and  C8_12 
ROOT
ATOM      1  C1  <0> d          -0.013   1.086   0.008  0.00  0.00    -0.060 C 
ATOM      2  C2  <0> d          -0.806   1.621  -1.206  0.00  0.00    -0.058 C 
ATOM      3  C3  <0> d          -1.991   2.420  -0.581  0.00  0.00    -0.016 C 
ATOM      4  H1  <0> d          -2.481   3.138  -1.239  0.00  0.00     0.045 H 
ATOM      5  C4  <0> d          -2.913   1.328   0.042  0.00  0.00     0.040 C 
ATOM      6  H2  <0> d          -3.855   1.767   0.368  0.00  0.00     0.083 H 
ATOM      7  C5  <0> d          -2.119   0.793   1.256  0.00  0.00    -0.036 C 
ATOM      8  C6  <0> d          -0.790   1.612   1.253  0.00  0.00    -0.038 C 
ATOM      9  H3  <0> d          -0.234   1.627   2.191  0.00  0.00     0.041 H 
ATOM     10  C7  <0> d          -1.306   2.993   0.709  0.00  0.00     0.040 C 
ATOM     11  H4  <0> d          -2.027   3.454   1.384  0.00  0.00     0.058 H 
ATOM     12  H5  <0> d           0.002  -0.004   0.002  0.00  0.00     0.033 H 
ATOM     13  H6  <0> d           1.004   1.479   0.000  0.00  0.00     0.033 H 
ATOM     14  H7  <0> d          -0.180   2.278  -1.809  0.00  0.00     0.033 H 
ATOM     15  H8  <0> d          -1.182   0.794  -1.809  0.00  0.00     0.033 H 
ATOM     16  H9  <0> d          -2.672   0.969   2.179  0.00  0.00     0.037 H 
ATOM     17  H10 <0> d          -1.911  -0.271   1.136  0.00  0.00     0.037 H 
ENDROOT
BRANCH  10  18
ATOM     18  C8  <0> d          -0.171   3.928   0.379  0.00  0.00     0.177 C 
ATOM     19  O1  <0> d           0.110   4.153  -0.774  0.00  0.00    -0.648 OA
ATOM     20  O3  <0> d           0.528   4.510   1.367  0.00  0.00    -0.648 OA
ENDBRANCH  10  18
BRANCH   5  21
ATOM     21  O2  <0> d          -3.150   0.279  -0.899  0.00  0.00    -0.395 OA
ATOM     22  H11 <0> d          -3.718  -0.429  -0.565  0.00  0.00     0.210 HD
ENDBRANCH   5  21
TORSDOF 2
