REMARK  1 active torsions:
REMARK  status: ('A' for Active; 'I' for Inactive)
REMARK    1  A    between atoms: C1_1  and  C2_2 
ROOT
ATOM      1  C2  <0> d          -1.239   2.102   0.019  0.00  0.00    -0.020 A 
ATOM      2  C3  <0> d          -1.244   3.485   0.033  0.00  0.00    -0.038 A 
ATOM      3  C4  <0> d          -0.023   4.154   0.025  0.00  0.00     0.125 A 
ATOM      4  C5  <0> d           1.156   3.415   0.009  0.00  0.00     0.039 A 
ATOM      5  N1  <0> d           1.128   2.101   0.003  0.00  0.00    -0.246 NA
ATOM      6  C6  <0> d          -0.017   1.428   0.010  0.00  0.00     0.142 A 
ATOM      7  C7  <0> d           0.002  -0.004   0.002  0.00  0.00     0.120 C 
ATOM      8  N2  <0> d           0.018  -1.140  -0.004  0.00  0.00    -0.190 NA
ATOM      9  O1  <0> d           0.016   5.511   0.032  0.00  0.00    -0.191 OA
ATOM     10  H4  <0> d          -2.175   4.034   0.044  0.00  0.00     0.088 H 
ATOM     11  H5  <0> d           2.106   3.929   0.003  0.00  0.00     0.119 H 
ENDROOT
BRANCH   1  12
ATOM     12  C1  <0> d          -2.535   1.333   0.021  0.00  0.00    -0.048 C 
ATOM     13  H1  <0> d          -3.380   2.038   0.029  0.00  0.00     0.033 H 
ATOM     14  H2  <0> d          -2.582   0.695   0.916  0.00  0.00     0.033 H 
ATOM     15  H3  <0> d          -2.590   0.705  -0.880  0.00  0.00     0.033 H 
ENDBRANCH   1  12
TORSDOF 1
