REMARK  3 active torsions:
REMARK  status: ('A' for Active; 'I' for Inactive)
REMARK    1  A    between atoms: C3_4  and  C5_8 
REMARK    2  A    between atoms: C5_8  and  C6_9 
REMARK    3  A    between atoms: C6_9  and  O2_10 
ROOT
ATOM      1  C1  <0> d          -0.016   1.301   0.009  0.00  0.00     0.069 A 
ATOM      2  N1  <0> d           1.121   2.024   0.002  0.00  0.00    -0.317 N 
ATOM      3  C2  <0> d           2.321   1.405  -0.013  0.00  0.00     0.257 A 
ATOM      4  C3  <0> d           2.355   0.002  -0.021  0.00  0.00     0.068 A 
ATOM      5  C4  <0> d           1.156  -0.686  -0.013  0.00  0.00     0.213 A 
ATOM      6  N2  <0> d           0.002  -0.004   0.002  0.00  0.00    -0.217 NA
ATOM      7  O1  <0> d           1.148  -2.039  -0.019  0.00  0.00    -0.169 OA
ATOM      8  O3  <0> d           3.355   2.053  -0.019  0.00  0.00    -0.267 OA
ATOM      9  H1  <0> d          -0.966   1.814   0.026  0.00  0.00     0.143 H 
ATOM     10  H7  <0> d           1.078   2.993   0.007  0.00  0.00     0.169 HD
ENDROOT
BRANCH   4  11
ATOM     11  C5  <0> d           3.668  -0.737  -0.037  0.00  0.00    -0.012 C 
ATOM     12  H2  <0> d           4.403  -0.185   0.548  0.00  0.00     0.043 H 
ATOM     13  H3  <0> d           3.532  -1.729   0.393  0.00  0.00     0.043 H 
BRANCH  11  14
ATOM     14  C6  <0> d           4.160  -0.870  -1.480  0.00  0.00     0.021 C 
ATOM     15  H4  <0> d           3.424  -1.422  -2.065  0.00  0.00     0.074 H 
ATOM     16  H5  <0> d           4.296   0.122  -1.911  0.00  0.00     0.074 H 
BRANCH  14  17
ATOM     17  O2  <0> d           5.405  -1.571  -1.496  0.00  0.00    -0.401 OA
ATOM     18  H6  <0> d           5.777  -1.692  -2.381  0.00  0.00     0.209 HD
ENDBRANCH  14  17
ENDBRANCH  11  14
ENDBRANCH   4  11
TORSDOF 3
