REMARK  5 active torsions:
REMARK  status: ('A' for Active; 'I' for Inactive)
REMARK    1  A    between atoms: C1_1  and  C2_2 
REMARK    2  A    between atoms: C2_2  and  C3_3 
REMARK    3  A    between atoms: C2_2  and  C4_4 
REMARK    4  A    between atoms: C2_2  and  N1_5 
REMARK    5  A    between atoms: C6_7  and  N3_10 
ROOT
ATOM      1  C2  <0> d           0.002  -0.004   0.002  0.00  0.00     0.044 C 
ENDROOT
BRANCH   1   2
ATOM      2  C1  <0> d          -0.019   1.526   0.010  0.00  0.00    -0.052 C 
ATOM      3  H1  <0> d           1.004   1.903   0.003  0.00  0.00     0.030 H 
ATOM      4  H2  <0> d          -0.546   1.887  -0.873  0.00  0.00     0.030 H 
ATOM      5  H3  <0> d          -0.529   1.877   0.907  0.00  0.00     0.030 H 
ENDBRANCH   1   2
BRANCH   1   6
ATOM      6  C3  <0> d           0.742  -0.511   1.242  0.00  0.00    -0.052 C 
ATOM      7  H4  <0> d           0.232  -0.159   2.138  0.00  0.00     0.030 H 
ATOM      8  H5  <0> d           0.757  -1.601   1.236  0.00  0.00     0.030 H 
ATOM      9  H6  <0> d           1.765  -0.134   1.234  0.00  0.00     0.030 H 
ENDBRANCH   1   6
BRANCH   1  10
ATOM     10  C4  <0> d          -1.433  -0.534   0.013  0.00  0.00    -0.052 C 
ATOM     11  H7  <0> d          -1.960  -0.173  -0.870  0.00  0.00     0.030 H 
ATOM     12  H8  <0> d          -1.419  -1.623   0.007  0.00  0.00     0.030 H 
ATOM     13  H9  <0> d          -1.944  -0.182   0.910  0.00  0.00     0.030 H 
ENDBRANCH   1  10
BRANCH   1  14
ATOM     14  N1  <0> d           0.688  -0.476  -1.203  0.00  0.00    -0.270 N 
ATOM     15  N2  <0> d           0.077  -1.030  -2.336  0.00  0.00    -0.182 NA
ATOM     16  C7  <0> d           1.011  -1.327  -3.204  0.00  0.00     0.048 A 
ATOM     17  C6  <0> d           2.253  -0.983  -2.651  0.00  0.00     0.062 A 
ATOM     18  H11 <0> d           0.852  -1.767  -4.177  0.00  0.00     0.121 H 
ATOM     19  C5  <0> d           2.030  -0.461  -1.419  0.00  0.00     0.026 A 
ATOM     20  H10 <0> d           2.782  -0.098  -0.734  0.00  0.00     0.117 H 
BRANCH  17  21
ATOM     21  N3  <0> d           3.509  -1.150  -3.266  0.00  0.00    -0.397 N 
ATOM     22  H12 <0> d           4.316  -0.880  -2.802  0.00  0.00     0.156 HD
ATOM     23  H13 <0> d           3.566  -1.535  -4.155  0.00  0.00     0.156 HD
ENDBRANCH  17  21
ENDBRANCH   1  14
TORSDOF 5
