REMARK  4 active torsions:
REMARK  status: ('A' for Active; 'I' for Inactive)
REMARK    1  A    between atoms: C2_2  and  C3_3 
REMARK    2  A    between atoms: C3_3  and  C4_5 
REMARK    3  A    between atoms: C3_3  and  O1_13 
REMARK    4  A    between atoms: C5_6  and  C6_7 
ROOT
ATOM      1  C1  <0> d          -1.292   1.962  -2.136  0.00  0.00    -0.151 C 
ATOM      2  C2  <0> d          -0.725   1.573  -1.185  0.00  0.00    -0.082 C 
ATOM      3  H2  <0> d          -1.800   2.310  -2.986  0.00  0.00     0.166 H 
ENDROOT
BRANCH   2   4
ATOM      4  C3  <0> d          -0.013   1.086   0.008  0.00  0.00     0.110 C 
ATOM      5  H1  <0> d           0.002  -0.004   0.002  0.00  0.00     0.109 H 
BRANCH   4   6
ATOM      6  C4  <0> d           1.401   1.607  -0.003  0.00  0.00    -0.064 C 
ATOM      7  C5  <0> d           1.865   2.287   1.037  0.00  0.00    -0.073 C 
ATOM      8  H4  <0> d           1.230   2.466   1.892  0.00  0.00     0.084 H 
ATOM      9  H3  <0> d           2.036   1.428  -0.857  0.00  0.00     0.082 H 
BRANCH   7  10
ATOM     10  C6  <0> d           3.252   2.798   1.027  0.00  0.00    -0.036 A 
ATOM     11  C11 <0> d           3.743   3.513   2.119  0.00  0.00    -0.073 A 
ATOM     12  C10 <0> d           5.038   3.988   2.103  0.00  0.00    -0.082 A 
ATOM     13  H9  <0> d           3.111   3.695   2.976  0.00  0.00     0.084 H 
ATOM     14  C9  <0> d           5.850   3.756   1.007  0.00  0.00    -0.083 A 
ATOM     15  H8  <0> d           5.420   4.542   2.949  0.00  0.00     0.083 H 
ATOM     16  C8  <0> d           5.369   3.048  -0.080  0.00  0.00    -0.082 A 
ATOM     17  H7  <0> d           6.863   4.130   1.000  0.00  0.00     0.083 H 
ATOM     18  C7  <0> d           4.077   2.563  -0.074  0.00  0.00    -0.073 A 
ATOM     19  H6  <0> d           6.007   2.871  -0.933  0.00  0.00     0.083 H 
ATOM     20  H5  <0> d           3.704   2.006  -0.921  0.00  0.00     0.084 H 
ENDBRANCH   7  10
ENDBRANCH   4   6
BRANCH   4  21
ATOM     21  O1  <0> d          -0.682   1.547   1.184  0.00  0.00    -0.380 OA
ATOM     22  H10 <0> d          -0.732   2.510   1.256  0.00  0.00     0.211 HD
ENDBRANCH   4  21
ENDBRANCH   2   4
TORSDOF 4
