REMARK  5 active torsions:
REMARK  status: ('A' for Active; 'I' for Inactive)
REMARK    1  A    between atoms: C1_1  and  C2_2 
REMARK    2  A    between atoms: C2_2  and  C3_3 
REMARK    3  A    between atoms: C2_2  and  C5_6 
REMARK    4  A    between atoms: C2_2  and  O3_8 
REMARK    5  A    between atoms: C3_3  and  C4_4 
ROOT
ATOM      1  C2  <0> d           0.002  -0.004   0.002  0.00  0.00     0.151 C 
ENDROOT
BRANCH   1   2
ATOM      2  C1  <0> d          -0.019   1.526   0.010  0.00  0.00    -0.038 C 
ATOM      3  H1  <0> d           1.004   1.903   0.003  0.00  0.00     0.032 H 
ATOM      4  H2  <0> d          -0.546   1.887  -0.873  0.00  0.00     0.032 H 
ATOM      5  H3  <0> d          -0.529   1.877   0.907  0.00  0.00     0.032 H 
ENDBRANCH   1   2
BRANCH   1   6
ATOM      6  C3  <0> d           0.718  -0.497  -1.257  0.00  0.00     0.053 C 
ATOM      7  H4  <0> d           0.733  -1.587  -1.263  0.00  0.00     0.054 H 
ATOM      8  H5  <0> d           0.191  -0.136  -2.140  0.00  0.00     0.054 H 
BRANCH   6   9
ATOM      9  C4  <0> d           2.132   0.024  -1.268  0.00  0.00     0.176 C 
ATOM     10  O1  <0> d           2.526   0.719  -0.361  0.00  0.00    -0.648 OA
ATOM     11  O4  <0> d           2.953  -0.283  -2.284  0.00  0.00    -0.648 OA
ENDBRANCH   6   9
ENDBRANCH   1   6
BRANCH   1  12
ATOM     12  C5  <0> d          -1.412  -0.526   0.013  0.00  0.00     0.209 C 
ATOM     13  O2  <0> d          -1.957  -0.815  -1.026  0.00  0.00    -0.646 OA
ATOM     14  O5  <0> d          -2.065  -0.669   1.176  0.00  0.00    -0.646 OA
ENDBRANCH   1  12
BRANCH   1  15
ATOM     15  O3  <0> d           0.693  -0.477   1.160  0.00  0.00    -0.379 OA
ATOM     16  H6  <0> d           0.745  -1.441   1.220  0.00  0.00     0.211 HD
ENDBRANCH   1  15
TORSDOF 5
