REMARK  1 active torsions:
REMARK  status: ('A' for Active; 'I' for Inactive)
REMARK    1  A    between atoms: C6_6  and  O1_7 
ROOT
ATOM      1  C1  <0> d          -0.729   1.579   1.267  0.00  0.00    -0.036 C 
ATOM      2  C2  <0> d          -0.013   1.086   0.008  0.00  0.00    -0.011 C 
ATOM      3  C3  <0> d          -0.753   1.593  -1.231  0.00  0.00     0.164 C 
ATOM      4  C4  <0> d          -0.785   3.122  -1.226  0.00  0.00    -0.011 C 
ATOM      5  C5  <0> d          -1.501   3.612   0.034  0.00  0.00    -0.036 C 
ATOM      6  C6  <0> d          -0.755   3.109   1.272  0.00  0.00     0.036 C 
ATOM      7  O2  <0> d          -2.098   1.087  -1.224  0.00  0.00    -0.353 OA
ATOM      8  C7  <0> d          -2.405   0.835  -2.617  0.00  0.00     0.043 C 
ATOM      9  C8  <0> d          -1.040   0.338  -3.155  0.00  0.00     0.043 C 
ATOM     10  O3  <0> d          -0.089   1.128  -2.413  0.00  0.00    -0.353 OA
ATOM     11  H1  <0> d          -1.751   1.199   1.276  0.00  0.00     0.036 H 
ATOM     12  H2  <0> d          -0.200   1.222   2.150  0.00  0.00     0.036 H 
ATOM     13  H3  <0> d           0.002  -0.004   0.002  0.00  0.00     0.041 H 
ATOM     14  H4  <0> d           1.010   1.463   0.000  0.00  0.00     0.041 H 
ATOM     15  H5  <0> d           0.234   3.507  -1.238  0.00  0.00     0.041 H 
ATOM     16  H6  <0> d          -1.318   3.477  -2.108  0.00  0.00     0.041 H 
ATOM     17  H7  <0> d          -1.521   4.702   0.040  0.00  0.00     0.036 H 
ATOM     18  H8  <0> d          -2.522   3.230   0.045  0.00  0.00     0.036 H 
ATOM     19  H9  <0> d           0.266   3.490   1.260  0.00  0.00     0.082 H 
ATOM     20  H11 <0> d          -2.713   1.751  -3.120  0.00  0.00     0.077 H 
ATOM     21  H12 <0> d          -3.168   0.062  -2.715  0.00  0.00     0.077 H 
ATOM     22  H13 <0> d          -0.953   0.535  -4.224  0.00  0.00     0.077 H 
ATOM     23  H14 <0> d          -0.906  -0.723  -2.946  0.00  0.00     0.077 H 
ENDROOT
BRANCH   6  24
ATOM     24  O1  <0> d          -1.421   3.570   2.449  0.00  0.00    -0.396 OA
ATOM     25  H10 <0> d          -1.002   3.288   3.274  0.00  0.00     0.210 HD
ENDBRANCH   6  24
TORSDOF 1
