REMARK  2 active torsions:
REMARK  status: ('A' for Active; 'I' for Inactive)
REMARK    1  A    between atoms: C1_1  and  C2_2 
REMARK    2  A    between atoms: C5_7  and  C6_8 
ROOT
ATOM      1  C2  <0> d           0.605   3.211   0.013  0.00  0.00    -0.038 A 
ATOM      2  C3  <0> d           1.069   1.881   0.002  0.00  0.00    -0.061 A 
ATOM      3  C4  <0> d          -0.013   1.076   0.008  0.00  0.00    -0.022 A 
ATOM      4  N1  <0> d          -1.128   1.860   0.017  0.00  0.00    -0.369 N 
ATOM      5  H1  <0> d          -2.044   1.540   0.019  0.00  0.00     0.165 HD
ATOM      6  C5  <0> d          -0.743   3.168   0.026  0.00  0.00     0.011 A 
ATOM      7  H5  <0> d           2.102   1.565  -0.009  0.00  0.00     0.086 H 
ATOM      8  H6  <0> d           0.002  -0.004   0.002  0.00  0.00     0.111 H 
ENDROOT
BRANCH   1   9
ATOM      9  C1  <0> d           1.457   4.454   0.013  0.00  0.00    -0.049 C 
ATOM     10  H2  <0> d           1.653   4.759  -1.015  0.00  0.00     0.033 H 
ATOM     11  H3  <0> d           0.934   5.254   0.536  0.00  0.00     0.033 H 
ATOM     12  H4  <0> d           2.401   4.247   0.516  0.00  0.00     0.033 H 
ENDBRANCH   1   9
BRANCH   6  13
ATOM     13  C6  <0> d          -1.665   4.360   0.041  0.00  0.00    -0.037 C 
ATOM     14  H7  <0> d          -1.897   4.652  -0.983  0.00  0.00     0.035 H 
ATOM     15  H8  <0> d          -2.587   4.100   0.562  0.00  0.00     0.035 H 
ATOM     16  H9  <0> d          -1.179   5.189   0.554  0.00  0.00     0.035 H 
ENDBRANCH   6  13
TORSDOF 2
