REMARK  2 active torsions:
REMARK  status: ('A' for Active; 'I' for Inactive)
REMARK    1  A    between atoms: C1_1  and  C2_2 
REMARK    2  A    between atoms: C6_7  and  N2_8 
ROOT
ATOM      1  C2  <0> d          -0.018   1.503   0.010  0.00  0.00    -0.030 A 
ATOM      2  C3  <0> d          -1.239   2.192   0.020  0.00  0.00    -0.058 A 
ATOM      3  C4  <0> d          -1.259   3.543   0.032  0.00  0.00     0.007 A 
ATOM      4  N1  <0> d          -0.099   4.256   0.025  0.00  0.00    -0.224 N 
ATOM      5  C5  <0> d           1.108   3.619   0.010  0.00  0.00     0.178 A 
ATOM      6  C6  <0> d           1.154   2.207   0.003  0.00  0.00     0.080 A 
ATOM      7  N3  <0> d           2.051   4.554   0.006  0.00  0.00    -0.218 NA
ATOM      8  C7  <0> d           1.490   5.754   0.018  0.00  0.00     0.108 A 
ATOM      9  N4  <0> d           0.183   5.629   0.029  0.00  0.00    -0.159 NA
ATOM     10  H4  <0> d          -2.168   1.641   0.021  0.00  0.00     0.086 H 
ATOM     11  H5  <0> d          -2.205   4.064   0.044  0.00  0.00     0.114 H 
ATOM     12  H8  <0> d           2.026   6.692   0.017  0.00  0.00     0.149 H 
ENDROOT
BRANCH   1  13
ATOM     13  C1  <0> d           0.002  -0.004   0.002  0.00  0.00    -0.049 C 
ATOM     14  H1  <0> d          -1.030  -0.385   0.010  0.00  0.00     0.033 H 
ATOM     15  H2  <0> d           0.534  -0.368   0.893  0.00  0.00     0.033 H 
ATOM     16  H3  <0> d           0.517  -0.359  -0.903  0.00  0.00     0.033 H 
ENDBRANCH   1  13
BRANCH   6  17
ATOM     17  N2  <0> d           2.381   1.540  -0.012  0.00  0.00    -0.396 N 
ATOM     18  H6  <0> d           3.319   2.113  -0.018  0.00  0.00     0.156 HD
ATOM     19  H7  <0> d           2.408   0.440  -0.019  0.00  0.00     0.156 HD
ENDBRANCH   6  17
TORSDOF 2
