REMARK  0 active torsions:
REMARK  status: ('A' for Active; 'I' for Inactive)
ROOT
ATOM      1  C1  <0> d          -0.017   1.399   0.010  0.00  0.00    -0.062 A 
ATOM      2  C2  <0> d           1.145   2.106   0.002  0.00  0.00    -0.068 A 
ATOM      3  C3  <0> d           2.376   1.434  -0.013  0.00  0.00     0.011 A 
ATOM      4  C4  <0> d           3.722   1.871  -0.024  0.00  0.00     0.034 A 
ATOM      5  N1  <0> d           4.500   0.828  -0.038  0.00  0.00    -0.186 NA
ATOM      6  N2  <0> d           3.728  -0.340  -0.036  0.00  0.00    -0.278 N 
ATOM      7  H1  <0> d           4.068  -1.248  -0.044  0.00  0.00     0.189 HD
ATOM      8  C5  <0> d           2.405   0.025  -0.021  0.00  0.00     0.063 A 
ATOM      9  C6  <0> d           1.213  -0.689  -0.014  0.00  0.00    -0.035 A 
ATOM     10  C7  <0> d           0.002  -0.004   0.002  0.00  0.00     0.046 A 
ATOM     11  C8  <0> d          -1.230  -0.734   0.010  0.00  0.00     0.099 C 
ATOM     12  N3  <0> d          -2.207  -1.313   0.017  0.00  0.00    -0.191 NA
ATOM     13  H2  <0> d          -0.962   1.922   0.026  0.00  0.00     0.085 H 
ATOM     14  H3  <0> d           1.120   3.186   0.009  0.00  0.00     0.085 H 
ATOM     15  H4  <0> d           4.049   2.900  -0.022  0.00  0.00     0.118 H 
ATOM     16  H5  <0> d           1.227  -1.768  -0.020  0.00  0.00     0.089 H 
ENDROOT
TORSDOF 0
