REMARK  1 active torsions:
REMARK  status: ('A' for Active; 'I' for Inactive)
REMARK    1  A    between atoms: C2_2  and  C5_8 
ROOT
ATOM      1  C1  <0> d          -0.013   1.076   0.008  0.00  0.00     0.036 A 
ATOM      2  C2  <0> d          -1.229   1.758   0.017  0.00  0.00     0.152 A 
ATOM      3  N1  <0> d          -1.242   3.088   0.030  0.00  0.00    -0.227 NA
ATOM      4  C3  <0> d          -0.105   3.757   0.023  0.00  0.00     0.144 A 
ATOM      5  C4  <0> d           1.105   3.074   0.008  0.00  0.00     0.041 A 
ATOM      6  N2  <0> d           1.122   1.753   0.001  0.00  0.00    -0.267 NA
ATOM      7 Cl1  <0> d          -0.120   5.492   0.032  0.00  0.00    -0.061 Cl
ATOM      8  H1  <0> d           0.002  -0.004   0.002  0.00  0.00     0.118 H 
ATOM      9  H2  <0> d           2.034   3.624   0.002  0.00  0.00     0.119 H 
ENDROOT
BRANCH   2  10
ATOM     10  C5  <0> d          -2.503   1.003   0.019  0.00  0.00     0.230 C 
ATOM     11  O1  <0> d          -2.489  -0.211   0.013  0.00  0.00    -0.643 OA
ATOM     12  O2  <0> d          -3.676   1.663   0.028  0.00  0.00    -0.643 OA
ENDBRANCH   2  10
TORSDOF 1
