REMARK  0 active torsions:
REMARK  status: ('A' for Active; 'I' for Inactive)
ROOT
ATOM      1  C1  <0> d          -1.280   2.305   3.445  0.00  0.00    -0.082 A 
ATOM      2  C2  <0> d          -2.584   2.572   3.071  0.00  0.00    -0.082 A 
ATOM      3  C3  <0> d          -2.987   2.355   1.767  0.00  0.00    -0.076 A 
ATOM      4  C4  <0> d          -2.088   1.871   0.835  0.00  0.00    -0.052 A 
ATOM      5  C5  <0> d          -0.779   1.603   1.212  0.00  0.00    -0.052 A 
ATOM      6  C6  <0> d          -0.381   1.821   2.515  0.00  0.00    -0.076 A 
ATOM      7  C7  <0> d          -0.013   1.086   0.008  0.00  0.00    -0.040 C 
ATOM      8  C8  <0> d          -0.819   1.628  -1.202  0.00  0.00    -0.058 C 
ATOM      9  C9  <0> d          -2.263   1.547  -0.637  0.00  0.00    -0.040 C 
ATOM     10  H1  <0> d          -0.965   2.475   4.464  0.00  0.00     0.083 H 
ATOM     11  H2  <0> d          -3.288   2.950   3.798  0.00  0.00     0.083 H 
ATOM     12  H3  <0> d          -4.006   2.564   1.476  0.00  0.00     0.084 H 
ATOM     13  H4  <0> d           0.638   1.612   2.808  0.00  0.00     0.084 H 
ATOM     14  H5  <0> d           0.002  -0.004   0.002  0.00  0.00     0.040 H 
ATOM     15  H6  <0> d           1.003   1.482   0.000  0.00  0.00     0.040 H 
ATOM     16  H7  <0> d          -0.542   2.657  -1.432  0.00  0.00     0.033 H 
ATOM     17  H8  <0> d          -0.701   0.985  -2.075  0.00  0.00     0.033 H 
ATOM     18  H9  <0> d          -2.905   2.285  -1.118  0.00  0.00     0.040 H 
ATOM     19  H10 <0> d          -2.670   0.544  -0.766  0.00  0.00     0.040 H 
ENDROOT
TORSDOF 0
