REMARK  0 active torsions:
REMARK  status: ('A' for Active; 'I' for Inactive)
ROOT
ATOM      1  C1  <0> d          -1.239   3.403   0.032  0.00  0.00     0.001 A 
ATOM      2  C2  <0> d          -0.022   4.071   0.024  0.00  0.00     0.177 A 
ATOM      3  C3  <0> d           1.153   3.336   0.009  0.00  0.00     0.251 A 
ATOM      4  N1  <0> d           1.123   2.015   0.002  0.00  0.00    -0.186 NA
ATOM      5  C4  <0> d          -0.016   1.347   0.009  0.00  0.00     0.251 A 
ATOM      6  C5  <0> d          -1.231   2.016   0.019  0.00  0.00     0.177 A 
ATOM      7  F1  <0> d          -2.392   1.325   0.020  0.00  0.00    -0.201 F 
ATOM      8  F2  <0> d           0.002  -0.004   0.002  0.00  0.00    -0.181 F 
ATOM      9  F3  <0> d           2.342   3.977   0.001  0.00  0.00    -0.181 F 
ATOM     10  F4  <0> d           0.016   5.422   0.031  0.00  0.00    -0.201 F 
ATOM     11  H1  <0> d          -2.170   3.951   0.044  0.00  0.00     0.093 H 
ENDROOT
TORSDOF 0
