REMARK  2 active torsions:
REMARK  status: ('A' for Active; 'I' for Inactive)
REMARK    1  A    between atoms: C4_5  and  S1_7 
REMARK    2  A    between atoms: S1_7  and  N1_10 
ROOT
ATOM      1  C1  <0> d          -0.019   1.549   0.011  0.00  0.00    -0.026 C 
ATOM      2  C2  <0> d           1.498   1.864  -0.002  0.00  0.00     0.021 C 
ATOM      3  O1  <0> d           2.100   0.843   0.810  0.00  0.00    -0.390 OA
ATOM      4  C3  <0> d           1.263  -0.319   0.835  0.00  0.00     0.037 C 
ATOM      5  C4  <0> d           0.002  -0.004   0.002  0.00  0.00     0.085 C 
ATOM      6  H1  <0> d           0.103  -0.385  -1.014  0.00  0.00     0.070 H 
ATOM      7  H2  <0> d          -0.492   1.930   0.916  0.00  0.00     0.038 H 
ATOM      8  H3  <0> d          -0.509   1.940  -0.881  0.00  0.00     0.038 H 
ATOM      9  H4  <0> d           1.886   1.815  -1.020  0.00  0.00     0.074 H 
ATOM     10  H5  <0> d           1.684   2.848   0.427  0.00  0.00     0.074 H 
ATOM     11  H6  <0> d           1.793  -1.165   0.398  0.00  0.00     0.076 H 
ATOM     12  H7  <0> d           0.980  -0.549   1.862  0.00  0.00     0.076 H 
ENDROOT
BRANCH   5  13
ATOM     13  S1  <0> d          -1.483  -0.674   0.800  0.00  0.00     0.230 S 
ATOM     14  O2  <0> d          -1.522  -0.285   2.166  0.00  0.00    -0.206 OA
ATOM     15  O3  <0> d          -2.615  -0.489  -0.038  0.00  0.00    -0.206 OA
BRANCH  13  16
ATOM     16  N1  <0> d          -1.245  -2.313   0.834  0.00  0.00    -0.328 N 
ATOM     17  H8  <0> d          -0.432  -2.692   0.466  0.00  0.00     0.168 HD
ATOM     18  H9  <0> d          -1.919  -2.893   1.221  0.00  0.00     0.168 HD
ENDBRANCH  13  16
ENDBRANCH   5  13
TORSDOF 2
