REMARK  2 active torsions:
REMARK  status: ('A' for Active; 'I' for Inactive)
REMARK    1  A    between atoms: N2_4  and  C4_6 
REMARK    2  A    between atoms: C4_6  and  C5_7 
ROOT
ATOM      1  C1  <0> d           0.002  -0.004   0.002  0.00  0.00    -0.048 A 
ATOM      2  C2  <0> d           1.339  -0.416  -0.013  0.00  0.00     0.023 A 
ATOM      3  N1  <0> d           2.095   0.651  -0.015  0.00  0.00    -0.185 NA
ATOM      4  N2  <0> d           1.263   1.778  -0.001  0.00  0.00    -0.276 N 
ATOM      5  C3  <0> d          -0.016   1.349   0.009  0.00  0.00    -0.000 A 
ATOM      6  H1  <0> d          -0.863  -0.651   0.007  0.00  0.00     0.087 H 
ATOM      7  H2  <0> d           1.686  -1.439  -0.022  0.00  0.00     0.117 H 
ATOM      8  H3  <0> d          -0.897   1.974   0.017  0.00  0.00     0.114 H 
ENDROOT
BRANCH   4   9
ATOM      9  C4  <0> d           1.704   3.175   0.003  0.00  0.00     0.070 C 
ATOM     10  H4  <0> d           2.219   3.396  -0.932  0.00  0.00     0.075 H 
ATOM     11  H5  <0> d           0.838   3.829   0.104  0.00  0.00     0.075 H 
BRANCH   9  12
ATOM     12  C5  <0> d           2.658   3.406   1.177  0.00  0.00     0.225 C 
ATOM     13  F1  <0> d           3.821   2.651   0.988  0.00  0.00    -0.213 F 
ATOM     14  F2  <0> d           2.989   4.763   1.248  0.00  0.00    -0.213 F 
ATOM     15  H6  <0> d           2.173   3.101   2.104  0.00  0.00     0.147 H 
ENDBRANCH   9  12
ENDBRANCH   4   9
TORSDOF 2
