REMARK  1 active torsions:
REMARK  status: ('A' for Active; 'I' for Inactive)
REMARK    1  A    between atoms: C3_3  and  C6_8 
ROOT
ATOM      1  C6  <0> d          -0.013   1.086   0.008  0.00  0.00     0.020 C 
ATOM      2  C7  <0> d          -0.725   1.573  -1.185  0.00  0.00     0.059 C 
ATOM      3  N1  <0> d          -1.274   1.950  -2.105  0.00  0.00    -0.197 NA
ATOM      4  H10 <0> d           1.019   1.466   0.000  0.00  0.00     0.055 H 
ATOM      5  H11 <0> d           0.002  -0.014   0.002  0.00  0.00     0.055 H 
ENDROOT
BRANCH   1   6
ATOM      6  C3  <0> d          -0.729   1.579   1.267  0.00  0.00    -0.022 C 
ATOM      7  C2  <0> d           0.079   1.179   2.505  0.00  0.00    -0.057 C 
ATOM      8  C1  <0> d          -0.686   1.609   3.761  0.00  0.00    -0.045 C 
ATOM      9  H4  <0> d           1.060   1.676   2.485  0.00  0.00     0.033 H 
ATOM     10  H5  <0> d           0.221   0.088   2.518  0.00  0.00     0.033 H 
ATOM     11  C5  <0> d          -2.078   0.973   3.744  0.00  0.00     0.019 C 
ATOM     12  H2  <0> d          -0.784   2.705   3.776  0.00  0.00     0.036 H 
ATOM     13  H3  <0> d          -0.142   1.277   4.657  0.00  0.00     0.036 H 
ATOM     14  O1  <0> d          -2.764   1.361   2.552  0.00  0.00    -0.391 OA
ATOM     15  H8  <0> d          -1.981  -0.123   3.772  0.00  0.00     0.074 H 
ATOM     16  H9  <0> d          -2.647   1.312   4.622  0.00  0.00     0.074 H 
ATOM     17  C4  <0> d          -2.119   0.944   1.347  0.00  0.00     0.024 C 
ATOM     18  H6  <0> d          -2.719   1.263   0.481  0.00  0.00     0.074 H 
ATOM     19  H7  <0> d          -2.023  -0.152   1.342  0.00  0.00     0.074 H 
ATOM     20  H1  <0> d          -0.824   2.674   1.224  0.00  0.00     0.044 H 
ENDBRANCH   1   6
TORSDOF 1
