REMARK  2 active torsions:
REMARK  status: ('A' for Active; 'I' for Inactive)
REMARK    1  A    between atoms: C1_1  and  C2_2 
REMARK    2  A    between atoms: C2_2  and  C3_4 
ROOT
ATOM      1  C3  <0> d          -1.258  -0.755   0.010  0.00  0.00     0.025 A 
ATOM      2  C4  <0> d          -2.499  -0.069   0.020  0.00  0.00    -0.063 A 
ATOM      3  C5  <0> d          -3.651  -0.790   0.027  0.00  0.00    -0.016 A 
ATOM      4  C6  <0> d          -3.588  -2.197   0.025  0.00  0.00     0.245 A 
ATOM      5  O2  <0> d          -4.619  -2.849   0.031  0.00  0.00    -0.268 OA
ATOM      6  N1  <0> d          -2.400  -2.829   0.016  0.00  0.00    -0.333 N 
ATOM      7  H1  <0> d          -2.376  -3.799   0.014  0.00  0.00     0.168 HD
ATOM      8  C7  <0> d          -1.246  -2.139   0.003  0.00  0.00    -0.006 A 
ATOM      9  H5  <0> d          -2.529   1.011   0.022  0.00  0.00     0.085 H 
ATOM     10  H6  <0> d          -4.607  -0.289   0.035  0.00  0.00     0.092 H 
ATOM     11  H7  <0> d          -0.305  -2.667  -0.010  0.00  0.00     0.112 H 
ENDROOT
BRANCH   1  12
ATOM     12  C2  <0> d           0.002  -0.004   0.002  0.00  0.00     0.157 C 
ATOM     13  O1  <0> d           1.061  -0.596  -0.011  0.00  0.00    -0.293 OA
BRANCH  12  14
ATOM     14  C1  <0> d          -0.018   1.503   0.010  0.00  0.00    -0.017 C 
ATOM     15  H2  <0> d           1.004   1.880   0.003  0.00  0.00     0.038 H 
ATOM     16  H3  <0> d          -0.545   1.864  -0.873  0.00  0.00     0.038 H 
ATOM     17  H4  <0> d          -0.529   1.854   0.907  0.00  0.00     0.038 H 
ENDBRANCH  12  14
ENDBRANCH   1  12
TORSDOF 2
