REMARK  2 active torsions:
REMARK  status: ('A' for Active; 'I' for Inactive)
REMARK    1  A    between atoms: C1_1  and  C2_2 
REMARK    2  A    between atoms: C2_2  and  C9_13 
ROOT
ATOM      1  C2  <0> d           0.002  -0.004   0.002  0.00  0.00     0.040 C 
ATOM      2  C3  <0> d          -1.362  -0.619   0.130  0.00  0.00     0.061 C 
ATOM      3  H1  <0> d          -2.005  -0.075   0.822  0.00  0.00     0.086 H 
ATOM      4  C4  <0> d          -0.558  -1.757   0.835  0.00  0.00     0.031 C 
ATOM      5  H2  <0> d          -0.014  -2.387   0.132  0.00  0.00     0.055 H 
ATOM      6  C5  <0> d           0.262  -0.647   1.369  0.00  0.00     0.144 C 
ATOM      7  O1  <0> d           0.852  -0.379   2.388  0.00  0.00    -0.297 OA
ATOM      8  C6  <0> d          -1.562  -2.545   1.656  0.00  0.00    -0.051 C 
ATOM      9  C7  <0> d          -2.557  -3.137   0.638  0.00  0.00    -0.044 C 
ATOM     10  C8  <0> d          -3.136  -2.073  -0.287  0.00  0.00     0.020 C 
ATOM     11  O2  <0> d          -2.099  -1.254  -0.894  0.00  0.00    -0.384 OA
ATOM     12  H6  <0> d          -1.058  -3.344   2.200  0.00  0.00     0.034 H 
ATOM     13  H7  <0> d          -2.081  -1.885   2.350  0.00  0.00     0.034 H 
ATOM     14  H8  <0> d          -2.044  -3.887   0.037  0.00  0.00     0.036 H 
ATOM     15  H9  <0> d          -3.373  -3.617   1.179  0.00  0.00     0.036 H 
ATOM     16  H10 <0> d          -3.700  -2.565  -1.079  0.00  0.00     0.074 H 
ATOM     17  H11 <0> d          -3.814  -1.440   0.285  0.00  0.00     0.074 H 
ENDROOT
BRANCH   1  18
ATOM     18  C1  <0> d          -0.000   1.526   0.024  0.00  0.00    -0.060 C 
ATOM     19  H3  <0> d           1.027   1.891   0.026  0.00  0.00     0.029 H 
ATOM     20  H4  <0> d          -0.517   1.901  -0.859  0.00  0.00     0.029 H 
ATOM     21  H5  <0> d          -0.512   1.875   0.921  0.00  0.00     0.029 H 
ENDBRANCH   1  18
BRANCH   1  22
ATOM     22  C9  <0> d           0.848  -0.588  -1.132  0.00  0.00    -0.060 C 
ATOM     23  H12 <0> d           1.855  -0.175  -1.083  0.00  0.00     0.029 H 
ATOM     24  H13 <0> d           0.894  -1.672  -1.030  0.00  0.00     0.029 H 
ATOM     25  H14 <0> d           0.396  -0.332  -2.090  0.00  0.00     0.029 H 
ENDBRANCH   1  22
TORSDOF 2
