REMARK  3 active torsions:
REMARK  status: ('A' for Active; 'I' for Inactive)
REMARK    1  A    between atoms: C1_1  and  C2_2 
REMARK    2  A    between atoms: C2_2  and  O1_3 
REMARK    3  A    between atoms: O1_3  and  C3_4 
ROOT
ATOM      1  C3  <0> d          -1.187   3.151   0.031  0.00  0.00     0.086 A 
ATOM      2  C4  <0> d          -1.217   1.760   0.017  0.00  0.00    -0.048 A 
ATOM      3  C5  <0> d          -0.013   1.076   0.008  0.00  0.00    -0.063 A 
ATOM      4  C6  <0> d           1.170   1.791   0.001  0.00  0.00     0.002 A 
ATOM      5  N1  <0> d           1.164   3.110   0.008  0.00  0.00    -0.270 NA
ATOM      6  C7  <0> d           0.040   3.799   0.023  0.00  0.00     0.034 A 
ATOM      7  H6  <0> d          -2.156   1.227   0.018  0.00  0.00     0.087 H 
ATOM      8  H7  <0> d           0.002  -0.004   0.002  0.00  0.00     0.085 H 
ATOM      9  H8  <0> d           2.112   1.263  -0.011  0.00  0.00     0.114 H 
ATOM     10  H9  <0> d           0.075   4.878   0.029  0.00  0.00     0.119 H 
ENDROOT
BRANCH   1  11
ATOM     11  O1  <0> d          -2.343   3.866   0.046  0.00  0.00    -0.350 OA
BRANCH  11  12
ATOM     12  C2  <0> d          -2.226   5.290   0.053  0.00  0.00     0.023 C 
ATOM     13  H4  <0> d          -1.675   5.605   0.940  0.00  0.00     0.074 H 
ATOM     14  H5  <0> d          -1.692   5.615  -0.840  0.00  0.00     0.074 H 
BRANCH  12  15
ATOM     15  C1  <0> d          -3.621   5.917   0.070  0.00  0.00    -0.056 C 
ATOM     16  H1  <0> d          -4.172   5.602  -0.816  0.00  0.00     0.030 H 
ATOM     17  H2  <0> d          -4.155   5.591   0.964  0.00  0.00     0.030 H 
ATOM     18  H3  <0> d          -3.532   7.003   0.076  0.00  0.00     0.030 H 
ENDBRANCH  12  15
ENDBRANCH  11  12
ENDBRANCH   1  11
TORSDOF 3
