REMARK  5 active torsions:
REMARK  status: ('A' for Active; 'I' for Inactive)
REMARK    1  A    between atoms: C1_1  and  C2_2 
REMARK    2  A    between atoms: C2_2  and  O1_3 
REMARK    3  A    between atoms: O1_3  and  C3_4 
REMARK    4  A    between atoms: C3_4  and  C4_6 
REMARK    5  A    between atoms: C5_8  and  C6_11 
ROOT
ATOM      1  C3  <0> d           0.600  -0.602  -1.046  0.00  0.00     0.333 C 
ATOM      2  O2  <0> d           1.092   0.071  -1.929  0.00  0.00    -0.256 OA
ENDROOT
BRANCH   1   3
ATOM      3  O1  <0> d           0.002  -0.004   0.002  0.00  0.00    -0.315 OA
BRANCH   3   4
ATOM      4  C2  <0> d          -0.018   1.448   0.010  0.00  0.00     0.026 C 
ATOM      5  H4  <0> d          -0.550   1.812  -0.881  0.00  0.00     0.074 H 
ATOM      6  H5  <0> d           1.014   1.829   0.002  0.00  0.00     0.074 H 
BRANCH   4   7
ATOM      7  C1  <0> d          -0.734   1.941   1.269  0.00  0.00    -0.056 C 
ATOM      8  H1  <0> d          -0.749   3.041   1.275  0.00  0.00     0.030 H 
ATOM      9  H2  <0> d          -0.202   1.577   2.160  0.00  0.00     0.030 H 
ATOM     10  H3  <0> d          -1.766   1.560   1.276  0.00  0.00     0.030 H 
ENDBRANCH   4   7
ENDBRANCH   3   4
ENDBRANCH   1   3
BRANCH   1  11
ATOM     11  C4  <0> d           0.658  -2.082  -1.122  0.00  0.00     0.254 A 
ATOM     12  N2  <0> d           0.178  -2.923  -0.244  0.00  0.00    -0.100 NA
ATOM     13  O3  <0> d           0.387  -4.063  -0.602  0.00  0.00    -0.196 OA
ATOM     14  C5  <0> d           1.044  -4.065  -1.766  0.00  0.00     0.169 A 
ATOM     15  N1  <0> d           1.224  -2.814  -2.109  0.00  0.00    -0.200 NA
BRANCH  14  16
ATOM     16  C6  <0> d           1.493  -5.278  -2.539  0.00  0.00    -0.013 C 
ATOM     17  H6  <0> d           1.197  -6.188  -1.997  0.00  0.00     0.038 H 
ATOM     18  H7  <0> d           2.587  -5.257  -2.651  0.00  0.00     0.038 H 
ATOM     19  H8  <0> d           1.023  -5.274  -3.534  0.00  0.00     0.038 H 
ENDBRANCH  14  16
ENDBRANCH   1  11
TORSDOF 5
