REMARK  4 active torsions:
REMARK  status: ('A' for Active; 'I' for Inactive)
REMARK    1  A    between atoms: C1_1  and  C2_2 
REMARK    2  A    between atoms: C2_2  and  O1_3 
REMARK    3  A    between atoms: O1_3  and  C3_4 
REMARK    4  A    between atoms: C6_7  and  O2_10 
ROOT
ATOM      1  C3  <0> d           1.175   2.087   0.002  0.00  0.00     0.068 A 
ATOM      2  C4  <0> d          -0.017   1.377   0.010  0.00  0.00    -0.048 A 
ATOM      3  C5  <0> d           0.002  -0.004   0.002  0.00  0.00    -0.048 A 
ATOM      4  C6  <0> d           1.212  -0.681  -0.013  0.00  0.00     0.065 A 
ATOM      5  C7  <0> d           2.404   0.029  -0.020  0.00  0.00    -0.048 A 
ATOM      6  C8  <0> d           2.385   1.410  -0.013  0.00  0.00    -0.048 A 
ATOM      7  H6  <0> d          -0.959   1.904   0.017  0.00  0.00     0.087 H 
ATOM      8  H7  <0> d          -0.926  -0.557   0.007  0.00  0.00     0.087 H 
ATOM      9  H8  <0> d           3.347  -0.499  -0.031  0.00  0.00     0.087 H 
ATOM     10  H9  <0> d           3.313   1.962  -0.018  0.00  0.00     0.087 H 
ENDROOT
BRANCH   1  11
ATOM     11  O1  <0> d           1.157   3.446   0.009  0.00  0.00    -0.352 OA
BRANCH  11  12
ATOM     12  C2  <0> d           2.421   4.113   0.001  0.00  0.00     0.023 C 
ATOM     13  H4  <0> d           2.990   3.823   0.884  0.00  0.00     0.074 H 
ATOM     14  H5  <0> d           2.973   3.832  -0.896  0.00  0.00     0.074 H 
BRANCH  12  15
ATOM     15  C1  <0> d           2.200   5.627   0.010  0.00  0.00    -0.056 C 
ATOM     16  H1  <0> d           1.631   5.916  -0.873  0.00  0.00     0.030 H 
ATOM     17  H2  <0> d           1.647   5.907   0.907  0.00  0.00     0.030 H 
ATOM     18  H3  <0> d           3.164   6.135   0.004  0.00  0.00     0.030 H 
ENDBRANCH  12  15
ENDBRANCH  11  12
ENDBRANCH   1  11
BRANCH   4  19
ATOM     19  O2  <0> d           1.231  -2.041  -0.021  0.00  0.00    -0.361 OA
ATOM     20  H10 <0> d           1.228  -2.429  -0.906  0.00  0.00     0.217 HD
ENDBRANCH   4  19
TORSDOF 4
