REMARK  2 active torsions:
REMARK  status: ('A' for Active; 'I' for Inactive)
REMARK    1  A    between atoms: C1_1  and  C2_2 
REMARK    2  A    between atoms: C5_6  and  C7_10 
ROOT
ATOM      1  C2  <0> d          -0.013   1.086   0.008  0.00  0.00     0.001 C 
ATOM      2  H1  <0> d           0.017   0.086   0.002  0.00  0.00     0.051 H 
ATOM      3  C3  <0> d          -0.786   1.609   1.243  0.00  0.00    -0.055 C 
ATOM      4  C4  <0> d          -2.262   1.488   0.785  0.00  0.00    -0.055 C 
ATOM      5  C5  <0> d          -2.214   1.865  -0.710  0.00  0.00     0.001 C 
ATOM      6  H2  <0> d          -2.462   2.827  -0.820  0.00  0.00     0.051 H 
ATOM      7  C6  <0> d          -0.794   1.612  -1.183  0.00  0.00     0.134 C 
ATOM      8  O1  <0> d          -0.364   1.796  -2.296  0.00  0.00    -0.297 OA
ATOM      9  H6  <0> d          -0.598   0.981   2.114  0.00  0.00     0.034 H 
ATOM     10  H7  <0> d          -0.529   2.648   1.450  0.00  0.00     0.034 H 
ATOM     11  H8  <0> d          -2.620   0.467   0.912  0.00  0.00     0.034 H 
ATOM     12  H9  <0> d          -2.893   2.187   1.336  0.00  0.00     0.034 H 
ENDROOT
BRANCH   1  13
ATOM     13  C1  <0> d           1.414   1.639  -0.003  0.00  0.00    -0.066 C 
ATOM     14  H3  <0> d           1.943   1.296   0.887  0.00  0.00     0.028 H 
ATOM     15  H4  <0> d           1.934   1.285  -0.893  0.00  0.00     0.028 H 
ATOM     16  H5  <0> d           1.381   2.728  -0.009  0.00  0.00     0.028 H 
ENDBRANCH   1  13
BRANCH   5  17
ATOM     17  C7  <0> d          -3.192   0.993  -1.500  0.00  0.00    -0.066 C 
ATOM     18  H10 <0> d          -4.203   1.147  -1.124  0.00  0.00     0.028 H 
ATOM     19  H11 <0> d          -3.151   1.265  -2.555  0.00  0.00     0.028 H 
ATOM     20  H12 <0> d          -2.918  -0.056  -1.385  0.00  0.00     0.028 H 
ENDBRANCH   5  17
TORSDOF 2
