REMARK  3 active torsions:
REMARK  status: ('A' for Active; 'I' for Inactive)
REMARK    1  A    between atoms: C1_1  and  O1_2 
REMARK    2  A    between atoms: O1_2  and  C2_3 
REMARK    3  A    between atoms: C6_7  and  C7_9 
REMARK       I    between atoms: C7_9  and  N2_11 
ROOT
ATOM      1  C2  <0> d           1.183   2.057   0.002  0.00  0.00     0.164 A 
ATOM      2  C3  <0> d           1.228   3.449   0.003  0.00  0.00    -0.032 A 
ATOM      3  C4  <0> d           2.455   4.087  -0.000  0.00  0.00    -0.076 A 
ATOM      4  C5  <0> d           3.606   3.312  -0.015  0.00  0.00    -0.050 A 
ATOM      5  C6  <0> d           3.490   1.925  -0.021  0.00  0.00     0.127 A 
ATOM      6  N1  <0> d           2.294   1.346  -0.013  0.00  0.00    -0.219 NA
ATOM      7  H4  <0> d           0.314   4.024   0.011  0.00  0.00     0.090 H 
ATOM      8  H5  <0> d           2.516   5.165   0.004  0.00  0.00     0.083 H 
ATOM      9  H6  <0> d           4.580   3.779  -0.023  0.00  0.00     0.087 H 
ENDROOT
BRANCH   1  10
ATOM     10  O1  <0> d          -0.017   1.425   0.010  0.00  0.00    -0.339 OA
BRANCH  10  11
ATOM     11  C1  <0> d           0.002  -0.004   0.002  0.00  0.00     0.012 C 
ATOM     12  H1  <0> d           0.529  -0.365   0.885  0.00  0.00     0.067 H 
ATOM     13  H2  <0> d          -1.020  -0.381   0.010  0.00  0.00     0.067 H 
ATOM     14  H3  <0> d           0.512  -0.356  -0.895  0.00  0.00     0.067 H 
ENDBRANCH  10  11
ENDBRANCH   1  10
BRANCH   5  15
ATOM     15  C7  <0> d           4.711   1.087  -0.037  0.00  0.00     0.268 C 
ATOM     16  O2  <0> d           5.808   1.611  -0.045  0.00  0.00    -0.266 OA
ATOM     17  N2  <0> d           4.606  -0.257  -0.042  0.00  0.00    -0.365 N 
ATOM     18  H7  <0> d           3.731  -0.675  -0.036  0.00  0.00     0.159 HD
ATOM     19  H8  <0> d           5.405  -0.806  -0.053  0.00  0.00     0.159 HD
ENDBRANCH   5  15
TORSDOF 3
