REMARK  4 active torsions:
REMARK  status: ('A' for Active; 'I' for Inactive)
REMARK    1  A    between atoms: C1_1  and  C2_2 
REMARK    2  A    between atoms: C4_4  and  N1_10 
REMARK    3  A    between atoms: C6_6  and  C9_9 
REMARK    4  A    between atoms: C7_7  and  C8_8 
ROOT
ATOM      1  C2  <0> d          -1.217   1.751   0.017  0.00  0.00    -0.053 A 
ATOM      2  C3  <0> d          -0.013   1.076   0.008  0.00  0.00    -0.051 A 
ATOM      3  C4  <0> d           1.180   1.788   0.000  0.00  0.00     0.026 A 
ATOM      4  C5  <0> d           1.157   3.176   0.008  0.00  0.00    -0.051 A 
ATOM      5  C6  <0> d          -0.051   3.845   0.023  0.00  0.00    -0.053 A 
ATOM      6  C7  <0> d          -1.237   3.134   0.030  0.00  0.00    -0.050 A 
ATOM      7  H4  <0> d           0.002  -0.004   0.002  0.00  0.00     0.087 H 
ATOM      8  H5  <0> d           2.083   3.733   0.002  0.00  0.00     0.087 H 
ENDROOT
BRANCH   1   9
ATOM      9  C1  <0> d          -2.512   0.980   0.019  0.00  0.00    -0.051 C 
ATOM     10  H1  <0> d          -2.820   0.788   1.047  0.00  0.00     0.033 H 
ATOM     11  H2  <0> d          -3.282   1.561  -0.488  0.00  0.00     0.033 H 
ATOM     12  H3  <0> d          -2.371   0.032  -0.501  0.00  0.00     0.033 H 
ENDBRANCH   1   9
BRANCH   6  13
ATOM     13  C8  <0> d          -2.554   3.867   0.046  0.00  0.00    -0.050 C 
ATOM     14  H6  <0> d          -2.880   4.049  -0.977  0.00  0.00     0.033 H 
ATOM     15  H7  <0> d          -3.299   3.263   0.564  0.00  0.00     0.033 H 
ATOM     16  H8  <0> d          -2.433   4.818   0.564  0.00  0.00     0.033 H 
ENDBRANCH   6  13
BRANCH   5  17
ATOM     17  C9  <0> d          -0.078   5.352   0.032  0.00  0.00    -0.051 C 
ATOM     18  H9  <0> d          -0.094   5.721  -0.994  0.00  0.00     0.033 H 
ATOM     19  H10 <0> d          -0.969   5.697   0.556  0.00  0.00     0.033 H 
ATOM     20  H11 <0> d           0.811   5.728   0.539  0.00  0.00     0.033 H 
ENDBRANCH   5  17
BRANCH   3  21
ATOM     21  N1  <0> d           2.401   1.108  -0.015  0.00  0.00    -0.399 N 
ATOM     22  H12 <0> d           2.416   0.138  -0.020  0.00  0.00     0.156 HD
ATOM     23  H13 <0> d           3.233   1.606  -0.020  0.00  0.00     0.156 HD
ENDBRANCH   3  21
TORSDOF 4
