REMARK  1 active torsions:
REMARK  status: ('A' for Active; 'I' for Inactive)
REMARK    1  A    between atoms: C2_2  and  C5_7 
ROOT
ATOM      1  C1  <0> d          -0.013   1.086   0.008  0.00  0.00     0.009 C 
ATOM      2  C2  <0> d          -0.939   1.683   1.080  0.00  0.00     0.041 C 
ATOM      3  C3  <0> d          -2.063   1.621   0.029  0.00  0.00     0.009 C 
ATOM      4  C4  <0> d          -0.959   1.695  -1.040  0.00  0.00     0.245 C 
ATOM      5  F1  <0> d          -0.622   3.002  -1.408  0.00  0.00    -0.206 F 
ATOM      6  F2  <0> d          -1.188   0.862  -2.140  0.00  0.00    -0.206 F 
ATOM      7  H1  <0> d           0.023  -0.006  -0.121  0.00  0.00     0.043 H 
ATOM      8  H2  <0> d           0.996   1.504  -0.122  0.00  0.00     0.043 H 
ATOM      9  H3  <0> d          -0.693   2.602   1.633  0.00  0.00     0.057 H 
ATOM     10  H4  <0> d          -2.628   0.686   0.152  0.00  0.00     0.043 H 
ATOM     11  H5  <0> d          -2.738   2.479   0.162  0.00  0.00     0.043 H 
ENDROOT
BRANCH   2  12
ATOM     12  C5  <0> d          -1.162   0.773   2.260  0.00  0.00     0.177 C 
ATOM     13  O1  <0> d          -0.632  -0.312   2.295  0.00  0.00    -0.648 OA
ATOM     14  O2  <0> d          -1.951   1.168   3.273  0.00  0.00    -0.648 OA
ENDBRANCH   2  12
TORSDOF 1
