REMARK  3 active torsions:
REMARK  status: ('A' for Active; 'I' for Inactive)
REMARK    1  A    between atoms: C1_1  and  C2_2 
REMARK    2  A    between atoms: C6_6  and  C8_9 
REMARK    3  A    between atoms: C7_7  and  O1_8 
ROOT
ATOM      1  C2  <0> d           0.002  -0.004   0.002  0.00  0.00    -0.028 A 
ATOM      2  C3  <0> d           0.006  -0.689  -1.198  0.00  0.00    -0.074 A 
ATOM      3  C4  <0> d           0.024  -2.071  -1.206  0.00  0.00    -0.082 A 
ATOM      4  C5  <0> d           0.040  -2.772  -0.014  0.00  0.00    -0.074 A 
ATOM      5  C6  <0> d           0.036  -2.092   1.188  0.00  0.00    -0.028 A 
ATOM      6  C7  <0> d           0.023  -0.705   1.199  0.00  0.00     0.077 A 
ATOM      7  H4  <0> d          -0.006  -0.144  -2.130  0.00  0.00     0.084 H 
ATOM      8  H5  <0> d           0.027  -2.605  -2.145  0.00  0.00     0.083 H 
ATOM      9  H6  <0> d           0.054  -3.852  -0.023  0.00  0.00     0.084 H 
ENDROOT
BRANCH   1  10
ATOM     10  C1  <0> d          -0.018   1.503   0.010  0.00  0.00    -0.049 C 
ATOM     11  H1  <0> d           1.004   1.880   0.003  0.00  0.00     0.033 H 
ATOM     12  H2  <0> d          -0.545   1.864  -0.873  0.00  0.00     0.033 H 
ATOM     13  H3  <0> d          -0.529   1.854   0.907  0.00  0.00     0.033 H 
ENDBRANCH   1  10
BRANCH   6  14
ATOM     14  O1  <0> d           0.025  -0.033   2.381  0.00  0.00    -0.360 OA
ATOM     15  H7  <0> d          -0.857   0.149   2.731  0.00  0.00     0.217 HD
ENDBRANCH   6  14
BRANCH   5  16
ATOM     16  C8  <0> d           0.052  -2.856   2.487  0.00  0.00    -0.049 C 
ATOM     17  H8  <0> d           1.084  -3.027   2.795  0.00  0.00     0.033 H 
ATOM     18  H9  <0> d          -0.466  -2.280   3.254  0.00  0.00     0.033 H 
ATOM     19  H10 <0> d          -0.449  -3.814   2.351  0.00  0.00     0.033 H 
ENDBRANCH   5  16
TORSDOF 3
