REMARK  4 active torsions:
REMARK  status: ('A' for Active; 'I' for Inactive)
REMARK    1  A    between atoms: C1_1  and  C2_2 
REMARK    2  A    between atoms: C2_2  and  N1_3 
REMARK    3  A    between atoms: N1_3  and  S1_4 
REMARK    4  A    between atoms: S1_4  and  O3_7 
ROOT
ATOM      1  C2  <0> d          -1.125   3.309  -1.574  0.00  0.00     0.001 C 
ATOM      2  H4  <0> d          -1.873   3.691  -0.879  0.00  0.00     0.064 H 
ATOM      3  H5  <0> d          -0.192   3.856  -1.440  0.00  0.00     0.064 H 
ENDROOT
BRANCH   1   4
ATOM      4  C1  <0> d          -1.622   3.491  -3.009  0.00  0.00    -0.061 C 
ATOM      5  H1  <0> d          -2.555   2.943  -3.143  0.00  0.00     0.029 H 
ATOM      6  H2  <0> d          -1.791   4.550  -3.204  0.00  0.00     0.029 H 
ATOM      7  H3  <0> d          -0.874   3.108  -3.704  0.00  0.00     0.029 H 
ENDBRANCH   1   4
BRANCH   1   8
ATOM      8  N1  <0> d          -0.897   1.885  -1.312  0.00  0.00    -0.308 N 
ATOM      9  H6  <0> d          -1.263   1.218  -1.913  0.00  0.00     0.173 HD
BRANCH   8  10
ATOM     10  S1  <0> d          -0.017   1.417   0.010  0.00  0.00     0.194 S 
ATOM     11  O1  <0> d           0.002  -0.004   0.002  0.00  0.00    -0.585 OA
ATOM     12  O2  <0> d           1.172   2.195   0.003  0.00  0.00    -0.585 OA
BRANCH  10  13
ATOM     13  O3  <0> d          -0.803   1.834   1.245  0.00  0.00    -0.279 OA
ATOM     14  H7  <0> d          -0.373   1.606   2.080  0.00  0.00     0.234 HD
ENDBRANCH  10  13
ENDBRANCH   8  10
ENDBRANCH   1   8
TORSDOF 4
