REMARK  1 active torsions:
REMARK  status: ('A' for Active; 'I' for Inactive)
REMARK    1  A    between atoms: C4_5  and  O3_8 
ROOT
ATOM      1  C1  <0> d          -0.017   1.413   0.010  0.00  0.00    -0.010 A 
ATOM      2  C2  <0> d           1.153   2.083   0.002  0.00  0.00     0.022 A 
ATOM      3  O1  <0> d           2.321   1.431  -0.013  0.00  0.00    -0.332 OA
ATOM      4  C3  <0> d           2.389   0.093  -0.021  0.00  0.00     0.054 A 
ATOM      5  C4  <0> d           1.265  -0.658  -0.014  0.00  0.00     0.138 A 
ATOM      6  C5  <0> d           0.002  -0.004   0.002  0.00  0.00     0.208 A 
ATOM      7  O2  <0> d          -1.037  -0.646   0.009  0.00  0.00    -0.285 OA
ATOM      8  H1  <0> d          -0.955   1.948   0.026  0.00  0.00     0.092 H 
ATOM      9  H2  <0> d           1.147   3.163   0.008  0.00  0.00     0.123 H 
ATOM     10  H3  <0> d           3.353  -0.392  -0.033  0.00  0.00     0.128 H 
ENDROOT
BRANCH   5  11
ATOM     11  O3  <0> d           1.341  -2.017  -0.022  0.00  0.00    -0.355 OA
ATOM     12  H4  <0> d           2.245  -2.360  -0.033  0.00  0.00     0.218 HD
ENDBRANCH   5  11
TORSDOF 1
