REMARK  2 active torsions:
REMARK  status: ('A' for Active; 'I' for Inactive)
REMARK    1  A    between atoms: C1_1  and  O1_2 
REMARK    2  A    between atoms: O1_2  and  C2_3 
REMARK       I    between atoms: C2_3  and  N1_5 
ROOT
ATOM      1  C2  <0> d          -0.542   3.909  -1.994  0.00  0.00     0.362 C 
ATOM      2  O2  <0> d           0.070   3.502  -2.961  0.00  0.00    -0.238 OA
ATOM      3  N1  <0> d          -1.001   3.040  -1.071  0.00  0.00    -0.327 N 
ATOM      4  C3  <0> d          -0.765   1.599  -1.227  0.00  0.00     0.006 C 
ATOM      5  C4  <0> d          -0.013   1.086   0.008  0.00  0.00     0.005 C 
ATOM      6  C5  <0> d          -0.731   1.579   1.245  0.00  0.00     0.130 C 
ATOM      7  O3  <0> d          -1.069   0.809   2.112  0.00  0.00    -0.298 OA
ATOM      8  C6  <0> d          -1.015   3.060   1.370  0.00  0.00     0.005 C 
ATOM      9  C7  <0> d          -1.742   3.523   0.101  0.00  0.00     0.006 C 
ATOM     10  H4  <0> d          -0.165   1.421  -2.120  0.00  0.00     0.065 H 
ATOM     11  H5  <0> d          -1.718   1.078  -1.317  0.00  0.00     0.065 H 
ATOM     12  H6  <0> d           0.004   0.086  -0.004  0.00  0.00     0.046 H 
ATOM     13  H7  <0> d           1.009   1.467   0.000  0.00  0.00     0.046 H 
ATOM     14  H8  <0> d          -0.153   3.557   1.473  0.00  0.00     0.046 H 
ATOM     15  H9  <0> d          -1.645   3.241   2.241  0.00  0.00     0.046 H 
ATOM     16  H10 <0> d          -1.785   4.612   0.082  0.00  0.00     0.065 H 
ATOM     17  H11 <0> d          -2.752   3.115   0.089  0.00  0.00     0.065 H 
ENDROOT
BRANCH   1  18
ATOM     18  O1  <0> d          -0.763   5.229  -1.844  0.00  0.00    -0.309 OA
BRANCH  18  19
ATOM     19  C1  <0> d          -0.241   6.106  -2.876  0.00  0.00     0.015 C 
ATOM     20  H1  <0> d           0.842   5.995  -2.933  0.00  0.00     0.067 H 
ATOM     21  H2  <0> d          -0.684   5.842  -3.836  0.00  0.00     0.067 H 
ATOM     22  H3  <0> d          -0.487   7.140  -2.633  0.00  0.00     0.067 H 
ENDBRANCH  18  19
ENDBRANCH   1  18
TORSDOF 2
