REMARK  5 active torsions:
REMARK  status: ('A' for Active; 'I' for Inactive)
REMARK    1  A    between atoms: C1_1  and  C2_2 
REMARK    2  A    between atoms: C2_2  and  C3_3 
REMARK    3  A    between atoms: C2_2  and  C4_4 
REMARK    4  A    between atoms: C6_7  and  C8_12 
REMARK    5  A    between atoms: C8_12  and  O2_13 
ROOT
ATOM      1  C4  <0> d          -1.433  -0.534   0.013  0.00  0.00     0.028 C 
ATOM      2  H1  <0> d          -1.964  -0.175   0.895  0.00  0.00     0.055 H 
ATOM      3  C5  <0> d          -2.175  -0.113  -1.277  0.00  0.00    -0.033 C 
ATOM      4  C6  <0> d          -3.050  -1.356  -1.556  0.00  0.00     0.033 C 
ATOM      5  H2  <0> d          -4.038  -1.228  -1.114  0.00  0.00     0.075 H 
ATOM      6  N1  <0> d          -2.350  -2.478  -0.921  0.00  0.00    -0.354 N 
ATOM      7  C7  <0> d          -1.440  -2.046  -0.031  0.00  0.00     0.222 C 
ATOM      8  O1  <0> d          -0.729  -2.764   0.640  0.00  0.00    -0.273 OA
ATOM      9  H10 <0> d          -2.793   0.767  -1.103  0.00  0.00     0.037 H 
ATOM     10  H11 <0> d          -1.472   0.060  -2.092  0.00  0.00     0.037 H 
ATOM     11  H12 <0> d          -2.522  -3.412  -1.118  0.00  0.00     0.162 HD
ENDROOT
BRANCH   1  12
ATOM     12  C2  <0> d           0.002  -0.004   0.002  0.00  0.00    -0.049 C 
ATOM     13  H6  <0> d           0.512  -0.356  -0.895  0.00  0.00     0.040 H 
BRANCH  12  14
ATOM     14  C1  <0> d          -0.019   1.526   0.010  0.00  0.00    -0.072 C 
ATOM     15  H3  <0> d           1.004   1.903   0.003  0.00  0.00     0.028 H 
ATOM     16  H4  <0> d          -0.546   1.887  -0.873  0.00  0.00     0.028 H 
ATOM     17  H5  <0> d          -0.529   1.877   0.907  0.00  0.00     0.028 H 
ENDBRANCH  12  14
BRANCH  12  18
ATOM     18  C3  <0> d           0.742  -0.511   1.242  0.00  0.00    -0.072 C 
ATOM     19  H7  <0> d           0.757  -1.601   1.236  0.00  0.00     0.028 H 
ATOM     20  H8  <0> d           1.765  -0.134   1.234  0.00  0.00     0.028 H 
ATOM     21  H9  <0> d           0.232  -0.159   2.138  0.00  0.00     0.028 H 
ENDBRANCH  12  18
ENDBRANCH   1  12
BRANCH   4  22
ATOM     22  C8  <0> d          -3.171  -1.592  -3.063  0.00  0.00     0.035 C 
ATOM     23  H13 <0> d          -3.588  -0.704  -3.538  0.00  0.00     0.077 H 
ATOM     24  H14 <0> d          -2.185  -1.797  -3.480  0.00  0.00     0.077 H 
BRANCH  22  25
ATOM     25  O2  <0> d          -4.031  -2.708  -3.302  0.00  0.00    -0.399 OA
ATOM     26  H15 <0> d          -4.154  -2.916  -4.239  0.00  0.00     0.209 HD
ENDBRANCH  22  25
ENDBRANCH   4  22
TORSDOF 5
