REMARK  3 active torsions:
REMARK  status: ('A' for Active; 'I' for Inactive)
REMARK    1  A    between atoms: N1_3  and  C5_8 
REMARK    2  A    between atoms: C3_5  and  C4_6 
REMARK    3  A    between atoms: C5_8  and  O2_9 
ROOT
ATOM      1  C1  <0> d          -0.013   1.076   0.008  0.00  0.00    -0.030 A 
ATOM      2  C2  <0> d          -1.101   1.880   0.017  0.00  0.00     0.003 A 
ATOM      3  N1  <0> d          -0.656   3.155   0.025  0.00  0.00    -0.257 N 
ATOM      4  N2  <0> d           0.628   3.178   0.013  0.00  0.00    -0.164 NA
ATOM      5  C3  <0> d           1.102   1.948   0.002  0.00  0.00     0.154 A 
ATOM      6  H1  <0> d           0.002  -0.004   0.002  0.00  0.00     0.089 H 
ATOM      7  H2  <0> d          -2.133   1.562   0.019  0.00  0.00     0.114 H 
ENDROOT
BRANCH   3   8
ATOM      8  C5  <0> d          -1.515   4.342   0.038  0.00  0.00     0.096 C 
ATOM      9  H3  <0> d          -1.304   4.933   0.929  0.00  0.00     0.109 H 
ATOM     10  H4  <0> d          -1.320   4.942  -0.851  0.00  0.00     0.109 H 
BRANCH   8  11
ATOM     11  O2  <0> d          -2.886   3.938   0.048  0.00  0.00    -0.380 OA
ATOM     12  H5  <0> d          -3.513   4.674   0.058  0.00  0.00     0.211 HD
ENDBRANCH   8  11
ENDBRANCH   3   8
BRANCH   5  13
ATOM     13  C4  <0> d           2.525   1.555  -0.013  0.00  0.00     0.230 C 
ATOM     14  O1  <0> d           2.830   0.379  -0.022  0.00  0.00    -0.643 OA
ATOM     15  O3  <0> d           3.485   2.500  -0.017  0.00  0.00    -0.643 OA
ENDBRANCH   5  13
TORSDOF 3
