REMARK  2 active torsions:
REMARK  status: ('A' for Active; 'I' for Inactive)
REMARK    1  A    between atoms: C1_1  and  C2_2 
REMARK    2  A    between atoms: C4_5  and  C5_7 
ROOT
ATOM      1  C2  <0> d          -0.013   1.086   0.008  0.00  0.00    -0.050 A 
ATOM      2  H1  <0> d           0.002  -0.004   0.002  0.00  0.00     0.040 H 
ATOM      3  C3  <0> d           1.335   1.811  -0.001  0.00  0.00    -0.054 A 
ATOM      4  C4  <0> d           0.460   1.806  -1.256  0.00  0.00    -0.025 A 
ATOM      5  H2  <0> d          -0.042   2.736  -1.524  0.00  0.00     0.048 H 
ATOM      6  H6  <0> d           1.408   2.744   0.558  0.00  0.00     0.034 H 
ATOM      7  H7  <0> d           2.236   1.198  -0.013  0.00  0.00     0.034 H 
ENDROOT
BRANCH   4   8
ATOM      8  C5  <0> d           0.911   0.954  -2.415  0.00  0.00    -0.051 A 
ATOM      9  C9  <0> d           0.274   1.032  -3.644  0.00  0.00    -0.060 A 
ATOM     10  C8  <0> d           0.716   0.236  -4.684  0.00  0.00     0.002 A 
ATOM     11  H11 <0> d          -0.556   1.708  -3.787  0.00  0.00     0.086 H 
ATOM     12  N1  <0> d           1.729  -0.591  -4.516  0.00  0.00    -0.273 NA
ATOM     13  H10 <0> d           0.225   0.291  -5.644  0.00  0.00     0.114 H 
ATOM     14  C7  <0> d           2.358  -0.693  -3.362  0.00  0.00     0.002 A 
ATOM     15  C6  <0> d           1.976   0.076  -2.279  0.00  0.00    -0.060 A 
ATOM     16  H9  <0> d           3.184  -1.381  -3.263  0.00  0.00     0.114 H 
ATOM     17  H8  <0> d           2.498  -0.008  -1.337  0.00  0.00     0.086 H 
ENDBRANCH   4   8
BRANCH   1  18
ATOM     18  C1  <0> d          -1.154   1.726   0.801  0.00  0.00    -0.072 C 
ATOM     19  H3  <0> d          -0.855   2.721   1.129  0.00  0.00     0.028 H 
ATOM     20  H4  <0> d          -2.038   1.803   0.168  0.00  0.00     0.028 H 
ATOM     21  H5  <0> d          -1.383   1.110   1.671  0.00  0.00     0.028 H 
ENDBRANCH   1  18
TORSDOF 2
