REMARK  1 active torsions:
REMARK  status: ('A' for Active; 'I' for Inactive)
REMARK    1  A    between atoms: C6_7  and  O1_10 
ROOT
ATOM      1  C1  <0> d          -0.733   1.581   1.264  0.00  0.00    -0.062 C 
ATOM      2  C2  <0> d          -0.013   1.086   0.008  0.00  0.00    -0.061 C 
ATOM      3  C3  <0> d          -0.761   1.597  -1.236  0.00  0.00    -0.051 C 
ATOM      4  H1  <0> d          -0.403   1.138  -2.157  0.00  0.00     0.040 H 
ATOM      5  C4  <0> d          -2.270   1.359  -0.999  0.00  0.00    -0.059 C 
ATOM      6  C5  <0> d          -2.788   2.597  -0.245  0.00  0.00    -0.036 C 
ATOM      7  C6  <0> d          -1.570   3.530  -0.058  0.00  0.00     0.058 C 
ATOM      8  C7  <0> d          -0.869   3.118   1.248  0.00  0.00    -0.036 C 
ATOM      9  C8  <0> d          -0.629   3.143  -1.230  0.00  0.00    -0.033 C 
ATOM     10  H2  <0> d          -1.728   1.139   1.307  0.00  0.00     0.033 H 
ATOM     11  H3  <0> d          -0.168   1.279   2.146  0.00  0.00     0.033 H 
ATOM     12  H4  <0> d           0.002  -0.004   0.002  0.00  0.00     0.033 H 
ATOM     13  H5  <0> d           1.009   1.464   0.000  0.00  0.00     0.033 H 
ATOM     14  H6  <0> d          -2.787   1.257  -1.953  0.00  0.00     0.033 H 
ATOM     15  H7  <0> d          -2.417   0.463  -0.395  0.00  0.00     0.033 H 
ATOM     16  H8  <0> d          -3.558   3.098  -0.832  0.00  0.00     0.037 H 
ATOM     17  H9  <0> d          -3.189   2.304   0.725  0.00  0.00     0.037 H 
ATOM     18  H10 <0> d           0.125   3.564   1.285  0.00  0.00     0.037 H 
ATOM     19  H11 <0> d          -1.455   3.461   2.100  0.00  0.00     0.037 H 
ATOM     20  H12 <0> d           0.397   3.448  -1.024  0.00  0.00     0.037 H 
ATOM     21  H13 <0> d          -0.980   3.569  -2.170  0.00  0.00     0.037 H 
ENDROOT
BRANCH   7  22
ATOM     22  O1  <0> d          -1.929   4.913  -0.074  0.00  0.00    -0.390 OA
ATOM     23  H14 <0> d          -2.537   5.170   0.633  0.00  0.00     0.210 HD
ENDBRANCH   7  22
TORSDOF 1
