REMARK  4 active torsions:
REMARK  status: ('A' for Active; 'I' for Inactive)
REMARK    1  A    between atoms: C1_1  and  C2_2 
REMARK    2  A    between atoms: C2_2  and  C3_3 
REMARK    3  A    between atoms: C2_2  and  C5_5 
REMARK    4  A    between atoms: C2_2  and  O1_11 
ROOT
ATOM      1  C3  <0> d          -3.200   3.652   1.310  0.00  0.00    -0.073 C 
ATOM      2  C4  <0> d          -3.764   3.442   2.317  0.00  0.00    -0.151 C 
ATOM      3  H4  <0> d          -4.270   3.254   3.218  0.00  0.00     0.166 H 
ENDROOT
BRANCH   1   4
ATOM      4  C2  <0> d          -2.491   3.915   0.046  0.00  0.00     0.161 C 
BRANCH   4   5
ATOM      5  C1  <0> d          -2.203   5.413  -0.074  0.00  0.00    -0.032 C 
ATOM      6  H1  <0> d          -1.679   5.608  -1.010  0.00  0.00     0.033 H 
ATOM      7  H2  <0> d          -3.143   5.966  -0.062  0.00  0.00     0.033 H 
ATOM      8  H3  <0> d          -1.583   5.732   0.764  0.00  0.00     0.033 H 
ENDBRANCH   4   5
BRANCH   4   9
ATOM      9  C5  <0> d          -1.192   3.151   0.030  0.00  0.00     0.080 A 
ATOM     10  N1  <0> d          -0.050   3.809   0.022  0.00  0.00    -0.261 NA
ATOM     11  C9  <0> d           1.111   3.182   0.008  0.00  0.00     0.003 A 
ATOM     12  C8  <0> d           1.169   1.802   0.001  0.00  0.00    -0.066 A 
ATOM     13  H8  <0> d           2.027   3.755   0.002  0.00  0.00     0.114 H 
ATOM     14  C7  <0> d          -0.013   1.076   0.008  0.00  0.00    -0.080 A 
ATOM     15  H7  <0> d           2.122   1.295  -0.011  0.00  0.00     0.085 H 
ATOM     16  C6  <0> d          -1.213   1.769   0.017  0.00  0.00    -0.055 A 
ATOM     17  H6  <0> d           0.002  -0.004   0.002  0.00  0.00     0.083 H 
ATOM     18  H5  <0> d          -2.152   1.236   0.019  0.00  0.00     0.086 H 
ENDBRANCH   4   9
BRANCH   4  19
ATOM     19  O1  <0> d          -3.304   3.497  -1.052  0.00  0.00    -0.372 OA
ATOM     20  H9  <0> d          -3.526   2.556  -1.040  0.00  0.00     0.212 HD
ENDBRANCH   4  19
ENDBRANCH   1   4
TORSDOF 4
