REMARK  2 active torsions:
REMARK  status: ('A' for Active; 'I' for Inactive)
REMARK    1  A    between atoms: C1_1  and  N1_2 
REMARK    2  A    between atoms: N1_2  and  C2_3 
ROOT
ATOM      1  C2  <0> d           0.683  -0.515  -1.195  0.00  0.00     0.243 C 
ATOM      2  C3  <0> d           2.216  -0.544  -1.066  0.00  0.00    -0.018 C 
ATOM      3  C4  <0> d           2.173  -1.896  -1.798  0.00  0.00    -0.059 C 
ATOM      4  C5  <0> d           0.739  -2.050  -1.264  0.00  0.00    -0.018 C 
ATOM      5  C6  <0> d           0.206   0.115  -2.437  0.00  0.00     0.101 C 
ATOM      6  N2  <0> d          -0.162   0.601  -3.395  0.00  0.00    -0.195 NA
ATOM      7  H5  <0> d           2.716   0.243  -1.631  0.00  0.00     0.038 H 
ATOM      8  H6  <0> d           2.566  -0.616  -0.037  0.00  0.00     0.038 H 
ATOM      9  H7  <0> d           2.228  -1.807  -2.883  0.00  0.00     0.033 H 
ATOM     10  H8  <0> d           2.870  -2.632  -1.397  0.00  0.00     0.033 H 
ATOM     11  H9  <0> d           0.685  -2.533  -0.289  0.00  0.00     0.038 H 
ATOM     12  H10 <0> d           0.047  -2.479  -1.989  0.00  0.00     0.038 H 
ENDROOT
BRANCH   1  13
ATOM     13  N1  <0> d           0.002  -0.004   0.002  0.00  0.00     0.102 N 
ATOM     14  H4  <0> d           0.429  -0.364   0.842  0.00  0.00     0.317 HD
BRANCH  13  15
ATOM     15  C1  <0> d          -0.018   1.465   0.010  0.00  0.00     0.095 C 
ATOM     16  H1  <0> d           1.005   1.842   0.002  0.00  0.00     0.071 H 
ATOM     17  H2  <0> d          -0.545   1.826  -0.873  0.00  0.00     0.071 H 
ATOM     18  H3  <0> d          -0.528   1.816   0.907  0.00  0.00     0.071 H 
ENDBRANCH  13  15
ENDBRANCH   1  13
TORSDOF 2
