REMARK  3 active torsions:
REMARK  status: ('A' for Active; 'I' for Inactive)
REMARK    1  A    between atoms: C2_2  and  N1_10 
REMARK    2  A    between atoms: C3_3  and  O2_9 
REMARK    3  A    between atoms: C5_5  and  O1_8 
ROOT
ATOM      1  C1  <0> d          -0.056   3.851   0.023  0.00  0.00    -0.031 A 
ATOM      2  C2  <0> d           1.156   3.177   0.008  0.00  0.00     0.061 A 
ATOM      3  C3  <0> d           1.177   1.785   0.000  0.00  0.00     0.094 A 
ATOM      4  C4  <0> d          -0.013   1.076   0.008  0.00  0.00    -0.015 A 
ATOM      5  C5  <0> d          -1.223   1.753   0.017  0.00  0.00     0.090 A 
ATOM      6  C6  <0> d          -1.243   3.140   0.031  0.00  0.00     0.069 A 
ATOM      7 Cl1  <0> d          -2.759   3.986   0.050  0.00  0.00    -0.081 Cl
ATOM      8  H1  <0> d          -0.073   4.931   0.030  0.00  0.00     0.089 H 
ATOM      9  H2  <0> d           0.002  -0.004   0.002  0.00  0.00     0.092 H 
ENDROOT
BRANCH   2  10
ATOM     10  N1  <0> d           2.359   3.897   0.001  0.00  0.00    -0.397 N 
ATOM     11  H5  <0> d           3.320   3.363  -0.011  0.00  0.00     0.156 HD
ATOM     12  H6  <0> d           2.342   4.997   0.008  0.00  0.00     0.156 HD
ENDBRANCH   2  10
BRANCH   3  13
ATOM     13  O2  <0> d           2.365   1.122  -0.014  0.00  0.00    -0.358 OA
ATOM     14  H4  <0> d           2.381   0.022  -0.020  0.00  0.00     0.217 HD
ENDBRANCH   3  13
BRANCH   5  15
ATOM     15  O1  <0> d          -2.391   1.056   0.019  0.00  0.00    -0.359 OA
ATOM     16  H3  <0> d          -3.351   1.593   0.027  0.00  0.00     0.217 HD
ENDBRANCH   5  15
TORSDOF 3
