REMARK  2 active torsions:
REMARK  status: ('A' for Active; 'I' for Inactive)
REMARK    1  A    between atoms: C1_1  and  N1_2 
REMARK       I    between atoms: N1_2  and  C2_3 
REMARK    2  A    between atoms: C2_3  and  C3_5 
ROOT
ATOM      1  C3  <0> d          -0.065   3.526  -1.403  0.00  0.00     0.031 C 
ATOM      2  H1  <0> d          -0.771   3.200  -2.167  0.00  0.00     0.055 H 
ATOM      3  C4  <0> d           1.203   2.638  -1.420  0.00  0.00    -0.047 C 
ATOM      4  C5  <0> d           1.219   1.990   0.001  0.00  0.00    -0.037 C 
ATOM      5  H2  <0> d           2.159   1.536   0.314  0.00  0.00     0.046 H 
ATOM      6  C6  <0> d           0.671   3.184   0.864  0.00  0.00    -0.051 C 
ATOM      7  C7  <0> d          -0.654   3.302   0.026  0.00  0.00    -0.026 C 
ATOM      8  H3  <0> d          -1.385   4.035   0.367  0.00  0.00     0.047 H 
ATOM      9  C8  <0> d          -1.092   1.832   0.017  0.00  0.00    -0.101 C 
ATOM     10  C9  <0> d          -0.013   1.076   0.008  0.00  0.00    -0.102 C 
ATOM     11  H8  <0> d           2.095   3.246  -1.574  0.00  0.00     0.035 H 
ATOM     12  H9  <0> d           1.124   1.871  -2.190  0.00  0.00     0.035 H 
ATOM     13  H10 <0> d           0.486   2.900   1.900  0.00  0.00     0.035 H 
ATOM     14  H11 <0> d           1.294   4.075   0.788  0.00  0.00     0.035 H 
ATOM     15  H12 <0> d          -2.112   1.477   0.019  0.00  0.00     0.077 H 
ATOM     16  H13 <0> d           0.002  -0.004   0.002  0.00  0.00     0.076 H 
ENDROOT
BRANCH   1  17
ATOM     17  C2  <0> d           0.300   4.974  -1.604  0.00  0.00     0.222 C 
ATOM     18  N1  <0> d           0.907   5.365  -2.743  0.00  0.00    -0.365 N 
ATOM     19  H7  <0> d           1.108   4.713  -3.433  0.00  0.00     0.161 HD
ATOM     20  O1  <0> d           0.048   5.789  -0.741  0.00  0.00    -0.273 OA
BRANCH  18  21
ATOM     21  C1  <0> d           1.261   6.773  -2.938  0.00  0.00    -0.018 C 
ATOM     22  H4  <0> d           0.359   7.384  -2.897  0.00  0.00     0.056 H 
ATOM     23  H5  <0> d           1.949   7.087  -2.152  0.00  0.00     0.056 H 
ATOM     24  H6  <0> d           1.740   6.895  -3.910  0.00  0.00     0.056 H 
ENDBRANCH  18  21
ENDBRANCH   1  17
TORSDOF 2
