REMARK  4 active torsions:
REMARK  status: ('A' for Active; 'I' for Inactive)
REMARK    1  A    between atoms: C1_1  and  C2_2 
REMARK    2  A    between atoms: C2_2  and  C3_4 
REMARK    3  A    between atoms: C2_2  and  C5_7 
REMARK    4  A    between atoms: C3_4  and  C4_5 
ROOT
ATOM      1  C2  <0> d          -2.479   0.930   0.019  0.00  0.00    -0.033 C 
ATOM      2  H1  <0> d          -2.359   0.243   0.856  0.00  0.00     0.046 H 
ENDROOT
BRANCH   1   3
ATOM      3  C1  <0> d          -2.466   0.142  -1.293  0.00  0.00    -0.069 C 
ATOM      4  H2  <0> d          -3.284  -0.577  -1.293  0.00  0.00     0.028 H 
ATOM      5  H3  <0> d          -2.586   0.830  -2.130  0.00  0.00     0.028 H 
ATOM      6  H4  <0> d          -1.518  -0.386  -1.390  0.00  0.00     0.028 H 
ENDBRANCH   1   3
BRANCH   1   7
ATOM      7  C3  <0> d          -1.329   1.940   0.019  0.00  0.00     0.022 C 
ATOM      8  H5  <0> d          -1.391   2.561   0.913  0.00  0.00     0.050 H 
ATOM      9  H6  <0> d          -1.400   2.570  -0.867  0.00  0.00     0.050 H 
BRANCH   7  10
ATOM     10  C4  <0> d          -0.014   1.204   0.009  0.00  0.00     0.173 C 
ATOM     11  O1  <0> d           0.002  -0.004   0.002  0.00  0.00    -0.648 OA
ATOM     12  O2  <0> d           1.139   1.891   0.001  0.00  0.00    -0.648 OA
ENDBRANCH   7  10
ENDBRANCH   1   7
BRANCH   1  13
ATOM     13  C5  <0> d          -3.790   1.661   0.153  0.00  0.00    -0.108 C 
ATOM     14  C6  <0> d          -4.576   1.414   1.171  0.00  0.00    -0.124 C 
ATOM     15  H8  <0> d          -4.285   0.687   1.915  0.00  0.00     0.066 H 
ATOM     16  H9  <0> d          -5.516   1.938   1.268  0.00  0.00     0.066 H 
ATOM     17  H7  <0> d          -4.081   2.388  -0.591  0.00  0.00     0.076 H 
ENDBRANCH   1  13
TORSDOF 4
