REMARK  6 active torsions:
REMARK  status: ('A' for Active; 'I' for Inactive)
REMARK    1  A    between atoms: C1_1  and  C2_2 
REMARK    2  A    between atoms: C2_2  and  C3_3 
REMARK    3  A    between atoms: C2_2  and  C4_4 
REMARK    4  A    between atoms: C2_2  and  C5_5 
REMARK    5  A    between atoms: C5_5  and  C6_6 
REMARK    6  A    between atoms: C8_8  and  N2_11 
ROOT
ATOM      1  C2  <0> d           0.002  -0.004   0.002  0.00  0.00    -0.046 C 
ENDROOT
BRANCH   1   2
ATOM      2  C1  <0> d          -0.019   1.526   0.010  0.00  0.00    -0.069 C 
ATOM      3  H1  <0> d           1.004   1.903   0.003  0.00  0.00     0.028 H 
ATOM      4  H2  <0> d          -0.546   1.887  -0.873  0.00  0.00     0.028 H 
ATOM      5  H3  <0> d          -0.529   1.877   0.907  0.00  0.00     0.028 H 
ENDBRANCH   1   2
BRANCH   1   6
ATOM      6  C3  <0> d           0.742  -0.511   1.242  0.00  0.00    -0.069 C 
ATOM      7  H4  <0> d           0.232  -0.159   2.138  0.00  0.00     0.028 H 
ATOM      8  H5  <0> d           0.757  -1.601   1.236  0.00  0.00     0.028 H 
ATOM      9  H6  <0> d           1.765  -0.134   1.234  0.00  0.00     0.028 H 
ENDBRANCH   1   6
BRANCH   1  10
ATOM     10  C4  <0> d          -1.433  -0.534   0.013  0.00  0.00    -0.069 C 
ATOM     11  H7  <0> d          -1.960  -0.173  -0.870  0.00  0.00     0.028 H 
ATOM     12  H8  <0> d          -1.419  -1.623   0.007  0.00  0.00     0.028 H 
ATOM     13  H9  <0> d          -1.944  -0.182   0.910  0.00  0.00     0.028 H 
ENDBRANCH   1  10
BRANCH   1  14
ATOM     14  C5  <0> d           0.718  -0.497  -1.257  0.00  0.00    -0.017 C 
ATOM     15  H10 <0> d           0.733  -1.587  -1.263  0.00  0.00     0.043 H 
ATOM     16  H11 <0> d           0.191  -0.136  -2.140  0.00  0.00     0.043 H 
BRANCH  14  17
ATOM     17  C6  <0> d           2.132   0.024  -1.268  0.00  0.00     0.067 A 
ATOM     18  N1  <0> d           2.486   1.277  -1.172  0.00  0.00    -0.131 NA
ATOM     19  O1  <0> d           3.900   1.339  -1.221  0.00  0.00    -0.196 OA
ATOM     20  C8  <0> d           4.363   0.085  -1.355  0.00  0.00     0.168 A 
ATOM     21  C7  <0> d           3.293  -0.752  -1.387  0.00  0.00    -0.006 A 
ATOM     22  H12 <0> d           3.330  -1.826  -1.487  0.00  0.00     0.093 H 
BRANCH  20  23
ATOM     23  N2  <0> d           5.691  -0.287  -1.445  0.00  0.00    -0.378 N 
ATOM     24  H13 <0> d           5.927  -1.223  -1.540  0.00  0.00     0.158 HD
ATOM     25  H14 <0> d           6.388   0.388  -1.412  0.00  0.00     0.158 HD
ENDBRANCH  20  23
ENDBRANCH  14  17
ENDBRANCH   1  14
TORSDOF 6
