REMARK  10 active torsions:
REMARK  status: ('A' for Active; 'I' for Inactive)
REMARK    1  A    between atoms: C1_1  and  C2_2 
REMARK    2  A    between atoms: C2_2  and  C3_3 
REMARK    3  A    between atoms: C3_3  and  C4_5 
REMARK    4  A    between atoms: C3_3  and  O1_12 
REMARK    5  A    between atoms: C4_5  and  C5_6 
REMARK    6  A    between atoms: C5_6  and  C6_7 
REMARK    7  A    between atoms: C6_7  and  C7_8 
REMARK    8  A    between atoms: C6_7  and  C9_10 
REMARK    9  A    between atoms: C7_8  and  C8_9 
REMARK   10  A    between atoms: C9_10  and  C10_11 
ROOT
ATOM      1  C5  <0> d           1.486  -2.474  -2.019  0.00  0.00    -0.059 C 
ATOM      2  H9  <0> d           0.994  -2.050  -2.894  0.00  0.00     0.033 H 
ATOM      3  H10 <0> d           2.441  -1.973  -1.861  0.00  0.00     0.033 H 
ENDROOT
BRANCH   1   4
ATOM      4  C4  <0> d           0.597  -2.277  -0.789  0.00  0.00    -0.041 C 
ATOM      5  H7  <0> d           1.089  -2.701   0.086  0.00  0.00     0.036 H 
ATOM      6  H8  <0> d          -0.358  -2.777  -0.947  0.00  0.00     0.036 H 
BRANCH   4   7
ATOM      7  C3  <0> d           0.359  -0.782  -0.566  0.00  0.00     0.035 C 
ATOM      8  H1  <0> d           1.317  -0.268  -0.497  0.00  0.00     0.082 H 
BRANCH   7   9
ATOM      9  C2  <0> d          -0.424  -0.579   0.732  0.00  0.00    -0.044 C 
ATOM     10  H5  <0> d           0.103  -1.062   1.554  0.00  0.00     0.036 H 
ATOM     11  H6  <0> d          -1.417  -1.017   0.630  0.00  0.00     0.036 H 
BRANCH   9  12
ATOM     12  C1  <0> d          -0.555   0.918   1.020  0.00  0.00    -0.074 C 
ATOM     13  H2  <0> d           0.438   1.357   1.122  0.00  0.00     0.027 H 
ATOM     14  H3  <0> d          -1.083   1.402   0.198  0.00  0.00     0.027 H 
ATOM     15  H4  <0> d          -1.113   1.063   1.945  0.00  0.00     0.027 H 
ENDBRANCH   9  12
ENDBRANCH   7   9
BRANCH   7  16
ATOM     16  O1  <0> d          -0.389  -0.250  -1.662  0.00  0.00    -0.396 OA
ATOM     17  H22 <0> d          -1.255  -0.662  -1.784  0.00  0.00     0.210 HD
ENDBRANCH   7  16
ENDBRANCH   4   7
ENDBRANCH   1   4
BRANCH   1  18
ATOM     18  C6  <0> d           1.724  -3.968  -2.242  0.00  0.00    -0.055 C 
ATOM     19  H11 <0> d           2.135  -4.410  -1.334  0.00  0.00     0.040 H 
BRANCH  18  20
ATOM     20  C7  <0> d           0.399  -4.650  -2.587  0.00  0.00    -0.065 C 
ATOM     21  H12 <0> d          -0.336  -4.427  -1.814  0.00  0.00     0.033 H 
ATOM     22  H13 <0> d           0.040  -4.281  -3.548  0.00  0.00     0.033 H 
BRANCH  20  23
ATOM     23  C8  <0> d           0.610  -6.163  -2.669  0.00  0.00    -0.076 C 
ATOM     24  H14 <0> d           1.362  -6.385  -3.426  0.00  0.00     0.027 H 
ATOM     25  H15 <0> d           0.947  -6.536  -1.701  0.00  0.00     0.027 H 
ATOM     26  H16 <0> d          -0.329  -6.647  -2.937  0.00  0.00     0.027 H 
ENDBRANCH  20  23
ENDBRANCH  18  20
BRANCH  18  27
ATOM     27  C9  <0> d           2.712  -4.161  -3.394  0.00  0.00    -0.065 C 
ATOM     28  H17 <0> d           2.815  -5.224  -3.611  0.00  0.00     0.033 H 
ATOM     29  H18 <0> d           2.343  -3.644  -4.280  0.00  0.00     0.033 H 
BRANCH  27  30
ATOM     30  C10 <0> d           4.074  -3.587  -3.000  0.00  0.00    -0.076 C 
ATOM     31  H19 <0> d           3.998  -2.504  -2.903  0.00  0.00     0.027 H 
ATOM     32  H20 <0> d           4.388  -4.016  -2.048  0.00  0.00     0.027 H 
ATOM     33  H21 <0> d           4.808  -3.832  -3.768  0.00  0.00     0.027 H 
ENDBRANCH  27  30
ENDBRANCH  18  27
ENDBRANCH   1  18
TORSDOF 10
