REMARK  4 active torsions:
REMARK  status: ('A' for Active; 'I' for Inactive)
REMARK    1  A    between atoms: C2_2  and  C6_11 
REMARK    2  A    between atoms: C3_5  and  C5_9 
REMARK    3  A    between atoms: C5_9  and  O3_10 
REMARK    4  A    between atoms: C6_11  and  O4_12 
ROOT
ATOM      1  C1  <0> d          -0.017   1.427   0.010  0.00  0.00     0.045 C 
ATOM      2  C2  <0> d           1.422   1.949  -0.001  0.00  0.00     0.080 C 
ATOM      3  H1  <0> d           1.924   1.653   0.921  0.00  0.00     0.089 H 
ATOM      4  O1  <0> d           2.115   1.391  -1.122  0.00  0.00    -0.372 OA
ATOM      5  C3  <0> d           2.135  -0.039  -1.130  0.00  0.00     0.080 C 
ATOM      6  H2  <0> d           2.660  -0.401  -0.246  0.00  0.00     0.089 H 
ATOM      7  C4  <0> d           0.695  -0.561  -1.119  0.00  0.00     0.045 C 
ATOM      8  O2  <0> d           0.002  -0.004   0.002  0.00  0.00    -0.386 OA
ATOM      9  H3  <0> d          -0.526   1.779   0.907  0.00  0.00     0.078 H 
ATOM     10  H4  <0> d          -0.543   1.789  -0.874  0.00  0.00     0.078 H 
ATOM     11  H5  <0> d           0.193  -0.266  -2.041  0.00  0.00     0.078 H 
ATOM     12  H6  <0> d           0.702  -1.648  -1.039  0.00  0.00     0.078 H 
ENDROOT
BRANCH   2  13
ATOM     13  C6  <0> d           1.412   3.474  -0.111  0.00  0.00     0.043 C 
ATOM     14  H10 <0> d           0.993   3.766  -1.074  0.00  0.00     0.078 H 
ATOM     15  H11 <0> d           0.805   3.893   0.691  0.00  0.00     0.078 H 
BRANCH  13  16
ATOM     16  O4  <0> d           2.749   3.969  -0.004  0.00  0.00    -0.398 OA
ATOM     17  H12 <0> d           2.818   4.931  -0.066  0.00  0.00     0.209 HD
ENDBRANCH  13  16
ENDBRANCH   2  13
BRANCH   5  18
ATOM     18  C5  <0> d           2.850  -0.534  -2.389  0.00  0.00     0.043 C 
ATOM     19  H7  <0> d           2.787  -1.621  -2.439  0.00  0.00     0.078 H 
ATOM     20  H8  <0> d           2.376  -0.101  -3.270  0.00  0.00     0.078 H 
BRANCH  18  21
ATOM     21  O3  <0> d           4.222  -0.138  -2.344  0.00  0.00    -0.398 OA
ATOM     22  H9  <0> d           4.738  -0.419  -3.112  0.00  0.00     0.209 HD
ENDBRANCH  18  21
ENDBRANCH   5  18
TORSDOF 4
