REMARK  1 active torsions:
REMARK  status: ('A' for Active; 'I' for Inactive)
REMARK    1  A    between atoms: C4_4  and  C7_8 
ROOT
ATOM      1  C1  <0> d           0.110   3.297  -1.637  0.00  0.00    -0.063 C 
ATOM      2  C2  <0> d           1.563   2.889  -1.287  0.00  0.00    -0.063 C 
ATOM      3  C3  <0> d           1.420   2.050  -0.001  0.00  0.00    -0.036 C 
ATOM      4  C4  <0> d          -0.018   1.503   0.010  0.00  0.00     0.137 C 
ATOM      5  C5  <0> d          -0.700   2.029  -1.270  0.00  0.00    -0.036 C 
ATOM      6  C6  <0> d          -0.734   1.990   1.200  0.00  0.00     0.080 C 
ATOM      7  N1  <0> d          -1.287   2.367   2.119  0.00  0.00    -0.196 NA
ATOM      8  H1  <0> d          -0.208   4.147  -1.033  0.00  0.00     0.033 H 
ATOM      9  H2  <0> d           0.018   3.524  -2.699  0.00  0.00     0.033 H 
ATOM     10  H3  <0> d           2.173   3.772  -1.100  0.00  0.00     0.033 H 
ATOM     11  H4  <0> d           1.994   2.289  -2.088  0.00  0.00     0.033 H 
ATOM     12  H5  <0> d           1.588   2.677   0.875  0.00  0.00     0.036 H 
ATOM     13  H6  <0> d           2.133   1.225  -0.012  0.00  0.00     0.036 H 
ATOM     14  H7  <0> d          -0.634   1.290  -2.068  0.00  0.00     0.036 H 
ATOM     15  H8  <0> d          -1.740   2.285  -1.071  0.00  0.00     0.036 H 
ENDROOT
BRANCH   4  16
ATOM     16  C7  <0> d           0.002  -0.004   0.002  0.00  0.00     0.196 C 
ATOM     17  O1  <0> d           1.056  -0.594  -0.011  0.00  0.00    -0.647 OA
ATOM     18  O2  <0> d          -1.151  -0.691   0.009  0.00  0.00    -0.647 OA
ENDBRANCH   4  16
TORSDOF 1
