REMARK  1 active torsions:
REMARK  status: ('A' for Active; 'I' for Inactive)
REMARK    1  A    between atoms: C5_7  and  O2_9 
ROOT
ATOM      1  C1  <0> d           0.002  -0.004   0.002  0.00  0.00    -0.032 C 
ATOM      2  C2  <0> d           0.576  -0.487   1.336  0.00  0.00     0.011 C 
ATOM      3  C3  <0> d           1.850   0.247   1.640  0.00  0.00     0.217 C 
ATOM      4  O1  <0> d           2.599  -0.222   2.471  0.00  0.00    -0.274 OA
ATOM      5  N1  <0> d           2.202   1.388   1.046  0.00  0.00    -0.359 N 
ATOM      6  C4  <0> d           1.423   2.038  -0.001  0.00  0.00     0.019 C 
ATOM      7  C5  <0> d          -0.019   1.529   0.011  0.00  0.00     0.051 C 
ATOM      8  H1  <0> d          -0.525   1.883   0.909  0.00  0.00     0.085 H 
ATOM      9  H2  <0> d          -1.012  -0.384  -0.120  0.00  0.00     0.037 H 
ATOM     10  H3  <0> d           0.628  -0.358  -0.817  0.00  0.00     0.037 H 
ATOM     11  H4  <0> d          -0.147  -0.302   2.130  0.00  0.00     0.047 H 
ATOM     12  H5  <0> d           0.782  -1.556   1.276  0.00  0.00     0.047 H 
ATOM     13  H6  <0> d           3.028   1.812   1.328  0.00  0.00     0.162 HD
ATOM     14  H7  <0> d           1.873   1.825  -0.970  0.00  0.00     0.068 H 
ATOM     15  H8  <0> d           1.426   3.116   0.165  0.00  0.00     0.068 H 
ENDROOT
BRANCH   7  16
ATOM     16  O2  <0> d          -0.704   2.006  -1.149  0.00  0.00    -0.394 OA
ATOM     17  H9  <0> d          -0.755   2.970  -1.208  0.00  0.00     0.210 HD
ENDBRANCH   7  16
TORSDOF 1
