REMARK  2 active torsions:
REMARK  status: ('A' for Active; 'I' for Inactive)
REMARK    1  A    between atoms: C5_5  and  N2_8 
REMARK    2  A    between atoms: C6_6  and  N1_7 
ROOT
ATOM      1  C1  <0> d          -2.468   3.716   0.035  0.00  0.00    -0.052 A 
ATOM      2  C2  <0> d          -3.655   3.005   0.036  0.00  0.00    -0.040 A 
ATOM      3  C3  <0> d          -3.636   1.622   0.029  0.00  0.00     0.157 A 
ATOM      4  C4  <0> d          -2.428   0.942   0.019  0.00  0.00     0.183 A 
ATOM      5  C5  <0> d          -1.235   1.650   0.017  0.00  0.00     0.094 A 
ATOM      6  C6  <0> d          -1.256   3.044   0.030  0.00  0.00     0.055 A 
ATOM      7  F1  <0> d          -2.412  -0.409   0.011  0.00  0.00    -0.200 F 
ATOM      8  F2  <0> d          -4.798   0.932   0.030  0.00  0.00    -0.203 F 
ATOM      9  H1  <0> d          -2.486   4.796   0.040  0.00  0.00     0.087 H 
ATOM     10  H2  <0> d          -4.598   3.531   0.044  0.00  0.00     0.088 H 
ENDROOT
BRANCH   5  11
ATOM     11  N2  <0> d          -0.011   0.966   0.007  0.00  0.00    -0.395 N 
ATOM     12  H5  <0> d           0.002  -0.004   0.002  0.00  0.00     0.156 HD
ATOM     13  H6  <0> d           0.822   1.462   0.002  0.00  0.00     0.156 HD
ENDBRANCH   5  11
BRANCH   6  14
ATOM     14  N1  <0> d          -0.053   3.764   0.034  0.00  0.00    -0.397 N 
ATOM     15  H3  <0> d           0.794   3.293   0.027  0.00  0.00     0.156 HD
ATOM     16  H4  <0> d          -0.069   4.734   0.043  0.00  0.00     0.156 HD
ENDBRANCH   6  14
TORSDOF 2
