REMARK  5 active torsions:
REMARK  status: ('A' for Active; 'I' for Inactive)
REMARK    1  A    between atoms: C1_1  and  C2_2 
REMARK    2  A    between atoms: C5_5  and  C8_9 
REMARK    3  A    between atoms: C7_7  and  N1_8 
REMARK    4  A    between atoms: C8_9  and  C9_10 
REMARK    5  A    between atoms: C8_9  and  C10_11 
ROOT
ATOM      1  C2  <0> d          -2.013   2.474   3.524  0.00  0.00    -0.036 A 
ATOM      2  C3  <0> d          -1.507   3.379   2.611  0.00  0.00    -0.074 A 
ATOM      3  C4  <0> d          -0.855   2.929   1.478  0.00  0.00    -0.076 A 
ATOM      4  C5  <0> d          -0.718   1.572   1.248  0.00  0.00    -0.053 A 
ATOM      5  C6  <0> d          -1.222   0.662   2.156  0.00  0.00    -0.051 A 
ATOM      6  C7  <0> d          -1.872   1.111   3.299  0.00  0.00     0.032 A 
ATOM      7  H4  <0> d          -1.616   4.439   2.785  0.00  0.00     0.084 H 
ATOM      8  H5  <0> d          -0.456   3.638   0.768  0.00  0.00     0.084 H 
ATOM      9  H6  <0> d          -1.110  -0.398   1.979  0.00  0.00     0.087 H 
ENDROOT
BRANCH   4  10
ATOM     10  C8  <0> d          -0.013   1.086   0.008  0.00  0.00    -0.035 C 
ATOM     11  H9  <0> d           0.002  -0.004   0.002  0.00  0.00     0.046 H 
BRANCH  10  12
ATOM     12  C9  <0> d           1.423   1.615  -0.003  0.00  0.00    -0.069 C 
ATOM     13  H10 <0> d           1.408   2.705   0.003  0.00  0.00     0.028 H 
ATOM     14  H11 <0> d           1.950   1.254   0.880  0.00  0.00     0.028 H 
ATOM     15  H12 <0> d           1.933   1.264  -0.900  0.00  0.00     0.028 H 
ENDBRANCH  10  12
BRANCH  10  16
ATOM     16  C10 <0> d          -0.753   1.593  -1.232  0.00  0.00    -0.069 C 
ATOM     17  H13 <0> d          -0.242   1.241  -2.128  0.00  0.00     0.028 H 
ATOM     18  H14 <0> d          -1.775   1.215  -1.224  0.00  0.00     0.028 H 
ATOM     19  H15 <0> d          -0.767   2.683  -1.226  0.00  0.00     0.028 H 
ENDBRANCH  10  16
ENDBRANCH   4  10
BRANCH   6  20
ATOM     20  N1  <0> d          -2.383   0.193   4.220  0.00  0.00    -0.399 N 
ATOM     21  H7  <0> d          -2.284  -0.759   4.062  0.00  0.00     0.156 HD
ATOM     22  H8  <0> d          -2.837   0.508   5.017  0.00  0.00     0.156 HD
ENDBRANCH   6  20
BRANCH   1  23
ATOM     23  C1  <0> d          -2.718   2.966   4.762  0.00  0.00    -0.049 C 
ATOM     24  H1  <0> d          -1.993   3.094   5.566  0.00  0.00     0.033 H 
ATOM     25  H2  <0> d          -3.199   3.921   4.551  0.00  0.00     0.033 H 
ATOM     26  H3  <0> d          -3.471   2.238   5.064  0.00  0.00     0.033 H 
ENDBRANCH   1  23
TORSDOF 5
