REMARK  5 active torsions:
REMARK  status: ('A' for Active; 'I' for Inactive)
REMARK    1  A    between atoms: C1_1  and  C2_2 
REMARK    2  A    between atoms: C2_2  and  C3_3 
REMARK    3  A    between atoms: C3_3  and  C4_4 
REMARK    4  A    between atoms: C5_5  and  C7_11 
REMARK    5  A    between atoms: C6_9  and  O1_10 
ROOT
ATOM      1  C4  <0> d          -1.413  -2.041   0.005  0.00  0.00     0.020 A 
ATOM      2  C5  <0> d          -1.392  -2.843   1.094  0.00  0.00     0.034 A 
ATOM      3  N1  <0> d          -1.379  -4.122   0.664  0.00  0.00    -0.280 N 
ATOM      4  N2  <0> d          -1.393  -4.109  -0.736  0.00  0.00    -0.149 NA
ATOM      5  H1  <0> d          -1.363  -4.912   1.227  0.00  0.00     0.189 HD
ATOM      6  C6  <0> d          -1.419  -2.860  -1.134  0.00  0.00     0.189 A 
ENDROOT
BRANCH   1   7
ATOM      7  C3  <0> d          -1.433  -0.534   0.013  0.00  0.00    -0.035 C 
ATOM      8  H7  <0> d          -1.944  -0.182   0.910  0.00  0.00     0.040 H 
ATOM      9  H8  <0> d          -1.960  -0.173  -0.870  0.00  0.00     0.040 H 
BRANCH   7  10
ATOM     10  C2  <0> d           0.002  -0.004   0.002  0.00  0.00    -0.065 C 
ATOM     11  H5  <0> d           0.512  -0.356  -0.895  0.00  0.00     0.032 H 
ATOM     12  H6  <0> d           0.529  -0.365   0.885  0.00  0.00     0.032 H 
BRANCH  10  13
ATOM     13  C1  <0> d          -0.019   1.526   0.010  0.00  0.00    -0.076 C 
ATOM     14  H2  <0> d           1.004   1.903   0.003  0.00  0.00     0.027 H 
ATOM     15  H3  <0> d          -0.546   1.887  -0.873  0.00  0.00     0.027 H 
ATOM     16  H4  <0> d          -0.529   1.877   0.907  0.00  0.00     0.027 H 
ENDBRANCH  10  13
ENDBRANCH   7  10
ENDBRANCH   1   7
BRANCH   2  17
ATOM     17  C7  <0> d          -1.383  -2.388   2.531  0.00  0.00    -0.035 C 
ATOM     18  H10 <0> d          -2.408  -2.292   2.887  0.00  0.00     0.035 H 
ATOM     19  H11 <0> d          -0.854  -3.121   3.140  0.00  0.00     0.035 H 
ATOM     20  H12 <0> d          -0.881  -1.424   2.604  0.00  0.00     0.035 H 
ENDBRANCH   2  17
BRANCH   6  21
ATOM     21  O1  <0> d          -1.444  -2.434  -2.425  0.00  0.00    -0.343 OA
ATOM     22  H9  <0> d          -0.568  -2.298  -2.812  0.00  0.00     0.219 HD
ENDBRANCH   6  21
TORSDOF 5
