REMARK  0 active torsions:
REMARK  status: ('A' for Active; 'I' for Inactive)
ROOT
ATOM      1  C1  <0> d          -0.016   1.332   0.009  0.00  0.00     0.033 A 
ATOM      2  C2  <0> d           1.284   1.756  -0.001  0.00  0.00     0.099 A 
ATOM      3  N1  <0> d           2.072   0.610  -0.021  0.00  0.00    -0.337 N 
ATOM      4  C3  <0> d           1.243  -0.435  -0.014  0.00  0.00     0.066 A 
ATOM      5  N2  <0> d           0.002  -0.004   0.002  0.00  0.00    -0.254 NA
ATOM      6  C4  <0> d           3.535   0.655  -0.051  0.00  0.00     0.001 C 
ATOM      7  C5  <0> d           3.964   1.973  -0.708  0.00  0.00    -0.043 C 
ATOM      8  C6  <0> d           3.349   3.164   0.027  0.00  0.00    -0.002 C 
ATOM      9  C7  <0> d           1.839   3.056   0.004  0.00  0.00     0.177 C 
ATOM     10  O1  <0> d           1.134   4.045  -0.009  0.00  0.00    -0.291 OA
ATOM     11  H1  <0> d          -0.894   1.961   0.025  0.00  0.00     0.118 H 
ATOM     12  H2  <0> d           1.545  -1.472  -0.022  0.00  0.00     0.143 H 
ATOM     13  H3  <0> d           3.925   0.609   0.967  0.00  0.00     0.065 H 
ATOM     14  H4  <0> d           3.918  -0.185  -0.629  0.00  0.00     0.065 H 
ATOM     15  H5  <0> d           5.051   2.053  -0.677  0.00  0.00     0.035 H 
ATOM     16  H6  <0> d           3.633   1.981  -1.746  0.00  0.00     0.035 H 
ATOM     17  H7  <0> d           3.697   3.172   1.060  0.00  0.00     0.045 H 
ATOM     18  H8  <0> d           3.654   4.089  -0.464  0.00  0.00     0.045 H 
ENDROOT
TORSDOF 0
