REMARK  1 active torsions:
REMARK  status: ('A' for Active; 'I' for Inactive)
REMARK    1  A    between atoms: C1_1  and  C2_2 
ROOT
ATOM      1  C2  <0> d           2.281   1.398  -0.012  0.00  0.00     0.123 A 
ATOM      2  N1  <0> d           1.131   2.042   0.002  0.00  0.00    -0.243 NA
ATOM      3  C3  <0> d          -0.017   1.383   0.010  0.00  0.00     0.044 A 
ATOM      4  C4  <0> d           0.002  -0.004   0.002  0.00  0.00     0.174 A 
ATOM      5  C5  <0> d           1.234  -0.647  -0.013  0.00  0.00     0.168 A 
ATOM      6  N2  <0> d           2.340   0.082  -0.020  0.00  0.00    -0.219 NA
ATOM      7 Cl1  <0> d           1.323  -2.381  -0.024  0.00  0.00    -0.059 Cl
ATOM      8  F1  <0> d          -1.149  -0.712   0.009  0.00  0.00    -0.201 F 
ATOM      9  H4  <0> d          -0.955   1.918   0.017  0.00  0.00     0.119 H 
ENDROOT
BRANCH   1  10
ATOM     10  C1  <0> d           3.563   2.189  -0.021  0.00  0.00    -0.019 C 
ATOM     11  H1  <0> d           3.331   3.264  -0.013  0.00  0.00     0.037 H 
ATOM     12  H2  <0> d           4.139   1.945  -0.926  0.00  0.00     0.037 H 
ATOM     13  H3  <0> d           4.157   1.936   0.870  0.00  0.00     0.037 H 
ENDBRANCH   1  10
TORSDOF 1
