REMARK  0 active torsions:
REMARK  status: ('A' for Active; 'I' for Inactive)
ROOT
ATOM      1  C1  <0> d          -0.017   1.374   0.010  0.00  0.00    -0.081 A 
ATOM      2  C2  <0> d           1.168   2.090   0.002  0.00  0.00    -0.075 A 
ATOM      3  C3  <0> d           2.388   1.436  -0.012  0.00  0.00    -0.030 A 
ATOM      4  C4  <0> d           2.424   0.051  -0.016  0.00  0.00     0.055 A 
ATOM      5  C5  <0> d           1.224  -0.680  -0.012  0.00  0.00     0.071 A 
ATOM      6  C6  <0> d           0.002  -0.004   0.002  0.00  0.00    -0.061 A 
ATOM      7  C7  <0> d           1.254  -2.112  -0.022  0.00  0.00     0.102 C 
ATOM      8  N1  <0> d           1.278  -3.248  -0.030  0.00  0.00    -0.191 NA
ATOM      9  N2  <0> d           3.636  -0.635  -0.020  0.00  0.00    -0.388 N 
ATOM     10  C8  <0> d           4.870   0.102  -0.324  0.00  0.00    -0.007 C 
ATOM     11  C9  <0> d           4.835   1.419   0.463  0.00  0.00    -0.047 C 
ATOM     12  C10 <0> d           3.652   2.255  -0.025  0.00  0.00    -0.037 C 
ATOM     13  H1  <0> d          -0.961   1.898   0.026  0.00  0.00     0.083 H 
ATOM     14  H2  <0> d           1.140   3.169   0.007  0.00  0.00     0.084 H 
ATOM     15  H3  <0> d          -0.924  -0.559   0.007  0.00  0.00     0.086 H 
ATOM     16  H4  <0> d           3.665  -1.584   0.176  0.00  0.00     0.159 HD
ATOM     17  H5  <0> d           5.736  -0.486  -0.022  0.00  0.00     0.064 H 
ATOM     18  H6  <0> d           4.920   0.312  -1.393  0.00  0.00     0.064 H 
ATOM     19  H7  <0> d           4.719   1.206   1.526  0.00  0.00     0.035 H 
ATOM     20  H8  <0> d           5.763   1.968   0.298  0.00  0.00     0.035 H 
ATOM     21  H9  <0> d           3.848   2.599  -1.040  0.00  0.00     0.040 H 
ATOM     22  H10 <0> d           3.529   3.119   0.628  0.00  0.00     0.040 H 
ENDROOT
TORSDOF 0
