REMARK  1 active torsions:
REMARK  status: ('A' for Active; 'I' for Inactive)
REMARK    1  A    between atoms: C1_1  and  N3_7 
ROOT
ATOM      1  C1  <0> d          -0.016   1.300   0.009  0.00  0.00     0.209 A 
ATOM      2  C2  <0> d           1.370   1.780  -0.002  0.00  0.00     0.275 A 
ATOM      3  O1  <0> d           1.760   3.080   0.002  0.00  0.00    -0.164 OA
ATOM      4  N1  <0> d           2.162   0.746  -0.015  0.00  0.00    -0.072 NA
ATOM      5  O2  <0> d           1.357  -0.419  -0.013  0.00  0.00    -0.102 OA
ATOM      6  N2  <0> d           0.002  -0.004   0.002  0.00  0.00    -0.083 NA
ENDROOT
BRANCH   1   7
ATOM      7  N3  <0> d          -1.154   2.099   0.029  0.00  0.00    -0.378 N 
ATOM      8  H1  <0> d          -2.033   1.690   0.039  0.00  0.00     0.158 HD
ATOM      9  H2  <0> d          -1.068   3.065   0.034  0.00  0.00     0.158 HD
ENDBRANCH   1   7
TORSDOF 1
