REMARK  9 active torsions:
REMARK  status: ('A' for Active; 'I' for Inactive)
REMARK    1  A    between atoms: C1_1  and  C2_2 
REMARK    2  A    between atoms: C2_2  and  C3_3 
REMARK    3  A    between atoms: C3_3  and  C4_4 
REMARK    4  A    between atoms: C4_4  and  C5_5 
REMARK    5  A    between atoms: C5_5  and  C6_7 
REMARK    6  A    between atoms: C5_5  and  O2_12 
REMARK    7  A    between atoms: C6_7  and  C7_8 
REMARK    8  A    between atoms: C7_8  and  C8_10 
REMARK    9  A    between atoms: C7_8  and  O1_11 
ROOT
ATOM      1  C5  <0> d           0.739  -2.027  -1.265  0.00  0.00     0.038 C 
ATOM      2  H1  <0> d          -0.279  -2.405  -1.168  0.00  0.00     0.083 H 
ENDROOT
BRANCH   1   3
ATOM      3  C4  <0> d           0.718  -0.497  -1.257  0.00  0.00    -0.041 C 
ATOM      4  H10 <0> d           0.191  -0.136  -2.140  0.00  0.00     0.036 H 
ATOM      5  H11 <0> d           1.741  -0.120  -1.264  0.00  0.00     0.036 H 
BRANCH   3   6
ATOM      6  C3  <0> d           0.002  -0.004   0.002  0.00  0.00    -0.063 C 
ATOM      7  H8  <0> d           0.529  -0.365   0.885  0.00  0.00     0.033 H 
ATOM      8  H9  <0> d          -1.020  -0.381   0.010  0.00  0.00     0.033 H 
BRANCH   6   9
ATOM      9  C2  <0> d          -0.019   1.526   0.010  0.00  0.00    -0.068 C 
ATOM     10  H6  <0> d           1.004   1.903   0.003  0.00  0.00     0.032 H 
ATOM     11  H7  <0> d          -0.546   1.887  -0.873  0.00  0.00     0.032 H 
BRANCH   9  12
ATOM     12  C1  <0> d          -0.735   2.019   1.269  0.00  0.00    -0.077 C 
ATOM     13  H3  <0> d          -0.750   3.109   1.275  0.00  0.00     0.027 H 
ATOM     14  H4  <0> d          -1.757   1.642   1.277  0.00  0.00     0.027 H 
ATOM     15  H5  <0> d          -0.208   1.658   2.152  0.00  0.00     0.027 H 
ENDBRANCH   9  12
ENDBRANCH   6   9
ENDBRANCH   3   6
ENDBRANCH   1   3
BRANCH   1  16
ATOM     16  C6  <0> d           1.343  -2.522  -2.581  0.00  0.00    -0.018 C 
ATOM     17  H12 <0> d           0.794  -2.090  -3.418  0.00  0.00     0.040 H 
ATOM     18  H13 <0> d           2.389  -2.219  -2.638  0.00  0.00     0.040 H 
BRANCH  16  19
ATOM     19  C7  <0> d           1.250  -4.048  -2.643  0.00  0.00     0.034 C 
ATOM     20  H2  <0> d           1.722  -4.477  -1.760  0.00  0.00     0.082 H 
BRANCH  19  21
ATOM     21  C8  <0> d           1.964  -4.552  -3.899  0.00  0.00    -0.052 C 
ATOM     22  H14 <0> d           3.012  -4.253  -3.866  0.00  0.00     0.030 H 
ATOM     23  H15 <0> d           1.898  -5.639  -3.943  0.00  0.00     0.030 H 
ATOM     24  H16 <0> d           1.492  -4.123  -4.782  0.00  0.00     0.030 H 
ENDBRANCH  19  21
BRANCH  19  25
ATOM     25  O1  <0> d          -0.123  -4.440  -2.687  0.00  0.00    -0.396 OA
ATOM     26  H17 <0> d          -0.608  -4.093  -3.449  0.00  0.00     0.210 HD
ENDBRANCH  19  25
ENDBRANCH  16  19
ENDBRANCH   1  16
BRANCH   1  27
ATOM     27  O2  <0> d           1.529  -2.499  -0.172  0.00  0.00    -0.395 OA
ATOM     28  H18 <0> d           2.448  -2.201  -0.193  0.00  0.00     0.210 HD
ENDBRANCH   1  27
TORSDOF 9
