REMARK  6 active torsions:
REMARK  status: ('A' for Active; 'I' for Inactive)
REMARK    1  A    between atoms: C2_2  and  C3_3 
REMARK    2  A    between atoms: C3_3  and  O1_4 
REMARK    3  A    between atoms: O1_4  and  C4_5 
REMARK    4  A    between atoms: C4_5  and  C5_7 
REMARK    5  A    between atoms: C5_7  and  C6_9 
REMARK    6  A    between atoms: C5_7  and  O3_11 
ROOT
ATOM      1  C4  <0> d          -0.014   1.204   0.009  0.00  0.00     0.291 C 
ATOM      2  O2  <0> d           0.002  -0.004   0.002  0.00  0.00    -0.262 OA
ENDROOT
BRANCH   1   3
ATOM      3  O1  <0> d           1.139   1.891   0.001  0.00  0.00    -0.316 OA
BRANCH   3   4
ATOM      4  C3  <0> d           2.367   1.117  -0.015  0.00  0.00     0.043 C 
ATOM      5  H5  <0> d           2.409   0.484   0.872  0.00  0.00     0.081 H 
ATOM      6  H6  <0> d           2.392   0.493  -0.908  0.00  0.00     0.081 H 
BRANCH   4   7
ATOM      7  C2  <0> d           3.550   2.051  -0.021  0.00  0.00    -0.089 C 
ATOM      8  C1  <0> d           4.569   1.823   0.770  0.00  0.00    -0.123 C 
ATOM      9  H2  <0> d           4.561   0.966   1.427  0.00  0.00     0.066 H 
ATOM     10  H3  <0> d           5.416   2.493   0.766  0.00  0.00     0.066 H 
ATOM     11  H4  <0> d           3.557   2.908  -0.678  0.00  0.00     0.078 H 
ENDBRANCH   4   7
ENDBRANCH   3   4
ENDBRANCH   1   3
BRANCH   1  12
ATOM     12  C5  <0> d          -1.329   1.940   0.019  0.00  0.00     0.135 C 
ATOM     13  H1  <0> d          -1.363   2.636  -0.819  0.00  0.00     0.105 H 
BRANCH  12  14
ATOM     14  C6  <0> d          -1.469   2.702   1.311  0.00  0.00    -0.075 C 
ATOM     15  C7  <0> d          -1.603   4.005   1.292  0.00  0.00    -0.122 C 
ATOM     16  H8  <0> d          -1.703   4.551   2.219  0.00  0.00     0.066 H 
ATOM     17  H9  <0> d          -1.614   4.533   0.350  0.00  0.00     0.066 H 
ATOM     18  H7  <0> d          -1.458   2.174   2.253  0.00  0.00     0.080 H 
ENDBRANCH  12  14
BRANCH  12  19
ATOM     19  O3  <0> d          -2.401   1.002  -0.099  0.00  0.00    -0.382 OA
ATOM     20  H10 <0> d          -2.433   0.350   0.615  0.00  0.00     0.211 HD
ENDBRANCH  12  19
ENDBRANCH   1  12
TORSDOF 6
