REMARK  3 active torsions:
REMARK  status: ('A' for Active; 'I' for Inactive)
REMARK    1  A    between atoms: C1_1  and  C2_2 
REMARK    2  A    between atoms: C4_5  and  C9_12 
REMARK    3  A    between atoms: C6_7  and  C8_11 
ROOT
ATOM      1  C2  <0> d           1.287   1.833  -0.000  0.00  0.00     0.037 C 
ATOM      2  H1  <0> d           2.119   1.129   0.030  0.00  0.00     0.060 H 
ATOM      3  C3  <0> d          -0.013   1.076   0.008  0.00  0.00    -0.085 C 
ATOM      4  C4  <0> d          -1.172   1.710   0.017  0.00  0.00    -0.063 C 
ATOM      5  C5  <0> d          -1.276   3.161   0.041  0.00  0.00    -0.056 C 
ATOM      6  C6  <0> d          -0.517   3.988  -0.650  0.00  0.00     0.008 C 
ATOM      7  N1  <0> d           0.490   3.632  -1.507  0.00  0.00    -0.331 N 
ATOM      8  C7  <0> d           1.375   2.660  -1.255  0.00  0.00     0.229 C 
ATOM      9  O1  <0> d           2.263   2.441  -2.051  0.00  0.00    -0.272 OA
ATOM     10  H5  <0> d           0.002  -0.004   0.002  0.00  0.00     0.079 H 
ATOM     11  H6  <0> d          -2.037   3.596   0.673  0.00  0.00     0.087 H 
ATOM     12  H7  <0> d           0.566   4.112  -2.347  0.00  0.00     0.168 HD
ENDROOT
BRANCH   1  13
ATOM     13  C1  <0> d           1.351   2.751   1.222  0.00  0.00    -0.061 C 
ATOM     14  H2  <0> d           1.286   2.152   2.130  0.00  0.00     0.029 H 
ATOM     15  H3  <0> d           2.293   3.300   1.216  0.00  0.00     0.029 H 
ATOM     16  H4  <0> d           0.520   3.456   1.191  0.00  0.00     0.029 H 
ENDBRANCH   1  13
BRANCH   4  17
ATOM     17  C9  <0> d          -2.440   0.896   0.006  0.00  0.00    -0.051 C 
ATOM     18  H11 <0> d          -2.746   0.685   1.031  0.00  0.00     0.033 H 
ATOM     19  H12 <0> d          -3.227   1.455  -0.500  0.00  0.00     0.033 H 
ATOM     20  H13 <0> d          -2.265  -0.043  -0.520  0.00  0.00     0.033 H 
ENDBRANCH   4  17
BRANCH   6  21
ATOM     21  C8  <0> d          -0.782   5.462  -0.481  0.00  0.00    -0.037 C 
ATOM     22  H8  <0> d          -0.090   6.029  -1.103  0.00  0.00     0.035 H 
ATOM     23  H9  <0> d          -1.806   5.684  -0.781  0.00  0.00     0.035 H 
ATOM     24  H10 <0> d          -0.641   5.739   0.564  0.00  0.00     0.035 H 
ENDBRANCH   6  21
TORSDOF 3
