REMARK  3 active torsions:
REMARK  status: ('A' for Active; 'I' for Inactive)
REMARK    1  A    between atoms: C1_1  and  C2_2 
REMARK    2  A    between atoms: N2_6  and  C5_7 
REMARK    3  A    between atoms: C5_7  and  C6_8 
ROOT
ATOM      1  C2  <0> d           0.002  -0.004   0.002  0.00  0.00     0.102 A 
ATOM      2  N1  <0> d          -0.003  -0.759  -1.062  0.00  0.00    -0.246 NA
ATOM      3  C3  <0> d           0.022  -2.047  -0.691  0.00  0.00     0.019 A 
ATOM      4  C4  <0> d           0.036  -2.093   0.655  0.00  0.00    -0.002 A 
ATOM      5  N2  <0> d           0.023  -0.797   1.095  0.00  0.00    -0.341 N 
ATOM      6  H4  <0> d           0.026  -2.899  -1.355  0.00  0.00     0.117 H 
ATOM      7  H5  <0> d           0.053  -2.981   1.269  0.00  0.00     0.113 H 
ENDROOT
BRANCH   5   8
ATOM      8  C5  <0> d           0.031  -0.353   2.491  0.00  0.00     0.015 C 
ATOM      9  H6  <0> d           0.481  -1.125   3.115  0.00  0.00     0.070 H 
ATOM     10  H7  <0> d           0.609   0.567   2.576  0.00  0.00     0.070 H 
BRANCH   8  11
ATOM     11  C6  <0> d          -1.384  -0.102   2.946  0.00  0.00    -0.095 C 
ATOM     12  C7  <0> d          -1.846  -0.705   4.013  0.00  0.00    -0.123 C 
ATOM     13  H9  <0> d          -2.859  -0.525   4.339  0.00  0.00     0.066 H 
ATOM     14  H10 <0> d          -1.213  -1.382   4.567  0.00  0.00     0.066 H 
ATOM     15  H8  <0> d          -2.017   0.576   2.392  0.00  0.00     0.078 H 
ENDBRANCH   8  11
ENDBRANCH   5   8
BRANCH   1  16
ATOM     16  C1  <0> d          -0.018   1.503   0.010  0.00  0.00    -0.021 C 
ATOM     17  H1  <0> d           1.004   1.880   0.003  0.00  0.00     0.037 H 
ATOM     18  H2  <0> d          -0.545   1.864  -0.873  0.00  0.00     0.037 H 
ATOM     19  H3  <0> d          -0.529   1.854   0.907  0.00  0.00     0.037 H 
ENDBRANCH   1  16
TORSDOF 3
