REMARK  1 active torsions:
REMARK  status: ('A' for Active; 'I' for Inactive)
REMARK    1  A    between atoms: C2_2  and  C3_6 
REMARK       I    between atoms: C3_6  and  N3_8 
ROOT
ATOM      1  C1  <0> d          -0.021   1.728   0.011  0.00  0.00     0.010 A 
ATOM      2  C2  <0> d           1.337   2.011   0.000  0.00  0.00     0.154 A 
ATOM      3  N1  <0> d           2.098   0.924  -0.013  0.00  0.00    -0.137 NA
ATOM      4  N2  <0> d           1.562  -0.242  -0.014  0.00  0.00    -0.110 NA
ATOM      5  S1  <0> d           0.002  -0.004   0.002  0.00  0.00     0.025 SA
ATOM      6  H1  <0> d          -0.864   2.403   0.019  0.00  0.00     0.101 H 
ENDROOT
BRANCH   2   7
ATOM      7  C3  <0> d           1.879   3.382   0.001  0.00  0.00     0.270 C 
ATOM      8  O1  <0> d           1.124   4.335   0.013  0.00  0.00    -0.266 OA
ATOM      9  N3  <0> d           3.213   3.579  -0.010  0.00  0.00    -0.365 N 
ATOM     10  H2  <0> d           3.815   2.819  -0.019  0.00  0.00     0.159 HD
ATOM     11  H3  <0> d           3.570   4.481  -0.010  0.00  0.00     0.159 HD
ENDBRANCH   2   7
TORSDOF 1
