REMARK  2 active torsions:
REMARK  status: ('A' for Active; 'I' for Inactive)
REMARK    1  A    between atoms: C1_1  and  C2_2 
REMARK    2  A    between atoms: C5_6  and  C7_10 
ROOT
ATOM      1  C2  <0> d           0.002  -0.004   0.002  0.00  0.00     0.033 A 
ATOM      2  C3  <0> d          -1.184  -0.649   0.004  0.00  0.00    -0.014 A 
ATOM      3  C4  <0> d          -1.225  -2.063  -0.003  0.00  0.00     0.170 A 
ATOM      4  O1  <0> d          -2.276  -2.672  -0.001  0.00  0.00    -0.292 OA
ATOM      5  C5  <0> d           0.114  -2.779  -0.013  0.00  0.00     0.123 A 
ATOM      6  H1  <0> d           0.161  -3.424   0.864  0.00  0.00     0.077 H 
ATOM      7  C6  <0> d           1.346  -1.897  -0.015  0.00  0.00     0.004 A 
ATOM      8  N1  <0> d           1.193  -0.611  -0.013  0.00  0.00    -0.269 NA
ATOM      9  H5  <0> d          -2.105  -0.084   0.012  0.00  0.00     0.092 H 
ATOM     10  H6  <0> d           2.334  -2.332  -0.022  0.00  0.00     0.110 H 
ENDROOT
BRANCH   1  11
ATOM     11  C1  <0> d          -0.018   1.503   0.010  0.00  0.00    -0.035 C 
ATOM     12  H2  <0> d           1.004   1.880   0.003  0.00  0.00     0.035 H 
ATOM     13  H3  <0> d          -0.545   1.864  -0.873  0.00  0.00     0.035 H 
ATOM     14  H4  <0> d          -0.529   1.854   0.907  0.00  0.00     0.035 H 
ENDBRANCH   1  11
BRANCH   5  15
ATOM     15  C7  <0> d           0.168  -3.654  -1.238  0.00  0.00     0.190 C 
ATOM     16  O2  <0> d           1.238  -3.890  -1.773  0.00  0.00    -0.647 OA
ATOM     17  O3  <0> d          -0.859  -4.127  -1.695  0.00  0.00    -0.647 OA
ENDBRANCH   5  15
TORSDOF 2
