REMARK  2 active torsions:
REMARK  status: ('A' for Active; 'I' for Inactive)
REMARK    1  A    between atoms: C5_5  and  C8_8 
REMARK    2  A    between atoms: C8_8  and  C9_9 
ROOT
ATOM      1  C1  <0> d           0.282   6.490  -1.525  0.00  0.00    -0.065 C 
ATOM      2  C2  <0> d           1.781   6.393  -1.180  0.00  0.00    -0.065 C 
ATOM      3  C3  <0> d           2.019   5.865   0.209  0.00  0.00    -0.065 C 
ATOM      4  C4  <0> d           2.232   4.340   0.124  0.00  0.00    -0.061 C 
ATOM      5  C5  <0> d           0.979   3.610   0.012  0.00  0.00    -0.045 C 
ATOM      6  C6  <0> d           0.199   3.972  -1.268  0.00  0.00    -0.061 C 
ATOM      7  C7  <0> d          -0.524   5.272  -1.036  0.00  0.00    -0.065 C 
ATOM      8  H1  <0> d          -0.127   7.390  -1.064  0.00  0.00     0.033 H 
ATOM      9  H2  <0> d           0.175   6.572  -2.606  0.00  0.00     0.033 H 
ATOM     10  H3  <0> d           2.227   7.384  -1.262  0.00  0.00     0.033 H 
ATOM     11  H4  <0> d           2.264   5.729  -1.897  0.00  0.00     0.033 H 
ATOM     12  H5  <0> d           1.153   6.079   0.836  0.00  0.00     0.033 H 
ATOM     13  H6  <0> d           2.904   6.336   0.636  0.00  0.00     0.033 H 
ATOM     14  H7  <0> d           2.756   4.006   1.020  0.00  0.00     0.033 H 
ATOM     15  H8  <0> d           2.849   4.118  -0.747  0.00  0.00     0.033 H 
ATOM     16  H9  <0> d           0.358   3.839   0.878  0.00  0.00     0.040 H 
ATOM     17  H10 <0> d           0.894   4.084  -2.101  0.00  0.00     0.033 H 
ATOM     18  H11 <0> d          -0.522   3.187  -1.493  0.00  0.00     0.033 H 
ATOM     19  H12 <0> d          -0.717   5.381   0.031  0.00  0.00     0.033 H 
ATOM     20  H13 <0> d          -1.477   5.244  -1.565  0.00  0.00     0.033 H 
ENDROOT
BRANCH   5  21
ATOM     21  C8  <0> d           1.279   2.109   0.001  0.00  0.00     0.019 C 
ATOM     22  H14 <0> d           1.862   1.849   0.884  0.00  0.00     0.049 H 
ATOM     23  H15 <0> d           1.845   1.859  -0.896  0.00  0.00     0.049 H 
BRANCH  21  24
ATOM     24  C9  <0> d          -0.016   1.338   0.009  0.00  0.00     0.172 C 
ATOM     25  O1  <0> d          -1.071   1.928   0.018  0.00  0.00    -0.648 OA
ATOM     26  O2  <0> d           0.002  -0.004   0.002  0.00  0.00    -0.648 OA
ENDBRANCH  21  24
ENDBRANCH   5  21
TORSDOF 2
