REMARK  2 active torsions:
REMARK  status: ('A' for Active; 'I' for Inactive)
REMARK    1  A    between atoms: C4_4  and  O1_7 
REMARK    2  A    between atoms: O1_7  and  C7_8 
ROOT
ATOM      1  C7  <0> d          -1.350   5.832   0.045  0.00  0.00     0.104 C 
ATOM      2  C8  <0> d          -1.177   7.294   0.050  0.00  0.00     0.085 C 
ATOM      3  N1  <0> d          -1.044   8.422   0.054  0.00  0.00    -0.195 NA
ATOM      4  H6  <0> d          -1.912   5.536  -0.841  0.00  0.00     0.097 H 
ATOM      5  H7  <0> d          -1.895   5.527   0.939  0.00  0.00     0.097 H 
ENDROOT
BRANCH   1   6
ATOM      6  O1  <0> d          -0.069   5.201   0.029  0.00  0.00    -0.338 OA
BRANCH   6   7
ATOM      7  C4  <0> d          -0.050   3.842   0.023  0.00  0.00     0.070 A 
ATOM      8  C3  <0> d          -1.241   3.131   0.031  0.00  0.00    -0.051 A 
ATOM      9  C2  <0> d          -1.220   1.750   0.017  0.00  0.00    -0.080 A 
ATOM     10  H3  <0> d          -2.185   3.657   0.042  0.00  0.00     0.087 H 
ATOM     11  C1  <0> d          -0.013   1.076   0.008  0.00  0.00    -0.083 A 
ATOM     12  H2  <0> d          -2.147   1.196   0.018  0.00  0.00     0.083 H 
ATOM     13  C6  <0> d           1.176   1.782   0.000  0.00  0.00    -0.080 A 
ATOM     14  H1  <0> d           0.002  -0.004   0.002  0.00  0.00     0.083 H 
ATOM     15  C5  <0> d           1.160   3.163   0.007  0.00  0.00    -0.051 A 
ATOM     16  H5  <0> d           2.118   1.254  -0.011  0.00  0.00     0.083 H 
ATOM     17  H4  <0> d           2.089   3.715   0.001  0.00  0.00     0.087 H 
ENDBRANCH   6   7
ENDBRANCH   1   6
TORSDOF 2
