REMARK  4 active torsions:
REMARK  status: ('A' for Active; 'I' for Inactive)
REMARK    1  A    between atoms: C1_1  and  C2_2 
REMARK    2  A    between atoms: C3_3  and  C4_4 
REMARK    3  A    between atoms: C4_4  and  C5_6 
REMARK    4  A    between atoms: C4_4  and  O1_12 
ROOT
ATOM      1  C5  <0> d          -0.137  -2.666  -2.243  0.00  0.00    -0.026 C 
ATOM      2  C6  <0> d          -1.586  -2.176  -2.226  0.00  0.00    -0.059 C 
ATOM      3  C7  <0> d          -2.312  -2.689  -3.471  0.00  0.00    -0.065 C 
ATOM      4  C8  <0> d          -2.292  -4.218  -3.480  0.00  0.00    -0.065 C 
ATOM      5  C9  <0> d          -0.842  -4.709  -3.496  0.00  0.00    -0.065 C 
ATOM      6  C10 <0> d          -0.116  -4.196  -2.251  0.00  0.00    -0.059 C 
ATOM      7  H7  <0> d           0.368  -2.287  -3.144  0.00  0.00     0.044 H 
ATOM      8  H8  <0> d          -2.091  -2.554  -1.325  0.00  0.00     0.033 H 
ATOM      9  H9  <0> d          -1.601  -1.076  -2.220  0.00  0.00     0.033 H 
ATOM     10  H10 <0> d          -3.354  -2.336  -3.460  0.00  0.00     0.033 H 
ATOM     11  H11 <0> d          -1.808  -2.310  -4.372  0.00  0.00     0.033 H 
ATOM     12  H12 <0> d          -2.796  -4.597  -2.579  0.00  0.00     0.033 H 
ATOM     13  H13 <0> d          -2.814  -4.587  -4.375  0.00  0.00     0.033 H 
ATOM     14  H14 <0> d          -0.828  -5.809  -3.502  0.00  0.00     0.033 H 
ATOM     15  H15 <0> d          -0.338  -4.330  -4.397  0.00  0.00     0.033 H 
ATOM     16  H16 <0> d           0.926  -4.548  -2.263  0.00  0.00     0.033 H 
ATOM     17  H17 <0> d          -0.621  -4.574  -1.350  0.00  0.00     0.033 H 
ENDROOT
BRANCH   1  18
ATOM     18  C4  <0> d           0.589  -2.153  -0.998  0.00  0.00     0.055 C 
ATOM     19  H1  <0> d           0.141  -2.548  -0.074  0.00  0.00     0.089 H 
BRANCH  18  20
ATOM     20  C3  <0> d           0.569  -0.646  -0.989  0.00  0.00    -0.080 C 
ATOM     21  C2  <0> d           0.002  -0.004   0.002  0.00  0.00    -0.108 C 
ATOM     22  H5  <0> d          -0.459  -0.565   0.829  0.00  0.00     0.075 H 
ATOM     23  H6  <0> d           1.030  -0.085  -1.816  0.00  0.00     0.080 H 
BRANCH  21  24
ATOM     24  C1  <0> d          -0.018   1.503   0.010  0.00  0.00    -0.060 C 
ATOM     25  H2  <0> d          -0.533   1.857   0.915  0.00  0.00     0.032 H 
ATOM     26  H3  <0> d          -0.550   1.867  -0.881  0.00  0.00     0.032 H 
ATOM     27  H4  <0> d           1.014   1.884   0.002  0.00  0.00     0.032 H 
ENDBRANCH  21  24
ENDBRANCH  18  20
BRANCH  18  28
ATOM     28  O1  <0> d           1.943  -2.611  -1.013  0.00  0.00    -0.391 OA
ATOM     29  H18 <0> d           2.158  -3.689  -1.021  0.00  0.00     0.210 HD
ENDBRANCH  18  28
ENDBRANCH   1  18
TORSDOF 4
