REMARK  1 active torsions:
REMARK  status: ('A' for Active; 'I' for Inactive)
REMARK    1  A    between atoms: C4_7  and  N5_11 
ROOT
ATOM      1  C1  <0> d          -0.016   1.297   0.009  0.00  0.00     0.066 A 
ATOM      2  N1  <0> d           1.259   1.780  -0.000  0.00  0.00    -0.333 N 
ATOM      3  H1  <0> d           1.519   2.715   0.002  0.00  0.00     0.168 HD
ATOM      4  C2  <0> d           2.107   0.702  -0.014  0.00  0.00     0.162 A 
ATOM      5  C3  <0> d           1.286  -0.438  -0.013  0.00  0.00     0.149 A 
ATOM      6  N2  <0> d           0.002  -0.004   0.002  0.00  0.00    -0.236 NA
ATOM      7  C4  <0> d           1.902  -1.700  -0.025  0.00  0.00     0.155 A 
ATOM      8  N3  <0> d           3.230  -1.756  -0.038  0.00  0.00    -0.222 NA
ATOM      9  C5  <0> d           3.961  -0.657  -0.039  0.00  0.00     0.091 A 
ATOM     10  N4  <0> d           3.427   0.547  -0.028  0.00  0.00    -0.222 NA
ATOM     11  H2  <0> d          -0.908   1.905   0.025  0.00  0.00     0.143 H 
ATOM     12  H3  <0> d           5.037  -0.748  -0.050  0.00  0.00     0.146 H 
ENDROOT
BRANCH   7  13
ATOM     13  N5  <0> d           1.144  -2.858  -0.024  0.00  0.00    -0.382 N 
ATOM     14  H4  <0> d           0.176  -2.804  -0.014  0.00  0.00     0.157 HD
ATOM     15  H5  <0> d           1.582  -3.724  -0.033  0.00  0.00     0.157 HD
ENDBRANCH   7  13
TORSDOF 1
