REMARK  1 active torsions:
REMARK  status: ('A' for Active; 'I' for Inactive)
REMARK    1  A    between atoms: C5_9  and  N5_10 
ROOT
ATOM      1  C1  <0> d          -0.017   1.377   0.010  0.00  0.00    -0.021 A 
ATOM      2  C2  <0> d           1.192   2.069   0.002  0.00  0.00     0.025 A 
ATOM      3  N1  <0> d           2.334   1.416  -0.012  0.00  0.00    -0.073 NA
ATOM      4  C3  <0> d           2.368   0.078  -0.020  0.00  0.00     0.752 A 
ATOM      5  N2  <0> d           3.372  -0.793  -0.034  0.00  0.00    -0.052 NA
ATOM      6  C4  <0> d           2.891  -2.030  -0.036  0.00  0.00     0.126 A 
ATOM      7  N3  <0> d           1.581  -1.994  -0.024  0.00  0.00    -0.143 NA
ATOM      8  N4  <0> d           1.208  -0.643  -0.013  0.00  0.00    -0.043 N 
ATOM      9  C5  <0> d           0.002  -0.004   0.002  0.00  0.00     0.142 A 
ATOM     10  H1  <0> d          -0.955   1.913   0.017  0.00  0.00     0.091 H 
ATOM     11  H2  <0> d           1.192   3.149   0.007  0.00  0.00     0.115 H 
ATOM     12  H3  <0> d           3.489  -2.929  -0.047  0.00  0.00     0.150 H 
ENDROOT
BRANCH   9  13
ATOM     13  N5  <0> d          -1.173  -0.722   0.009  0.00  0.00    -0.383 N 
ATOM     14  H4  <0> d          -2.025  -0.258   0.019  0.00  0.00     0.157 HD
ATOM     15  H5  <0> d          -1.149  -1.692   0.004  0.00  0.00     0.157 HD
ENDBRANCH   9  13
TORSDOF 1
