REMARK  2 active torsions:
REMARK  status: ('A' for Active; 'I' for Inactive)
REMARK    1  A    between atoms: C1_1  and  C2_2 
REMARK    2  A    between atoms: C5_7  and  N3_12 
ROOT
ATOM      1  C2  <0> d           2.852  -2.125  -0.038  0.00  0.00     0.101 A 
ATOM      2  N1  <0> d           3.437  -0.895  -0.036  0.00  0.00    -0.343 N 
ATOM      3  H1  <0> d           4.419  -0.707  -0.045  0.00  0.00     0.167 HD
ATOM      4  C3  <0> d           2.424   0.042  -0.021  0.00  0.00     0.064 A 
ATOM      5  C4  <0> d           2.392   1.429  -0.013  0.00  0.00    -0.030 A 
ATOM      6  C5  <0> d           1.174   2.087   0.002  0.00  0.00     0.028 A 
ATOM      7  C6  <0> d          -0.016   1.361   0.009  0.00  0.00    -0.055 A 
ATOM      8  C7  <0> d           0.002  -0.004   0.002  0.00  0.00    -0.051 A 
ATOM      9  C8  <0> d           1.222  -0.686  -0.013  0.00  0.00     0.085 A 
ATOM     10  N2  <0> d           1.557  -2.003  -0.024  0.00  0.00    -0.234 NA
ATOM     11  H5  <0> d           3.313   1.993  -0.019  0.00  0.00     0.090 H 
ATOM     12  H6  <0> d          -0.962   1.883   0.017  0.00  0.00     0.087 H 
ATOM     13  H7  <0> d          -0.926  -0.557   0.008  0.00  0.00     0.087 H 
ENDROOT
BRANCH   1  14
ATOM     14  C1  <0> d           3.596  -3.435  -0.052  0.00  0.00    -0.021 C 
ATOM     15  H2  <0> d           3.784  -3.757   0.972  0.00  0.00     0.037 H 
ATOM     16  H3  <0> d           2.996  -4.188  -0.565  0.00  0.00     0.037 H 
ATOM     17  H4  <0> d           4.544  -3.309  -0.574  0.00  0.00     0.037 H 
ENDBRANCH   1  14
BRANCH   6  18
ATOM     18  N3  <0> d           1.137   3.484   0.010  0.00  0.00    -0.399 N 
ATOM     19  H8  <0> d           0.284   3.947   0.021  0.00  0.00     0.156 HD
ATOM     20  H9  <0> d           1.964   3.991   0.005  0.00  0.00     0.156 HD
ENDBRANCH   6  18
TORSDOF 2
