REMARK  1 active torsions:
REMARK  status: ('A' for Active; 'I' for Inactive)
REMARK    1  A    between atoms: C1_1  and  C2_2 
ROOT
ATOM      1  C2  <0> d          -2.301   4.132   0.046  0.00  0.00     0.071 A 
ATOM      2  C3  <0> d          -1.228   3.134   0.031  0.00  0.00     0.026 A 
ATOM      3  C4  <0> d          -1.208   1.737   0.017  0.00  0.00    -0.068 A 
ATOM      4  C5  <0> d          -0.013   1.076   0.008  0.00  0.00    -0.082 A 
ATOM      5  C6  <0> d           1.183   1.781   0.000  0.00  0.00    -0.080 A 
ATOM      6  C7  <0> d           1.185   3.159   0.008  0.00  0.00    -0.047 A 
ATOM      7  C8  <0> d          -0.020   3.851   0.023  0.00  0.00     0.113 A 
ATOM      8  O1  <0> d          -0.337   5.161   0.033  0.00  0.00    -0.212 OA
ATOM      9  N1  <0> d          -1.743   5.303   0.047  0.00  0.00    -0.132 NA
ATOM     10  H4  <0> d          -2.134   1.182   0.018  0.00  0.00     0.085 H 
ATOM     11  H5  <0> d           0.002  -0.004   0.002  0.00  0.00     0.083 H 
ATOM     12  H6  <0> d           2.120   1.244  -0.011  0.00  0.00     0.083 H 
ATOM     13  H7  <0> d           2.120   3.699   0.002  0.00  0.00     0.087 H 
ENDROOT
BRANCH   1  14
ATOM     14  C1  <0> d          -3.782   3.850   0.059  0.00  0.00    -0.033 C 
ATOM     15  H1  <0> d          -4.129   3.776   1.089  0.00  0.00     0.035 H 
ATOM     16  H2  <0> d          -4.310   4.659  -0.446  0.00  0.00     0.035 H 
ATOM     17  H3  <0> d          -3.977   2.910  -0.458  0.00  0.00     0.035 H 
ENDBRANCH   1  14
TORSDOF 1
