REMARK  2 active torsions:
REMARK  status: ('A' for Active; 'I' for Inactive)
REMARK    1  A    between atoms: C1_1  and  C2_2 
REMARK    2  A    between atoms: C5_5  and  O1_8 
ROOT
ATOM      1  C2  <0> d          -0.729   1.579   1.267  0.00  0.00    -0.058 C 
ATOM      2  C3  <0> d          -0.013   1.086   0.008  0.00  0.00    -0.060 C 
ATOM      3  C4  <0> d          -0.753   1.593  -1.232  0.00  0.00    -0.041 C 
ATOM      4  C5  <0> d          -0.773   3.123  -1.223  0.00  0.00     0.035 C 
ATOM      5  C6  <0> d          -1.490   3.616   0.036  0.00  0.00    -0.041 C 
ATOM      6  C7  <0> d          -0.750   3.109   1.275  0.00  0.00    -0.060 C 
ATOM      7  H4  <0> d          -1.761   1.198   1.275  0.00  0.00     0.039 H 
ATOM      8  H5  <0> d           1.019   1.466   0.000  0.00  0.00     0.033 H 
ATOM      9  H6  <0> d           0.002  -0.014   0.002  0.00  0.00     0.033 H 
ATOM     10  H7  <0> d          -0.238   1.238  -2.136  0.00  0.00     0.036 H 
ATOM     11  H8  <0> d          -1.785   1.212  -1.224  0.00  0.00     0.036 H 
ATOM     12  H9  <0> d          -1.247   3.520  -2.133  0.00  0.00     0.082 H 
ATOM     13  H10 <0> d          -1.505   4.716   0.042  0.00  0.00     0.036 H 
ATOM     14  H11 <0> d          -2.522   3.235   0.043  0.00  0.00     0.036 H 
ATOM     15  H12 <0> d          -1.264   3.464   2.180  0.00  0.00     0.033 H 
ATOM     16  H13 <0> d           0.282   3.490   1.267  0.00  0.00     0.033 H 
ENDROOT
BRANCH   1  17
ATOM     17  C1  <0> d           0.011   1.072   2.506  0.00  0.00    -0.073 C 
ATOM     18  H1  <0> d           0.026  -0.028   2.500  0.00  0.00     0.028 H 
ATOM     19  H2  <0> d          -0.504   1.427   3.411  0.00  0.00     0.028 H 
ATOM     20  H3  <0> d           1.043   1.453   2.498  0.00  0.00     0.028 H 
ENDBRANCH   1  17
BRANCH   4  21
ATOM     21  O1  <0> d           0.567   3.617  -1.233  0.00  0.00    -0.396 OA
ATOM     22  H14 <0> d           0.753   4.701  -1.229  0.00  0.00     0.210 HD
ENDBRANCH   4  21
TORSDOF 2
