REMARK  4 active torsions:
REMARK  status: ('A' for Active; 'I' for Inactive)
REMARK    1  A    between atoms: C1_1  and  O1_2 
REMARK    2  A    between atoms: O1_2  and  C2_3 
REMARK       I    between atoms: N1_8  and  C6_9 
REMARK    3  A    between atoms: C6_9  and  O3_11 
REMARK    4  A    between atoms: O3_11  and  C7_12 
ROOT
ATOM      1  C2  <0> d           0.639  -0.469  -1.189  0.00  0.00     0.109 C 
ATOM      2  H1  <0> d           1.616   0.004  -1.295  0.00  0.00     0.118 H 
ATOM      3  C3  <0> d           0.802  -2.003  -1.132  0.00  0.00    -0.023 C 
ATOM      4  C4  <0> d           0.518  -2.437  -2.595  0.00  0.00    -0.046 C 
ATOM      5  C5  <0> d          -0.581  -1.427  -3.010  0.00  0.00     0.002 C 
ATOM      6  N1  <0> d          -0.196  -0.159  -2.358  0.00  0.00    -0.301 N 
ATOM      7  C6  <0> d          -0.551   1.076  -2.764  0.00  0.00     0.364 C 
ATOM      8  O2  <0> d          -0.101   2.054  -2.200  0.00  0.00    -0.238 OA
ATOM      9  H5  <0> d           1.818  -2.272  -0.841  0.00  0.00     0.039 H 
ATOM     10  H6  <0> d           0.075  -2.443  -0.451  0.00  0.00     0.039 H 
ATOM     11  H7  <0> d           1.407  -2.324  -3.215  0.00  0.00     0.035 H 
ATOM     12  H8  <0> d           0.144  -3.460  -2.633  0.00  0.00     0.035 H 
ATOM     13  H9  <0> d          -0.595  -1.306  -4.093  0.00  0.00     0.064 H 
ATOM     14  H10 <0> d          -1.556  -1.759  -2.652  0.00  0.00     0.064 H 
ENDROOT
BRANCH   1  15
ATOM     15  O1  <0> d           0.001  -0.004   0.002  0.00  0.00    -0.371 OA
BRANCH  15  16
ATOM     16  C1  <0> d           0.906   0.483   0.995  0.00  0.00     0.006 C 
ATOM     17  H2  <0> d           1.531  -0.337   1.350  0.00  0.00     0.066 H 
ATOM     18  H3  <0> d           1.537   1.259   0.562  0.00  0.00     0.066 H 
ATOM     19  H4  <0> d           0.341   0.897   1.830  0.00  0.00     0.066 H 
ENDBRANCH  15  16
ENDBRANCH   1  15
BRANCH   7  20
ATOM     20  O3  <0> d          -1.405   1.227  -3.794  0.00  0.00    -0.309 OA
BRANCH  20  21
ATOM     21  C7  <0> d          -1.738   2.565  -4.170  0.00  0.00     0.015 C 
ATOM     22  H11 <0> d          -2.204   3.074  -3.327  0.00  0.00     0.067 H 
ATOM     23  H12 <0> d          -0.832   3.097  -4.460  0.00  0.00     0.067 H 
ATOM     24  H13 <0> d          -2.432   2.544  -5.010  0.00  0.00     0.067 H 
ENDBRANCH  20  21
ENDBRANCH   7  20
TORSDOF 4
