REMARK  2 active torsions:
REMARK  status: ('A' for Active; 'I' for Inactive)
REMARK    1  A    between atoms: C3_4  and  N2_9 
REMARK    2  A    between atoms: C5_6  and  C6_7 
ROOT
ATOM      1  C1  <0> d           1.194  -0.699  -0.013  0.00  0.00    -0.049 A 
ATOM      2  C2  <0> d           0.002  -0.004   0.002  0.00  0.00     0.005 A 
ATOM      3  N1  <0> d          -0.016   1.315   0.009  0.00  0.00    -0.244 NA
ATOM      4  C3  <0> d           1.097   2.030   0.003  0.00  0.00     0.121 A 
ATOM      5  C4  <0> d           2.341   1.409  -0.013  0.00  0.00    -0.023 A 
ATOM      6  C5  <0> d           2.399   0.014  -0.021  0.00  0.00     0.045 A 
ATOM      7  H1  <0> d           1.198  -1.779  -0.019  0.00  0.00     0.087 H 
ATOM      8  H2  <0> d          -0.931  -0.549   0.008  0.00  0.00     0.114 H 
ATOM      9  H3  <0> d           3.248   1.996  -0.018  0.00  0.00     0.091 H 
ENDROOT
BRANCH   4  10
ATOM     10  N2  <0> d           1.022   3.419   0.010  0.00  0.00    -0.384 N 
ATOM     11  H4  <0> d           0.157   3.857   0.021  0.00  0.00     0.157 HD
ATOM     12  H5  <0> d           1.835   3.948   0.005  0.00  0.00     0.157 HD
ENDBRANCH   4  10
BRANCH   6  13
ATOM     13  C6  <0> d           3.700  -0.692  -0.036  0.00  0.00     0.209 C 
ATOM     14  O1  <0> d           4.736  -0.058  -0.043  0.00  0.00    -0.644 OA
ATOM     15  O2  <0> d           3.736  -2.039  -0.044  0.00  0.00    -0.644 OA
ENDBRANCH   6  13
TORSDOF 2
