REMARK  3 active torsions:
REMARK  status: ('A' for Active; 'I' for Inactive)
REMARK    1  A    between atoms: C1_1  and  C2_2 
REMARK    2  A    between atoms: C5_5  and  C8_8 
REMARK    3  A    between atoms: C8_8  and  N2_12 
ROOT
ATOM      1  C8  <0> d           0.002  -0.004   0.002  0.00  0.00     0.237 C 
ATOM      2  H1  <0> d           0.976  -0.384   0.344  0.00  0.00     0.119 H 
ATOM      3  C9  <0> d          -0.245  -0.491  -1.365  0.00  0.00     0.100 C 
ATOM      4  N1  <0> d          -0.436  -0.866  -2.420  0.00  0.00    -0.195 NA
ENDROOT
BRANCH   1   5
ATOM      5  C5  <0> d          -0.018   1.503   0.010  0.00  0.00    -0.012 A 
ATOM      6  C4  <0> d           1.169   2.210   0.003  0.00  0.00    -0.073 A 
ATOM      7  C3  <0> d           1.151   3.592   0.010  0.00  0.00    -0.077 A 
ATOM      8  H6  <0> d           2.112   1.683  -0.009  0.00  0.00     0.084 H 
ATOM      9  C2  <0> d          -0.056   4.267   0.025  0.00  0.00    -0.062 A 
ATOM     10  H5  <0> d           2.078   4.145   0.004  0.00  0.00     0.084 H 
ATOM     11  C7  <0> d          -1.244   3.560   0.032  0.00  0.00    -0.077 A 
ATOM     12  C6  <0> d          -1.225   2.178   0.020  0.00  0.00    -0.073 A 
ATOM     13  H8  <0> d          -2.186   4.087   0.044  0.00  0.00     0.084 H 
ATOM     14  H7  <0> d          -2.153   1.625   0.021  0.00  0.00     0.084 H 
BRANCH   9  15
ATOM     15  C1  <0> d          -0.076   5.774   0.034  0.00  0.00    -0.051 C 
ATOM     16  H2  <0> d           0.956   6.155   0.026  0.00  0.00     0.033 H 
ATOM     17  H3  <0> d          -0.592   6.129   0.938  0.00  0.00     0.033 H 
ATOM     18  H4  <0> d          -0.608   6.138  -0.858  0.00  0.00     0.033 H 
ENDBRANCH   9  15
ENDBRANCH   1   5
BRANCH   1  19
ATOM     19  N2  <0> d          -1.044  -0.513   0.900  0.00  0.00     0.100 N 
ATOM     20  H9  <0> d          -1.029  -1.613   0.894  0.00  0.00     0.315 HD
ATOM     21  H10 <0> d          -0.859  -0.149   1.921  0.00  0.00     0.315 HD
ENDBRANCH   1  19
TORSDOF 3
