REMARK  2 active torsions:
REMARK  status: ('A' for Active; 'I' for Inactive)
REMARK    1  A    between atoms: C3_3  and  C4_4 
REMARK    2  A    between atoms: C5_6  and  N3_9 
ROOT
ATOM      1  C1  <0> d          -0.019   1.526   0.010  0.00  0.00    -0.054 A 
ATOM      2  C2  <0> d           1.317   0.779  -0.006  0.00  0.00    -0.054 A 
ATOM      3  C3  <0> d           0.002  -0.004   0.002  0.00  0.00     0.008 A 
ATOM      4  H1  <0> d          -0.307   2.020   0.938  0.00  0.00     0.034 H 
ATOM      5  H2  <0> d          -0.325   2.030  -0.906  0.00  0.00     0.034 H 
ATOM      6  H3  <0> d           1.889   0.792  -0.934  0.00  0.00     0.034 H 
ATOM      7  H4  <0> d           1.906   0.782   0.910  0.00  0.00     0.034 H 
ATOM      8  H5  <0> d          -0.290  -0.506  -0.920  0.00  0.00     0.052 H 
ENDROOT
BRANCH   3   9
ATOM      9  C4  <0> d          -0.378  -0.712   1.277  0.00  0.00     0.162 A 
ATOM     10  N2  <0> d           0.233  -0.589   2.421  0.00  0.00    -0.109 NA
ATOM     11  O1  <0> d          -0.452  -1.425   3.342  0.00  0.00    -0.173 OA
ATOM     12  C5  <0> d          -1.446  -2.007   2.652  0.00  0.00     0.267 A 
ATOM     13  N1  <0> d          -1.392  -1.571   1.414  0.00  0.00    -0.189 NA
BRANCH  12  14
ATOM     14  N3  <0> d          -2.361  -2.901   3.154  0.00  0.00    -0.362 N 
ATOM     15  H6  <0> d          -3.047  -3.269   2.576  0.00  0.00     0.159 HD
ATOM     16  H7  <0> d          -2.321  -3.164   4.087  0.00  0.00     0.159 HD
ENDBRANCH  12  14
ENDBRANCH   3   9
TORSDOF 2
