REMARK  3 active torsions:
REMARK  status: ('A' for Active; 'I' for Inactive)
REMARK    1  A    between atoms: C1_1  and  C2_2 
REMARK    2  A    between atoms: C2_2  and  O1_3 
REMARK    3  A    between atoms: O1_3  and  C3_4 
ROOT
ATOM      1  C3  <0> d           1.175   2.087   0.002  0.00  0.00     0.068 A 
ATOM      2  C4  <0> d          -0.017   1.377   0.010  0.00  0.00    -0.048 A 
ATOM      3  C5  <0> d           0.002  -0.004   0.002  0.00  0.00    -0.043 A 
ATOM      4  C6  <0> d           1.210  -0.681  -0.013  0.00  0.00     0.116 A 
ATOM      5  C7  <0> d           2.401   0.026  -0.021  0.00  0.00    -0.043 A 
ATOM      6  C8  <0> d           2.385   1.407  -0.013  0.00  0.00    -0.048 A 
ATOM      7  F1  <0> d           1.227  -2.031  -0.020  0.00  0.00    -0.206 F 
ATOM      8  H6  <0> d          -0.959   1.905   0.017  0.00  0.00     0.087 H 
ATOM      9  H7  <0> d          -0.926  -0.556   0.008  0.00  0.00     0.088 H 
ATOM     10  H8  <0> d           3.342  -0.503  -0.033  0.00  0.00     0.088 H 
ATOM     11  H9  <0> d           3.314   1.958  -0.018  0.00  0.00     0.087 H 
ENDROOT
BRANCH   1  12
ATOM     12  O1  <0> d           1.158   3.446   0.009  0.00  0.00    -0.352 OA
BRANCH  12  13
ATOM     13  C2  <0> d           2.423   4.111   0.001  0.00  0.00     0.023 C 
ATOM     14  H4  <0> d           2.992   3.820   0.884  0.00  0.00     0.074 H 
ATOM     15  H5  <0> d           2.976   3.829  -0.896  0.00  0.00     0.074 H 
BRANCH  13  16
ATOM     16  C1  <0> d           2.204   5.625   0.010  0.00  0.00    -0.056 C 
ATOM     17  H1  <0> d           1.635   5.915  -0.873  0.00  0.00     0.030 H 
ATOM     18  H2  <0> d           1.652   5.906   0.907  0.00  0.00     0.030 H 
ATOM     19  H3  <0> d           3.169   6.132   0.004  0.00  0.00     0.030 H 
ENDBRANCH  13  16
ENDBRANCH  12  13
ENDBRANCH   1  12
TORSDOF 3
