REMARK  0 active torsions:
REMARK  status: ('A' for Active; 'I' for Inactive)
ROOT
ATOM      1  C1  <0> d          -0.786   3.123  -1.219  0.00  0.00    -0.065 C 
ATOM      2  C2  <0> d          -0.754   1.594  -1.231  0.00  0.00    -0.065 C 
ATOM      3  C3  <0> d          -0.013   1.086   0.008  0.00  0.00    -0.061 C 
ATOM      4  C4  <0> d          -0.730   1.580   1.265  0.00  0.00    -0.044 C 
ATOM      5  H1  <0> d          -1.757   1.214   1.262  0.00  0.00     0.041 H 
ATOM      6  C5  <0> d          -0.018   1.053   2.512  0.00  0.00    -0.006 C 
ATOM      7  C6  <0> d           1.354   1.684   2.591  0.00  0.00     0.127 C 
ATOM      8  O1  <0> d           2.342   1.005   2.739  0.00  0.00    -0.298 OA
ATOM      9  C7  <0> d           1.455   3.189   2.479  0.00  0.00    -0.009 C 
ATOM     10  C8  <0> d           0.700   3.634   1.223  0.00  0.00    -0.055 C 
ATOM     11  C9  <0> d          -0.737   3.110   1.277  0.00  0.00    -0.050 C 
ATOM     12  H2  <0> d          -1.226   3.474   2.182  0.00  0.00     0.040 H 
ATOM     13  C10 <0> d          -1.497   3.613   0.045  0.00  0.00    -0.061 C 
ATOM     14  H3  <0> d           0.234   3.507  -1.233  0.00  0.00     0.033 H 
ATOM     15  H4  <0> d          -1.321   3.482  -2.098  0.00  0.00     0.033 H 
ATOM     16  H5  <0> d          -0.241   1.248  -2.128  0.00  0.00     0.033 H 
ATOM     17  H6  <0> d          -1.775   1.210  -1.226  0.00  0.00     0.033 H 
ATOM     18  H7  <0> d           0.002  -0.004   0.002  0.00  0.00     0.033 H 
ATOM     19  H8  <0> d           1.010   1.464   0.000  0.00  0.00     0.033 H 
ATOM     20  H9  <0> d           0.067   0.058   2.451  0.00  0.00     0.044 H 
ATOM     21  H10 <0> d          -0.593   1.315   3.400  0.00  0.00     0.044 H 
ATOM     22  H11 <0> d           2.417   3.455   2.413  0.00  0.00     0.044 H 
ATOM     23  H12 <0> d           1.010   3.655   3.359  0.00  0.00     0.044 H 
ATOM     24  H13 <0> d           1.199   3.236   0.340  0.00  0.00     0.034 H 
ATOM     25  H14 <0> d           0.688   4.723   1.174  0.00  0.00     0.034 H 
ATOM     26  H15 <0> d          -1.520   4.703   0.050  0.00  0.00     0.033 H 
ATOM     27  H16 <0> d          -2.516   3.227   0.062  0.00  0.00     0.033 H 
ENDROOT
TORSDOF 0
