REMARK  3 active torsions:
REMARK  status: ('A' for Active; 'I' for Inactive)
REMARK    1  A    between atoms: C1_1  and  C2_2 
REMARK    2  A    between atoms: C2_2  and  C3_4 
REMARK    3  A    between atoms: C2_2  and  O1_10 
ROOT
ATOM      1  C3  <0> d          -0.742   1.585  -1.213  0.00  0.00    -0.027 A 
ATOM      2  C4  <0> d          -0.486   2.848  -1.725  0.00  0.00    -0.058 A 
ATOM      3  C5  <0> d          -1.171   3.270  -2.849  0.00  0.00     0.002 A 
ATOM      4  N1  <0> d          -2.064   2.491  -3.426  0.00  0.00    -0.273 NA
ATOM      5  C6  <0> d          -2.336   1.286  -2.965  0.00  0.00     0.002 A 
ATOM      6  C7  <0> d          -1.687   0.794  -1.848  0.00  0.00    -0.058 A 
ATOM      7  H5  <0> d           0.241   3.493  -1.253  0.00  0.00     0.086 H 
ATOM      8  H6  <0> d          -0.976   4.251  -3.256  0.00  0.00     0.114 H 
ATOM      9  H7  <0> d          -3.074   0.676  -3.465  0.00  0.00     0.114 H 
ATOM     10  H8  <0> d          -1.914  -0.193  -1.474  0.00  0.00     0.086 H 
ENDROOT
BRANCH   1  11
ATOM     11  C2  <0> d          -0.013   1.086   0.008  0.00  0.00     0.057 C 
ATOM     12  H1  <0> d           0.002  -0.004   0.002  0.00  0.00     0.089 H 
BRANCH  11  13
ATOM     13  C1  <0> d          -0.729   1.579   1.267  0.00  0.00    -0.049 C 
ATOM     14  H2  <0> d          -0.744   2.669   1.273  0.00  0.00     0.031 H 
ATOM     15  H3  <0> d          -1.751   1.202   1.275  0.00  0.00     0.031 H 
ATOM     16  H4  <0> d          -0.202   1.218   2.150  0.00  0.00     0.031 H 
ENDBRANCH  11  13
BRANCH  11  17
ATOM     17  O1  <0> d           1.328   1.580  -0.002  0.00  0.00    -0.391 OA
ATOM     18  H9  <0> d           1.391   2.545   0.002  0.00  0.00     0.210 HD
ENDBRANCH  11  17
ENDBRANCH   1  11
TORSDOF 3
