REMARK  6 active torsions:
REMARK  status: ('A' for Active; 'I' for Inactive)
REMARK    1  A    between atoms: C1_1  and  C2_2 
REMARK    2  A    between atoms: C2_2  and  C7_9 
REMARK    3  A    between atoms: C3_3  and  C4_4 
REMARK    4  A    between atoms: C4_4  and  O1_5 
REMARK    5  A    between atoms: O1_5  and  C5_6 
REMARK    6  A    between atoms: C5_6  and  C6_8 
ROOT
ATOM      1  C2  <0> d           4.524   1.880   0.838  0.00  0.00    -0.089 C 
ATOM      2  C3  <0> d           3.667   1.951  -0.150  0.00  0.00    -0.079 C 
ATOM      3  H4  <0> d           3.727   2.763  -0.860  0.00  0.00     0.080 H 
ENDROOT
BRANCH   2   4
ATOM      4  C4  <0> d           2.596   0.901  -0.296  0.00  0.00     0.044 C 
ATOM      5  H5  <0> d           2.515   0.334   0.632  0.00  0.00     0.081 H 
ATOM      6  H6  <0> d           2.857   0.227  -1.112  0.00  0.00     0.081 H 
BRANCH   4   7
ATOM      7  O1  <0> d           1.325   1.541  -0.584  0.00  0.00    -0.318 OA
BRANCH   7   8
ATOM      8  C5  <0> d           0.261   0.739  -0.744  0.00  0.00     0.255 C 
ATOM      9  O2  <0> d           0.387  -0.458  -0.646  0.00  0.00    -0.266 OA
BRANCH   8  10
ATOM     10  C6  <0> d          -1.090   1.332  -1.052  0.00  0.00     0.004 C 
ATOM     11  H7  <0> d          -1.618   1.536  -0.120  0.00  0.00     0.041 H 
ATOM     12  H8  <0> d          -0.961   2.261  -1.607  0.00  0.00     0.041 H 
ATOM     13  H9  <0> d          -1.668   0.628  -1.650  0.00  0.00     0.041 H 
ENDBRANCH   8  10
ENDBRANCH   7   8
ENDBRANCH   4   7
ENDBRANCH   2   4
BRANCH   1  14
ATOM     14  C1  <0> d           4.518   0.685   1.756  0.00  0.00    -0.055 C 
ATOM     15  H1  <0> d           4.616  -0.226   1.167  0.00  0.00     0.033 H 
ATOM     16  H2  <0> d           5.352   0.759   2.454  0.00  0.00     0.033 H 
ATOM     17  H3  <0> d           3.581   0.659   2.313  0.00  0.00     0.033 H 
ENDBRANCH   1  14
BRANCH   1  18
ATOM     18  C7  <0> d           5.516   2.993   1.056  0.00  0.00    -0.055 C 
ATOM     19  H10 <0> d           5.085   3.738   1.725  0.00  0.00     0.033 H 
ATOM     20  H11 <0> d           6.425   2.588   1.502  0.00  0.00     0.033 H 
ATOM     21  H12 <0> d           5.756   3.458   0.100  0.00  0.00     0.033 H 
ENDBRANCH   1  18
TORSDOF 6
