REMARK  4 active torsions:
REMARK  status: ('A' for Active; 'I' for Inactive)
REMARK    1  A    between atoms: C1_1  and  O1_2 
REMARK    2  A    between atoms: O1_2  and  C2_3 
REMARK    3  A    between atoms: C5_7  and  C6_8 
REMARK    4  A    between atoms: C6_8  and  O2_9 
ROOT
ATOM      1  C2  <0> d           0.607  -0.609  -1.058  0.00  0.00     0.083 A 
ATOM      2  C3  <0> d           1.177   0.148  -2.069  0.00  0.00    -0.043 A 
ATOM      3  C4  <0> d           1.771  -0.487  -3.109  0.00  0.00    -0.042 A 
ATOM      4  S1  <0> d           1.536  -2.204  -2.679  0.00  0.00    -0.101 SA
ATOM      5  C5  <0> d           0.667  -1.963  -1.139  0.00  0.00     0.039 A 
ATOM      6  H4  <0> d           1.148   1.227  -2.029  0.00  0.00     0.088 H 
ATOM      7  H5  <0> d           2.259  -0.064  -3.974  0.00  0.00     0.095 H 
ENDROOT
BRANCH   1   8
ATOM      8  O1  <0> d           0.002  -0.004   0.002  0.00  0.00    -0.355 OA
BRANCH   8   9
ATOM      9  C1  <0> d          -0.017   1.425   0.010  0.00  0.00     0.010 C 
ATOM     10  H1  <0> d           1.005   1.802   0.002  0.00  0.00     0.066 H 
ATOM     11  H2  <0> d          -0.544   1.786  -0.873  0.00  0.00     0.066 H 
ATOM     12  H3  <0> d          -0.527   1.776   0.907  0.00  0.00     0.066 H 
ENDBRANCH   8   9
ENDBRANCH   1   8
BRANCH   5  13
ATOM     13  C6  <0> d           0.135  -2.995  -0.178  0.00  0.00     0.049 C 
ATOM     14  H6  <0> d           0.759  -3.887  -0.222  0.00  0.00     0.082 H 
ATOM     15  H7  <0> d           0.149  -2.590   0.834  0.00  0.00     0.082 H 
BRANCH  13  16
ATOM     16  O2  <0> d          -1.206  -3.333  -0.537  0.00  0.00    -0.396 OA
ATOM     17  H8  <0> d          -1.613  -3.994   0.040  0.00  0.00     0.209 HD
ENDBRANCH  13  16
ENDBRANCH   5  13
TORSDOF 4
