REMARK  5 active torsions:
REMARK  status: ('A' for Active; 'I' for Inactive)
REMARK    1  A    between atoms: C1_1  and  C2_2 
REMARK    2  A    between atoms: C2_2  and  C3_3 
REMARK    3  A    between atoms: C3_3  and  C7_8 
REMARK    4  A    between atoms: C7_8  and  O2_10 
REMARK    5  A    between atoms: O2_10  and  C8_11 
ROOT
ATOM      1  C3  <0> d          -1.433  -0.534   0.013  0.00  0.00     0.243 C 
ATOM      2  C4  <0> d          -1.425  -2.071   0.151  0.00  0.00    -0.021 C 
ATOM      3  C5  <0> d          -1.648  -2.287   1.671  0.00  0.00    -0.037 C 
ATOM      4  C6  <0> d          -2.616  -1.126   2.013  0.00  0.00     0.113 C 
ATOM      5  N1  <0> d          -2.158   0.005   1.178  0.00  0.00     0.103 N 
ATOM      6  H6  <0> d          -2.237  -2.514  -0.425  0.00  0.00     0.037 H 
ATOM      7  H7  <0> d          -0.463  -2.480  -0.160  0.00  0.00     0.037 H 
ATOM      8  H8  <0> d          -2.114  -3.253   1.863  0.00  0.00     0.035 H 
ATOM      9  H9  <0> d          -0.712  -2.189   2.220  0.00  0.00     0.035 H 
ATOM     10  H10 <0> d          -3.640  -1.397   1.755  0.00  0.00     0.079 H 
ATOM     11  H11 <0> d          -2.544  -0.871   3.070  0.00  0.00     0.079 H 
ATOM     12  H12 <0> d          -1.573   0.633   1.710  0.00  0.00     0.317 HD
ENDROOT
BRANCH   1  13
ATOM     13  C2  <0> d           0.002  -0.004   0.002  0.00  0.00    -0.025 C 
ATOM     14  H4  <0> d           0.512  -0.356  -0.895  0.00  0.00     0.037 H 
ATOM     15  H5  <0> d           0.529  -0.365   0.885  0.00  0.00     0.037 H 
BRANCH  13  16
ATOM     16  C1  <0> d          -0.019   1.526   0.010  0.00  0.00    -0.074 C 
ATOM     17  H1  <0> d           1.004   1.903   0.003  0.00  0.00     0.027 H 
ATOM     18  H2  <0> d          -0.546   1.887  -0.873  0.00  0.00     0.027 H 
ATOM     19  H3  <0> d          -0.529   1.877   0.907  0.00  0.00     0.027 H 
ENDBRANCH  13  16
ENDBRANCH   1  13
BRANCH   1  20
ATOM     20  C7  <0> d          -2.137  -0.133  -1.258  0.00  0.00     0.297 C 
ATOM     21  O1  <0> d          -2.184  -0.901  -2.190  0.00  0.00    -0.262 OA
BRANCH  20  22
ATOM     22  O2  <0> d          -2.711   1.076  -1.355  0.00  0.00    -0.324 OA
BRANCH  22  23
ATOM     23  C8  <0> d          -3.361   1.389  -2.589  0.00  0.00     0.013 C 
ATOM     24  H13 <0> d          -2.637   1.342  -3.403  0.00  0.00     0.067 H 
ATOM     25  H14 <0> d          -4.159   0.670  -2.772  0.00  0.00     0.067 H 
ATOM     26  H15 <0> d          -3.781   2.393  -2.534  0.00  0.00     0.067 H 
ENDBRANCH  22  23
ENDBRANCH  20  22
ENDBRANCH   1  20
TORSDOF 5
