REMARK  2 active torsions:
REMARK  status: ('A' for Active; 'I' for Inactive)
REMARK    1  A    between atoms: C2_2  and  C4_8 
REMARK    2  A    between atoms: C3_6  and  N3_7 
ROOT
ATOM      1  C4  <0> d           1.776  -1.831  -0.024  0.00  0.00    -0.012 C 
ATOM      2  C5  <0> d           1.347  -2.618  -1.274  0.00  0.00    -0.057 C 
ATOM      3  C6  <0> d           1.101  -3.815  -0.341  0.00  0.00    -0.064 C 
ATOM      4  C7  <0> d           0.889  -2.791   0.787  0.00  0.00    -0.057 C 
ATOM      5  H5  <0> d           2.838  -1.919   0.205  0.00  0.00     0.049 H 
ATOM      6  H6  <0> d           0.440  -2.234  -1.741  0.00  0.00     0.034 H 
ATOM      7  H7  <0> d           2.155  -2.779  -1.987  0.00  0.00     0.034 H 
ATOM      8  H8  <0> d           1.978  -4.446  -0.199  0.00  0.00     0.033 H 
ATOM      9  H9  <0> d           0.204  -4.384  -0.587  0.00  0.00     0.033 H 
ATOM     10  H10 <0> d           1.328  -3.092   1.738  0.00  0.00     0.034 H 
ATOM     11  H11 <0> d          -0.143  -2.454   0.884  0.00  0.00     0.034 H 
ENDROOT
BRANCH   1  12
ATOM     12  C2  <0> d           1.291  -0.405  -0.012  0.00  0.00     0.035 A 
ATOM     13  C1  <0> d           2.069   0.701  -0.014  0.00  0.00    -0.014 A 
ATOM     14  C3  <0> d           1.224   1.823   0.000  0.00  0.00     0.143 A 
ATOM     15  H2  <0> d           3.149   0.719  -0.024  0.00  0.00     0.092 H 
ATOM     16  N2  <0> d          -0.017   1.397   0.010  0.00  0.00    -0.157 NA
ATOM     17  N1  <0> d           0.002  -0.004   0.002  0.00  0.00    -0.280 N 
ATOM     18  H1  <0> d          -0.799  -0.603   0.006  0.00  0.00     0.189 HD
BRANCH  14  19
ATOM     19  N3  <0> d           1.634   3.161   0.003  0.00  0.00    -0.383 N 
ATOM     20  H3  <0> d           0.973   3.871   0.013  0.00  0.00     0.157 HD
ATOM     21  H4  <0> d           2.579   3.379  -0.005  0.00  0.00     0.157 HD
ENDBRANCH  14  19
ENDBRANCH   1  12
TORSDOF 2
