REMARK  9 active torsions:
REMARK  status: ('A' for Active; 'I' for Inactive)
REMARK    1  A    between atoms: C1_1  and  C2_2 
REMARK    2  A    between atoms: C2_2  and  C3_3 
REMARK    3  A    between atoms: C3_3  and  C4_5 
REMARK    4  A    between atoms: C3_3  and  O2_12 
REMARK    5  A    between atoms: C4_5  and  C5_6 
REMARK    6  A    between atoms: C4_5  and  C6_7 
REMARK    7  A    between atoms: C6_7  and  C7_9 
REMARK    8  A    between atoms: C6_7  and  O1_11 
REMARK    9  A    between atoms: C7_9  and  C8_10 
ROOT
ATOM      1  C4  <0> d          -0.729   1.579   1.267  0.00  0.00    -0.008 C 
ATOM      2  H8  <0> d          -0.744   2.669   1.273  0.00  0.00     0.047 H 
ENDROOT
BRANCH   1   3
ATOM      3  C3  <0> d          -2.164   1.050   1.278  0.00  0.00     0.041 C 
ATOM      4  H1  <0> d          -2.674   1.401   2.175  0.00  0.00     0.083 H 
BRANCH   3   5
ATOM      5  C2  <0> d          -2.904   1.556   0.038  0.00  0.00    -0.044 C 
ATOM      6  H6  <0> d          -2.842   2.644  -0.003  0.00  0.00     0.036 H 
ATOM      7  H7  <0> d          -2.447   1.133  -0.856  0.00  0.00     0.036 H 
BRANCH   5   8
ATOM      8  C1  <0> d          -4.372   1.131   0.111  0.00  0.00    -0.074 C 
ATOM      9  H3  <0> d          -4.899   1.492  -0.772  0.00  0.00     0.027 H 
ATOM     10  H4  <0> d          -4.434   0.044   0.152  0.00  0.00     0.027 H 
ATOM     11  H5  <0> d          -4.829   1.555   1.006  0.00  0.00     0.027 H 
ENDBRANCH   5   8
ENDBRANCH   3   5
BRANCH   3  12
ATOM     12  O2  <0> d          -2.145  -0.379   1.270  0.00  0.00    -0.395 OA
ATOM     13  H18 <0> d          -1.705  -0.762   0.498  0.00  0.00     0.210 HD
ENDBRANCH   3  12
ENDBRANCH   1   3
BRANCH   1  14
ATOM     14  C5  <0> d          -0.013   1.086   0.008  0.00  0.00    -0.068 C 
ATOM     15  H9  <0> d           0.002  -0.004   0.002  0.00  0.00     0.028 H 
ATOM     16  H10 <0> d           1.010   1.463   0.000  0.00  0.00     0.028 H 
ATOM     17  H11 <0> d          -0.540   1.447  -0.875  0.00  0.00     0.028 H 
ENDBRANCH   1  14
BRANCH   1  18
ATOM     18  C6  <0> d           0.011   1.072   2.506  0.00  0.00     0.041 C 
ATOM     19  H2  <0> d           0.026  -0.018   2.500  0.00  0.00     0.083 H 
BRANCH  18  20
ATOM     20  C7  <0> d           1.446   1.602   2.495  0.00  0.00    -0.044 C 
ATOM     21  H12 <0> d           1.929   1.325   1.558  0.00  0.00     0.036 H 
ATOM     22  H13 <0> d           1.434   2.688   2.591  0.00  0.00     0.036 H 
BRANCH  20  23
ATOM     23  C8  <0> d           2.223   0.996   3.667  0.00  0.00    -0.074 C 
ATOM     24  H14 <0> d           2.235  -0.090   3.571  0.00  0.00     0.027 H 
ATOM     25  H15 <0> d           3.245   1.373   3.659  0.00  0.00     0.027 H 
ATOM     26  H16 <0> d           1.740   1.273   4.604  0.00  0.00     0.027 H 
ENDBRANCH  20  23
ENDBRANCH  18  20
BRANCH  18  27
ATOM     27  O1  <0> d          -0.658   1.533   3.682  0.00  0.00    -0.395 OA
ATOM     28  H17 <0> d          -0.708   2.496   3.754  0.00  0.00     0.210 HD
ENDBRANCH  18  27
ENDBRANCH   1  18
TORSDOF 9
