REMARK  6 active torsions:
REMARK  status: ('A' for Active; 'I' for Inactive)
REMARK    1  A    between atoms: C1_1  and  C2_2 
REMARK    2  A    between atoms: C2_2  and  C3_4 
REMARK    3  A    between atoms: C2_2  and  O3_9 
REMARK    4  A    between atoms: C3_4  and  C4_5 
REMARK    5  A    between atoms: C4_5  and  O2_7 
REMARK    6  A    between atoms: O2_7  and  C5_8 
ROOT
ATOM      1  C3  <0> d          -0.013   1.086   0.008  0.00  0.00     0.039 C 
ATOM      2  H5  <0> d           0.002  -0.004   0.002  0.00  0.00     0.051 H 
ATOM      3  H6  <0> d           1.010   1.463   0.000  0.00  0.00     0.051 H 
ENDROOT
BRANCH   1   4
ATOM      4  C2  <0> d          -0.729   1.579   1.267  0.00  0.00     0.040 C 
ATOM      5  H1  <0> d          -0.822   2.665   1.230  0.00  0.00     0.083 H 
BRANCH   4   6
ATOM      6  C1  <0> d           0.079   1.179   2.503  0.00  0.00    -0.052 C 
ATOM      7  H2  <0> d           1.071   1.627   2.450  0.00  0.00     0.030 H 
ATOM      8  H3  <0> d          -0.432   1.530   3.400  0.00  0.00     0.030 H 
ATOM      9  H4  <0> d           0.172   0.093   2.540  0.00  0.00     0.030 H 
ENDBRANCH   4   6
BRANCH   4  10
ATOM     10  O3  <0> d          -2.030   0.991   1.336  0.00  0.00    -0.395 OA
ATOM     11  H10 <0> d          -2.542   1.260   2.111  0.00  0.00     0.210 HD
ENDBRANCH   4  10
ENDBRANCH   1   4
BRANCH   1  12
ATOM     12  C4  <0> d          -0.742   1.585  -1.213  0.00  0.00     0.260 C 
ATOM     13  O1  <0> d          -1.732   2.266  -1.089  0.00  0.00    -0.265 OA
BRANCH  12  14
ATOM     14  O2  <0> d          -0.290   1.274  -2.438  0.00  0.00    -0.326 OA
BRANCH  14  15
ATOM     15  C5  <0> d          -1.042   1.789  -3.568  0.00  0.00     0.013 C 
ATOM     16  H7  <0> d          -0.572   1.464  -4.496  0.00  0.00     0.067 H 
ATOM     17  H8  <0> d          -2.064   1.411  -3.528  0.00  0.00     0.067 H 
ATOM     18  H9  <0> d          -1.056   2.878  -3.529  0.00  0.00     0.067 H 
ENDBRANCH  14  15
ENDBRANCH  12  14
ENDBRANCH   1  12
TORSDOF 6
