REMARK  9 active torsions:
REMARK  status: ('A' for Active; 'I' for Inactive)
REMARK    1  A    between atoms: C1_1  and  C2_2 
REMARK    2  A    between atoms: C2_2  and  C3_3 
REMARK    3  A    between atoms: C3_3  and  C4_4 
REMARK    4  A    between atoms: C4_4  and  C5_5 
REMARK    5  A    between atoms: C5_5  and  C6_7 
REMARK    6  A    between atoms: C5_5  and  C8_9 
REMARK    7  A    between atoms: C6_7  and  C7_8 
REMARK    8  A    between atoms: C8_9  and  O2_11 
REMARK    9  A    between atoms: O2_11  and  C9_12 
ROOT
ATOM      1  C5  <0> d           0.011   1.072   2.506  0.00  0.00     0.030 C 
ATOM      2  H1  <0> d           0.104  -0.013   2.456  0.00  0.00     0.055 H 
ENDROOT
BRANCH   1   3
ATOM      3  C4  <0> d          -0.772   1.460   3.762  0.00  0.00    -0.053 C 
ATOM      4  H9  <0> d          -0.203   1.177   4.647  0.00  0.00     0.034 H 
ATOM      5  H10 <0> d          -0.942   2.536   3.767  0.00  0.00     0.034 H 
BRANCH   3   6
ATOM      6  C3  <0> d          -2.118   0.732   3.768  0.00  0.00    -0.065 C 
ATOM      7  H7  <0> d          -2.688   1.014   2.883  0.00  0.00     0.033 H 
ATOM      8  H8  <0> d          -1.949  -0.345   3.763  0.00  0.00     0.033 H 
BRANCH   6   9
ATOM      9  C2  <0> d          -2.902   1.119   5.024  0.00  0.00    -0.069 C 
ATOM     10  H5  <0> d          -2.332   0.837   5.909  0.00  0.00     0.032 H 
ATOM     11  H6  <0> d          -3.071   2.196   5.029  0.00  0.00     0.032 H 
BRANCH   9  12
ATOM     12  C1  <0> d          -4.248   0.391   5.030  0.00  0.00    -0.077 C 
ATOM     13  H2  <0> d          -4.817   0.673   4.145  0.00  0.00     0.027 H 
ATOM     14  H3  <0> d          -4.078  -0.686   5.025  0.00  0.00     0.027 H 
ATOM     15  H4  <0> d          -4.806   0.667   5.925  0.00  0.00     0.027 H 
ENDBRANCH   9  12
ENDBRANCH   6   9
ENDBRANCH   3   6
ENDBRANCH   1   3
BRANCH   1  16
ATOM     16  C6  <0> d          -0.729   1.579   1.267  0.00  0.00    -0.057 C 
ATOM     17  H11 <0> d          -0.744   2.669   1.273  0.00  0.00     0.033 H 
ATOM     18  H12 <0> d          -1.751   1.202   1.275  0.00  0.00     0.033 H 
BRANCH  16  19
ATOM     19  C7  <0> d          -0.013   1.086   0.008  0.00  0.00    -0.076 C 
ATOM     20  H13 <0> d           0.002  -0.004   0.002  0.00  0.00     0.027 H 
ATOM     21  H14 <0> d           1.010   1.463   0.000  0.00  0.00     0.027 H 
ATOM     22  H15 <0> d          -0.540   1.447  -0.875  0.00  0.00     0.027 H 
ENDBRANCH  16  19
ENDBRANCH   1  16
BRANCH   1  23
ATOM     23  C8  <0> d           1.384   1.692   2.560  0.00  0.00     0.262 C 
ATOM     24  O1  <0> d           1.703   2.373   3.506  0.00  0.00    -0.265 OA
BRANCH  23  25
ATOM     25  O2  <0> d           2.252   1.486   1.557  0.00  0.00    -0.326 OA
BRANCH  25  26
ATOM     26  C9  <0> d           3.557   2.114   1.676  0.00  0.00     0.013 C 
ATOM     27  H16 <0> d           3.435   3.195   1.742  0.00  0.00     0.067 H 
ATOM     28  H17 <0> d           4.055   1.749   2.574  0.00  0.00     0.067 H 
ATOM     29  H18 <0> d           4.159   1.868   0.801  0.00  0.00     0.067 H 
ENDBRANCH  25  26
ENDBRANCH  23  25
ENDBRANCH   1  23
TORSDOF 9
