REMARK  6 active torsions:
REMARK  status: ('A' for Active; 'I' for Inactive)
REMARK    1  A    between atoms: C1_1  and  C2_2 
REMARK    2  A    between atoms: C1_1  and  O4_10 
REMARK    3  A    between atoms: C2_2  and  C3_4 
REMARK    4  A    between atoms: C2_2  and  O3_9 
REMARK    5  A    between atoms: C3_4  and  C4_6 
REMARK    6  A    between atoms: C3_4  and  O2_8 
ROOT
ATOM      1  C2  <0> d          -1.483   2.728  -1.284  0.00  0.00     0.090 C 
ATOM      2  H1  <0> d          -1.458   2.041  -2.129  0.00  0.00     0.091 H 
ENDROOT
BRANCH   1   3
ATOM      3  C1  <0> d          -2.818   3.475  -1.273  0.00  0.00     0.043 C 
ATOM      4  H3  <0> d          -3.629   2.768  -1.095  0.00  0.00     0.078 H 
ATOM      5  H4  <0> d          -2.809   4.224  -0.482  0.00  0.00     0.078 H 
BRANCH   3   6
ATOM      6  O4  <0> d          -3.015   4.116  -2.535  0.00  0.00    -0.398 OA
ATOM      7  H7  <0> d          -3.844   4.610  -2.600  0.00  0.00     0.209 HD
ENDBRANCH   3   6
ENDBRANCH   1   3
BRANCH   1   8
ATOM      8  C3  <0> d          -1.329   1.940   0.019  0.00  0.00     0.145 C 
ATOM      9  H2  <0> d          -1.355   2.627   0.865  0.00  0.00     0.104 H 
BRANCH   8  10
ATOM     10  C4  <0> d          -0.014   1.204   0.009  0.00  0.00     0.205 C 
ATOM     11  O1  <0> d           0.002  -0.004   0.002  0.00  0.00    -0.646 OA
ATOM     12  O5  <0> d           1.139   1.891   0.001  0.00  0.00    -0.646 OA
ENDBRANCH   8  10
BRANCH   8  13
ATOM     13  O2  <0> d          -2.400   1.000   0.136  0.00  0.00    -0.382 OA
ATOM     14  H5  <0> d          -2.439   0.356  -0.584  0.00  0.00     0.210 HD
ENDBRANCH   8  13
ENDBRANCH   1   8
BRANCH   1  15
ATOM     15  O3  <0> d          -0.413   3.667  -1.401  0.00  0.00    -0.390 OA
ATOM     16  H6  <0> d          -0.374   4.311  -0.680  0.00  0.00     0.210 HD
ENDBRANCH   1  15
TORSDOF 6
