REMARK  0 active torsions:
REMARK  status: ('A' for Active; 'I' for Inactive)
ROOT
ATOM      1  C1  <0> d          -0.017   1.384   0.010  0.00  0.00    -0.018 A 
ATOM      2  C2  <0> d           1.171   2.088   0.002  0.00  0.00     0.121 A 
ATOM      3  C3  <0> d           2.387   1.415  -0.013  0.00  0.00    -0.006 A 
ATOM      4  C4  <0> d           2.424   0.037  -0.021  0.00  0.00     0.150 A 
ATOM      5  C5  <0> d           1.228  -0.689  -0.013  0.00  0.00     0.123 A 
ATOM      6  C6  <0> d           0.002  -0.004   0.002  0.00  0.00     0.068 A 
ATOM      7  N1  <0> d          -0.978  -0.977   0.006  0.00  0.00    -0.349 N 
ATOM      8  H1  <0> d          -1.936  -0.827   0.015  0.00  0.00     0.167 HD
ATOM      9  C7  <0> d          -0.350  -2.184  -0.007  0.00  0.00     0.065 A 
ATOM     10  N2  <0> d           0.940  -2.017  -0.017  0.00  0.00    -0.239 NA
ATOM     11  F1  <0> d           3.610  -0.609  -0.036  0.00  0.00    -0.203 F 
ATOM     12  F2  <0> d           1.151   3.438   0.009  0.00  0.00    -0.206 F 
ATOM     13  H2  <0> d          -0.959   1.913   0.026  0.00  0.00     0.091 H 
ATOM     14  H3  <0> d           3.310   1.976  -0.019  0.00  0.00     0.093 H 
ATOM     15  H4  <0> d          -0.849  -3.142  -0.007  0.00  0.00     0.143 H 
ENDROOT
TORSDOF 0
