REMARK  3 active torsions:
REMARK  status: ('A' for Active; 'I' for Inactive)
REMARK    1  A    between atoms: C2_2  and  C3_3 
REMARK    2  A    between atoms: C4_4  and  C5_5 
REMARK    3  A    between atoms: C5_5  and  O1_11 
ROOT
ATOM      1  C5  <0> d          -3.501  -2.091   0.024  0.00  0.00     0.121 C 
ATOM      2  C6  <0> d          -4.297  -1.739   1.283  0.00  0.00    -0.026 C 
ATOM      3  C7  <0> d          -3.478  -2.104   2.523  0.00  0.00    -0.061 C 
ATOM      4  C8  <0> d          -3.178  -3.605   2.512  0.00  0.00    -0.065 C 
ATOM      5  C9  <0> d          -2.382  -3.957   1.253  0.00  0.00    -0.061 C 
ATOM      6  C10 <0> d          -3.201  -3.591   0.013  0.00  0.00    -0.026 C 
ATOM      7  H4  <0> d          -4.510  -0.670   1.291  0.00  0.00     0.038 H 
ATOM      8  H5  <0> d          -5.233  -2.297   1.289  0.00  0.00     0.038 H 
ATOM      9  H6  <0> d          -2.541  -1.546   2.517  0.00  0.00     0.033 H 
ATOM     10  H7  <0> d          -4.044  -1.854   3.419  0.00  0.00     0.033 H 
ATOM     11  H8  <0> d          -2.594  -3.865   3.395  0.00  0.00     0.033 H 
ATOM     12  H9  <0> d          -4.114  -4.162   2.518  0.00  0.00     0.033 H 
ATOM     13  H10 <0> d          -1.446  -3.399   1.247  0.00  0.00     0.033 H 
ATOM     14  H11 <0> d          -2.169  -5.025   1.245  0.00  0.00     0.033 H 
ATOM     15  H12 <0> d          -4.138  -4.149   0.019  0.00  0.00     0.038 H 
ATOM     16  H13 <0> d          -2.635  -3.842  -0.883  0.00  0.00     0.038 H 
ENDROOT
BRANCH   1  17
ATOM     17  C4  <0> d          -2.237  -1.338   0.016  0.00  0.00    -0.064 C 
ATOM     18  C3  <0> d          -1.228  -0.737   0.010  0.00  0.00    -0.076 C 
BRANCH  18  19
ATOM     19  C2  <0> d           0.002  -0.004   0.002  0.00  0.00    -0.042 C 
ATOM     20  C1  <0> d          -0.016   1.325   0.009  0.00  0.00    -0.114 C 
ATOM     21  H1  <0> d           0.912   1.877   0.003  0.00  0.00     0.067 H 
ATOM     22  H2  <0> d          -0.959   1.852   0.017  0.00  0.00     0.067 H 
ATOM     23  H3  <0> d           0.945  -0.531  -0.010  0.00  0.00     0.096 H 
ENDBRANCH  18  19
ENDBRANCH   1  17
BRANCH   1  24
ATOM     24  O1  <0> d          -4.266  -1.750  -1.133  0.00  0.00    -0.378 OA
ATOM     25  H14 <0> d          -4.494  -0.812  -1.192  0.00  0.00     0.211 HD
ENDBRANCH   1  24
TORSDOF 3
