REMARK  4 active torsions:
REMARK  status: ('A' for Active; 'I' for Inactive)
REMARK    1  A    between atoms: C1_1  and  C2_2 
REMARK       I    between atoms: C2_2  and  N1_4 
REMARK    2  A    between atoms: N1_4  and  C3_5 
REMARK    3  A    between atoms: C3_5  and  C4_6 
REMARK    4  A    between atoms: C4_6  and  C5_7 
ROOT
ATOM      1  C3  <0> d          -2.479   0.930   0.019  0.00  0.00     0.004 C 
ATOM      2  H5  <0> d          -2.417   0.309  -0.875  0.00  0.00     0.064 H 
ATOM      3  H6  <0> d          -2.408   0.299   0.905  0.00  0.00     0.064 H 
ENDROOT
BRANCH   1   4
ATOM      4  N1  <0> d          -3.757   1.645   0.029  0.00  0.00    -0.361 N 
ATOM      5  C2  <0> d          -4.915   0.955   0.031  0.00  0.00     0.213 C 
ATOM      6  O1  <0> d          -4.899  -0.257   0.024  0.00  0.00    -0.274 OA
ATOM      7  H4  <0> d          -3.771   2.615   0.034  0.00  0.00     0.162 HD
BRANCH   5   8
ATOM      8  C1  <0> d          -6.231   1.691   0.041  0.00  0.00    -0.003 C 
ATOM      9  H1  <0> d          -6.301   2.322  -0.846  0.00  0.00     0.040 H 
ATOM     10  H2  <0> d          -7.049   0.972   0.041  0.00  0.00     0.040 H 
ATOM     11  H3  <0> d          -6.293   2.312   0.934  0.00  0.00     0.040 H 
ENDBRANCH   5   8
ENDBRANCH   1   4
BRANCH   1  12
ATOM     12  C4  <0> d          -1.329   1.940   0.019  0.00  0.00     0.030 C 
ATOM     13  H7  <0> d          -1.391   2.561   0.913  0.00  0.00     0.051 H 
ATOM     14  H8  <0> d          -1.400   2.570  -0.867  0.00  0.00     0.051 H 
BRANCH  12  15
ATOM     15  C5  <0> d          -0.014   1.204   0.009  0.00  0.00     0.174 C 
ATOM     16  O2  <0> d           0.002  -0.004   0.002  0.00  0.00    -0.648 OA
ATOM     17  O3  <0> d           1.139   1.891   0.001  0.00  0.00    -0.648 OA
ENDBRANCH  12  15
ENDBRANCH   1  12
TORSDOF 4
