REMARK  0 active torsions:
REMARK  status: ('A' for Active; 'I' for Inactive)
ROOT
ATOM      1  C1  <0> d          -2.290   1.434   0.800  0.00  0.00    -0.061 C 
ATOM      2  C2  <0> d          -2.306   1.399  -0.739  0.00  0.00    -0.055 C 
ATOM      3  C3  <0> d          -0.842   1.639  -1.185  0.00  0.00     0.004 C 
ATOM      4  H1  <0> d          -0.690   1.209  -2.075  0.00  0.00     0.051 H 
ATOM      5  C4  <0> d          -0.013   1.086   0.008  0.00  0.00    -0.052 C 
ATOM      6  C5  <0> d          -0.816   1.625   1.219  0.00  0.00    -0.053 C 
ATOM      7  H2  <0> d          -0.581   1.086   2.137  0.00  0.00     0.040 H 
ATOM      8  C6  <0> d          -0.528   3.127   1.337  0.00  0.00    -0.056 C 
ATOM      9  C7  <0> d          -1.085   3.862   0.116  0.00  0.00    -0.009 C 
ATOM     10  C8  <0> d          -0.639   3.151  -1.145  0.00  0.00     0.131 C 
ATOM     11  O1  <0> d          -0.146   3.750  -2.071  0.00  0.00    -0.298 OA
ATOM     12  H3  <0> d          -2.892   2.268   1.161  0.00  0.00     0.033 H 
ATOM     13  H4  <0> d          -2.675   0.496   1.199  0.00  0.00     0.033 H 
ATOM     14  H5  <0> d          -2.951   2.188  -1.126  0.00  0.00     0.034 H 
ATOM     15  H6  <0> d          -2.651   0.427  -1.090  0.00  0.00     0.034 H 
ATOM     16  H7  <0> d           0.002  -0.004   0.002  0.00  0.00     0.034 H 
ATOM     17  H8  <0> d           1.000   1.488   0.001  0.00  0.00     0.034 H 
ATOM     18  H9  <0> d          -0.999   3.516   2.240  0.00  0.00     0.034 H 
ATOM     19  H10 <0> d           0.548   3.285   1.393  0.00  0.00     0.034 H 
ATOM     20  H11 <0> d          -2.084   3.871   0.159  0.00  0.00     0.044 H 
ATOM     21  H12 <0> d          -0.713   4.886   0.107  0.00  0.00     0.044 H 
ENDROOT
TORSDOF 0
