REMARK  7 active torsions:
REMARK  status: ('A' for Active; 'I' for Inactive)
REMARK    1  A    between atoms: C1_1  and  C2_2 
REMARK    2  A    between atoms: C2_2  and  C3_3 
REMARK    3  A    between atoms: C3_3  and  C4_4 
REMARK    4  A    between atoms: C4_4  and  C5_5 
REMARK    5  A    between atoms: C5_5  and  O1_6 
REMARK    6  A    between atoms: O1_6  and  C6_7 
REMARK    7  A    between atoms: C6_7  and  C7_9 
ROOT
ATOM      1  C7  <0> d          -1.329   1.940   0.019  0.00  0.00     0.095 C 
ATOM      2  C8  <0> d          -2.435   0.968   0.019  0.00  0.00     0.069 C 
ATOM      3  N1  <0> d          -3.289   0.218   0.019  0.00  0.00    -0.197 NA
ATOM      4  H12 <0> d          -1.391   2.561   0.913  0.00  0.00     0.070 H 
ATOM      5  H13 <0> d          -1.400   2.570  -0.867  0.00  0.00     0.070 H 
ENDROOT
BRANCH   1   6
ATOM      6  C6  <0> d          -0.014   1.204   0.009  0.00  0.00     0.271 C 
ATOM      7  O2  <0> d           0.002  -0.004   0.002  0.00  0.00    -0.264 OA
BRANCH   6   8
ATOM      8  O1  <0> d           1.139   1.891   0.001  0.00  0.00    -0.321 OA
BRANCH   8   9
ATOM      9  C5  <0> d           2.367   1.117  -0.015  0.00  0.00     0.029 C 
ATOM     10  H10 <0> d           2.409   0.484   0.872  0.00  0.00     0.075 H 
ATOM     11  H11 <0> d           2.392   0.493  -0.908  0.00  0.00     0.075 H 
BRANCH   9  12
ATOM     12  C4  <0> d           3.568   2.065  -0.021  0.00  0.00    -0.045 C 
ATOM     13  H8  <0> d           3.526   2.698  -0.907  0.00  0.00     0.036 H 
ATOM     14  H9  <0> d           3.543   2.689   0.873  0.00  0.00     0.036 H 
BRANCH  12  15
ATOM     15  C3  <0> d           4.862   1.250  -0.038  0.00  0.00    -0.064 C 
ATOM     16  H6  <0> d           4.904   0.616   0.849  0.00  0.00     0.033 H 
ATOM     17  H7  <0> d           4.887   0.626  -0.931  0.00  0.00     0.033 H 
BRANCH  15  18
ATOM     18  C2  <0> d           6.063   2.198  -0.044  0.00  0.00    -0.068 C 
ATOM     19  H4  <0> d           6.021   2.831  -0.930  0.00  0.00     0.032 H 
ATOM     20  H5  <0> d           6.038   2.822   0.850  0.00  0.00     0.032 H 
BRANCH  18  21
ATOM     21  C1  <0> d           7.357   1.382  -0.061  0.00  0.00    -0.077 C 
ATOM     22  H1  <0> d           7.399   0.749   0.826  0.00  0.00     0.027 H 
ATOM     23  H2  <0> d           7.382   0.758  -0.954  0.00  0.00     0.027 H 
ATOM     24  H3  <0> d           8.212   2.058  -0.065  0.00  0.00     0.027 H 
ENDBRANCH  18  21
ENDBRANCH  15  18
ENDBRANCH  12  15
ENDBRANCH   9  12
ENDBRANCH   8   9
ENDBRANCH   6   8
ENDBRANCH   1   6
TORSDOF 7
