REMARK  2 active torsions:
REMARK  status: ('A' for Active; 'I' for Inactive)
REMARK    1  A    between atoms: C1_1  and  N4_5 
REMARK    2  A    between atoms: N4_5  and  C2_6 
ROOT
ATOM      1  N4  <0> d          -0.011   0.966   0.007  0.00  0.00    -0.009 N 
ATOM      2  H1  <0> d          -0.011  -0.004  -0.007  0.00  0.00     0.203 HD
ENDROOT
BRANCH   1   3
ATOM      3  C1  <0> d           1.189   1.659   0.008  0.00  0.00     0.780 A 
ATOM      4  N3  <0> d           1.338   2.962  -0.075  0.00  0.00     0.067 NA
ATOM      5  N2  <0> d           2.583   3.276  -0.046  0.00  0.00    -0.006 NA
ATOM      6  N1  <0> d           3.309   2.216   0.057  0.00  0.00    -0.006 NA
ATOM      7  N8  <0> d           2.421   1.148   0.099  0.00  0.00     0.067 NA
ENDBRANCH   1   3
BRANCH   1   8
ATOM      8  C2  <0> d          -1.211   1.659   0.022  0.00  0.00     0.780 A 
ATOM      9  N7  <0> d          -2.414   1.136   0.117  0.00  0.00     0.067 NA
ATOM     10  N6  <0> d          -3.308   2.057   0.101  0.00  0.00    -0.006 NA
ATOM     11  N5  <0> d          -2.754   3.216  -0.004  0.00  0.00    -0.006 NA
ATOM     12  N9  <0> d          -1.386   2.982  -0.052  0.00  0.00     0.067 NA
ENDBRANCH   1   8
TORSDOF 2
