REMARK  1 active torsions:
REMARK  status: ('A' for Active; 'I' for Inactive)
REMARK    1  A    between atoms: C5_6  and  O1_9 
ROOT
ATOM      1  C1  <0> d           3.429   1.769  -1.270  0.00  0.00    -0.063 C 
ATOM      2  C2  <0> d           3.287   3.292  -1.261  0.00  0.00    -0.062 C 
ATOM      3  C3  <0> d           2.534   3.726  -0.002  0.00  0.00    -0.034 C 
ATOM      4  C4  <0> d           1.145   3.085   0.008  0.00  0.00     0.103 C 
ATOM      5  H1  <0> d           0.608   3.395   0.904  0.00  0.00     0.095 H 
ATOM      6  C5  <0> d           1.286   1.562  -0.002  0.00  0.00     0.065 C 
ATOM      7  H2  <0> d           1.840   1.243   0.881  0.00  0.00     0.087 H 
ATOM      8  C6  <0> d           2.040   1.127  -1.261  0.00  0.00    -0.038 C 
ATOM      9  F1  <0> d           0.434   3.495  -1.126  0.00  0.00    -0.247 F 
ATOM     10  H3  <0> d           3.966   1.459  -2.167  0.00  0.00     0.033 H 
ATOM     11  H4  <0> d           3.982   1.450  -0.388  0.00  0.00     0.033 H 
ATOM     12  H5  <0> d           2.734   3.611  -2.144  0.00  0.00     0.033 H 
ATOM     13  H6  <0> d           4.277   3.749  -1.268  0.00  0.00     0.033 H 
ATOM     14  H7  <0> d           2.433   4.812   0.005  0.00  0.00     0.037 H 
ATOM     15  H8  <0> d           3.088   3.407   0.881  0.00  0.00     0.037 H 
ATOM     16  H9  <0> d           2.140   0.042  -1.268  0.00  0.00     0.036 H 
ATOM     17  H10 <0> d           1.486   1.446  -2.144  0.00  0.00     0.036 H 
ENDROOT
BRANCH   6  18
ATOM     18  O1  <0> d          -0.011   0.963   0.007  0.00  0.00    -0.393 OA
ATOM     19  H11 <0> d           0.002  -0.004   0.002  0.00  0.00     0.210 HD
ENDBRANCH   6  18
TORSDOF 1
