REMARK  2 active torsions:
REMARK  status: ('A' for Active; 'I' for Inactive)
REMARK    1  A    between atoms: C1_1  and  N1_2 
REMARK    2  A    between atoms: C2_3  and  C3_7 
ROOT
ATOM      1  N1  <0> d          -0.698   1.558   1.213  0.00  0.00    -0.233 N 
ATOM      2  C2  <0> d          -2.029   1.821   1.362  0.00  0.00     0.204 A 
ATOM      3  N2  <0> d          -2.203   2.219   2.607  0.00  0.00    -0.106 NA
ATOM      4  N3  <0> d          -1.084   2.230   3.236  0.00  0.00    -0.023 NA
ATOM      5  N4  <0> d          -0.127   1.845   2.465  0.00  0.00    -0.044 NA
ENDROOT
BRANCH   2   6
ATOM      6  C3  <0> d          -3.070   1.684   0.330  0.00  0.00     0.124 A 
ATOM      7  O1  <0> d          -2.860   1.551  -0.994  0.00  0.00    -0.319 OA
ATOM      8  C6  <0> d          -4.040   1.451  -1.626  0.00  0.00     0.019 A 
ATOM      9  C5  <0> d          -5.027   1.520  -0.710  0.00  0.00    -0.059 A 
ATOM     10  H6  <0> d          -4.176   1.335  -2.691  0.00  0.00     0.123 H 
ATOM     11  C4  <0> d          -4.414   1.663   0.549  0.00  0.00    -0.045 A 
ATOM     12  H5  <0> d          -6.088   1.469  -0.905  0.00  0.00     0.086 H 
ATOM     13  H4  <0> d          -4.913   1.743   1.503  0.00  0.00     0.088 H 
ENDBRANCH   2   6
BRANCH   1  14
ATOM     14  C1  <0> d          -0.013   1.086   0.008  0.00  0.00     0.006 C 
ATOM     15  H1  <0> d           0.002  -0.004   0.002  0.00  0.00     0.059 H 
ATOM     16  H2  <0> d           1.010   1.463   0.000  0.00  0.00     0.059 H 
ATOM     17  H3  <0> d          -0.540   1.447  -0.875  0.00  0.00     0.059 H 
ENDBRANCH   1  14
TORSDOF 2
