REMARK  2 active torsions:
REMARK  status: ('A' for Active; 'I' for Inactive)
REMARK    1  A    between atoms: C1_1  and  C2_2 
REMARK    2  A    between atoms: C5_5  and  N2_8 
ROOT
ATOM      1  C2  <0> d           1.157   2.048   0.002  0.00  0.00    -0.043 A 
ATOM      2  C3  <0> d           2.373   1.387  -0.013  0.00  0.00    -0.052 A 
ATOM      3  C4  <0> d           2.370  -0.012  -0.021  0.00  0.00     0.090 A 
ATOM      4  C5  <0> d           1.137  -0.686  -0.013  0.00  0.00     0.141 A 
ATOM      5  N1  <0> d           0.002  -0.004   0.002  0.00  0.00    -0.242 NA
ATOM      6  C6  <0> d          -0.016   1.315   0.009  0.00  0.00     0.010 A 
ATOM      7  C7  <0> d           3.601  -0.744  -0.037  0.00  0.00     0.103 C 
ATOM      8  N3  <0> d           4.577  -1.324  -0.050  0.00  0.00    -0.191 NA
ATOM      9  H4  <0> d           3.302   1.939  -0.019  0.00  0.00     0.086 H 
ATOM     10  H5  <0> d          -0.964   1.832   0.017  0.00  0.00     0.115 H 
ENDROOT
BRANCH   4  11
ATOM     11  N2  <0> d           1.108  -2.070  -0.020  0.00  0.00    -0.383 N 
ATOM     12  H6  <0> d           0.144  -2.600  -0.014  0.00  0.00     0.157 HD
ATOM     13  H7  <0> d           2.049  -2.639  -0.033  0.00  0.00     0.157 HD
ENDBRANCH   4  11
BRANCH   1  14
ATOM     14  C1  <0> d           1.111   3.554   0.010  0.00  0.00    -0.050 C 
ATOM     15  H1  <0> d           2.136   3.952   0.003  0.00  0.00     0.033 H 
ATOM     16  H2  <0> d           0.590   3.900   0.915  0.00  0.00     0.033 H 
ATOM     17  H3  <0> d           0.573   3.909  -0.881  0.00  0.00     0.033 H 
ENDBRANCH   1  14
TORSDOF 2
