REMARK  3 active torsions:
REMARK  status: ('A' for Active; 'I' for Inactive)
REMARK    1  A    between atoms: C1_1  and  N1_2 
REMARK    2  A    between atoms: N1_2  and  S1_3 
REMARK    3  A    between atoms: S1_3  and  C2_4 
ROOT
ATOM      1  S1  <0> d          -0.952   2.087  -1.333  0.00  0.00    -0.015 SA
ENDROOT
BRANCH   1   2
ATOM      2  N1  <0> d          -0.018   1.465   0.010  0.00  0.00    -0.266 NA
ATOM      3  H4  <0> d           0.919   1.839   0.003  0.00  0.00     0.135 HD
BRANCH   2   4
ATOM      4  C1  <0> d           0.002  -0.004   0.002  0.00  0.00    -0.026 C 
ATOM      5  H1  <0> d           0.449  -0.356  -0.927  0.00  0.00     0.049 H 
ATOM      6  H2  <0> d           0.589  -0.364   0.847  0.00  0.00     0.049 H 
ATOM      7  H3  <0> d          -1.017  -0.382   0.081  0.00  0.00     0.049 H 
ENDBRANCH   2   4
ENDBRANCH   1   2
BRANCH   1   8
ATOM      8  C2  <0> d          -0.785   3.817  -1.046  0.00  0.00     0.172 A 
ATOM      9  S2  <0> d          -1.809   4.931  -0.089  0.00  0.00    -0.051 SA
ATOM     10  C3  <0> d          -0.839   6.402  -0.408  0.00  0.00     0.064 A 
ATOM     11  N3  <0> d           0.102   5.894  -1.177  0.00  0.00    -0.154 NA
ATOM     12  H5  <0> d          -0.987   7.417  -0.070  0.00  0.00     0.129 H 
ATOM     13  N2  <0> d           0.133   4.670  -1.483  0.00  0.00    -0.134 NA
ENDBRANCH   1   8
TORSDOF 3
