REMARK  0 active torsions:
REMARK  status: ('A' for Active; 'I' for Inactive)
ROOT
ATOM      1  C1  <0> d          -1.133  -2.073   0.437  0.00  0.00    -0.082 A 
ATOM      2  C2  <0> d          -0.025  -2.779   0.004  0.00  0.00    -0.081 A 
ATOM      3  C3  <0> d           1.097  -2.102  -0.429  0.00  0.00    -0.057 A 
ATOM      4  C4  <0> d           1.114  -0.711  -0.429  0.00  0.00     0.034 A 
ATOM      5  C5  <0> d           0.002  -0.004   0.002  0.00  0.00    -0.032 A 
ATOM      6  C6  <0> d          -1.119  -0.692   0.435  0.00  0.00    -0.075 A 
ATOM      7  C7  <0> d          -0.018   1.502   0.010  0.00  0.00    -0.037 C 
ATOM      8  C8  <0> d           1.406   2.056  -0.000  0.00  0.00    -0.047 C 
ATOM      9  C9  <0> d           2.186   1.397  -1.145  0.00  0.00    -0.007 C 
ATOM     10  N1  <0> d           2.264  -0.043  -0.864  0.00  0.00    -0.389 N 
ATOM     11  H1  <0> d          -2.010  -2.603   0.777  0.00  0.00     0.083 H 
ATOM     12  H2  <0> d          -0.038  -3.859   0.005  0.00  0.00     0.083 H 
ATOM     13  H3  <0> d           1.963  -2.652  -0.767  0.00  0.00     0.086 H 
ATOM     14  H4  <0> d          -1.987  -0.145   0.774  0.00  0.00     0.084 H 
ATOM     15  H5  <0> d          -0.551   1.860  -0.871  0.00  0.00     0.040 H 
ATOM     16  H6  <0> d          -0.534   1.850   0.905  0.00  0.00     0.040 H 
ATOM     17  H7  <0> d           1.377   3.135  -0.153  0.00  0.00     0.035 H 
ATOM     18  H8  <0> d           1.892   1.833   0.949  0.00  0.00     0.035 H 
ATOM     19  H9  <0> d           3.191   1.817  -1.198  0.00  0.00     0.064 H 
ATOM     20  H10 <0> d           1.667   1.561  -2.089  0.00  0.00     0.064 H 
ATOM     21  H11 <0> d           3.099  -0.524  -0.977  0.00  0.00     0.159 HD
ENDROOT
TORSDOF 0
