REMARK  4 active torsions:
REMARK  status: ('A' for Active; 'I' for Inactive)
REMARK    1  A    between atoms: C1_1  and  C2_2 
REMARK    2  A    between atoms: C2_2  and  C3_4 
REMARK    3  A    between atoms: C2_2  and  O2_11 
REMARK    4  A    between atoms: C3_4  and  N1_5 
ROOT
ATOM      1  N1  <0> d           2.110   1.142  -1.212  0.00  0.00     0.095 N 
ATOM      2  C4  <0> d           2.283  -0.318  -1.181  0.00  0.00     0.133 C 
ATOM      3  C5  <0> d           2.948  -0.775  -2.482  0.00  0.00     0.044 C 
ATOM      4  O1  <0> d           4.191  -0.085  -2.644  0.00  0.00    -0.388 OA
ATOM      5  C6  <0> d           4.059   1.338  -2.679  0.00  0.00     0.044 C 
ATOM      6  C7  <0> d           3.406   1.816  -1.379  0.00  0.00     0.133 C 
ATOM      7  H7  <0> d           2.918  -0.594  -0.326  0.00  0.00     0.083 H 
ATOM      8  H8  <0> d           1.300  -0.802  -1.080  0.00  0.00     0.083 H 
ATOM      9  H9  <0> d           3.131  -1.859  -2.440  0.00  0.00     0.077 H 
ATOM     10  H10 <0> d           2.287  -0.547  -3.332  0.00  0.00     0.077 H 
ATOM     11  H11 <0> d           5.054   1.796  -2.781  0.00  0.00     0.077 H 
ATOM     12  H12 <0> d           3.433   1.628  -3.535  0.00  0.00     0.077 H 
ATOM     13  H13 <0> d           3.249   2.904  -1.424  0.00  0.00     0.083 H 
ATOM     14  H14 <0> d           4.058   1.574  -0.528  0.00  0.00     0.083 H 
ENDROOT
BRANCH   1  15
ATOM     15  C3  <0> d           1.423   1.615  -0.003  0.00  0.00     0.136 C 
ATOM     16  H5  <0> d           1.408   2.715   0.003  0.00  0.00     0.083 H 
ATOM     17  H6  <0> d           1.955   1.251   0.888  0.00  0.00     0.083 H 
BRANCH  15  18
ATOM     18  C2  <0> d          -0.013   1.086   0.008  0.00  0.00     0.058 C 
ATOM     19  H1  <0> d          -0.033  -0.012  -0.058  0.00  0.00     0.085 H 
BRANCH  18  20
ATOM     20  C1  <0> d          -0.729   1.579   1.267  0.00  0.00    -0.051 C 
ATOM     21  H2  <0> d          -1.761   1.198   1.275  0.00  0.00     0.030 H 
ATOM     22  H3  <0> d          -0.744   2.679   1.273  0.00  0.00     0.030 H 
ATOM     23  H4  <0> d          -0.197   1.215   2.158  0.00  0.00     0.030 H 
ENDBRANCH  18  20
BRANCH  18  24
ATOM     24  O2  <0> d          -0.704   1.559  -1.150  0.00  0.00    -0.394 OA
ATOM     25  H15 <0> d          -0.334   1.304  -2.154  0.00  0.00     0.210 HD
ENDBRANCH  18  24
ENDBRANCH  15  18
ENDBRANCH   1  15
TORSDOF 4
