REMARK  3 active torsions:
REMARK  status: ('A' for Active; 'I' for Inactive)
REMARK    1  A    between atoms: C4_4  and  C7_7 
REMARK    2  A    between atoms: C7_7  and  C8_8 
REMARK    3  A    between atoms: C8_8  and  O1_9 
ROOT
ATOM      1  C1  <0> d          -0.739   1.585   1.264  0.00  0.00    -0.062 C 
ATOM      2  C2  <0> d          -0.013   1.086   0.008  0.00  0.00    -0.061 C 
ATOM      3  C3  <0> d          -0.761   1.597  -1.225  0.00  0.00    -0.045 C 
ATOM      4  C4  <0> d          -1.020   3.070  -1.099  0.00  0.00    -0.082 C 
ATOM      5  C5  <0> d          -0.952   3.725   0.015  0.00  0.00    -0.101 C 
ATOM      6  C6  <0> d          -0.595   3.106   1.335  0.00  0.00    -0.050 C 
ATOM      7  H1  <0> d          -1.796   1.323   1.204  0.00  0.00     0.033 H 
ATOM      8  H2  <0> d          -0.295   1.130   2.149  0.00  0.00     0.033 H 
ATOM      9  H3  <0> d           0.002  -0.004   0.002  0.00  0.00     0.033 H 
ATOM     10  H4  <0> d           1.009   1.466   0.000  0.00  0.00     0.033 H 
ATOM     11  H5  <0> d          -0.160   1.411  -2.115  0.00  0.00     0.039 H 
ATOM     12  H6  <0> d          -1.712   1.071  -1.314  0.00  0.00     0.039 H 
ATOM     13  H7  <0> d          -1.166   4.784  -0.006  0.00  0.00     0.077 H 
ATOM     14  H8  <0> d           0.436   3.356   1.584  0.00  0.00     0.038 H 
ATOM     15  H9  <0> d          -1.258   3.495   2.108  0.00  0.00     0.038 H 
ENDROOT
BRANCH   4  16
ATOM     16  C7  <0> d          -1.382   3.833  -2.347  0.00  0.00    -0.025 C 
ATOM     17  H10 <0> d          -1.983   3.199  -2.999  0.00  0.00     0.042 H 
ATOM     18  H11 <0> d          -1.953   4.721  -2.077  0.00  0.00     0.042 H 
BRANCH  16  19
ATOM     19  C8  <0> d          -0.104   4.251  -3.077  0.00  0.00     0.020 C 
ATOM     20  H12 <0> d           0.496   4.885  -2.425  0.00  0.00     0.074 H 
ATOM     21  H13 <0> d           0.467   3.363  -3.347  0.00  0.00     0.074 H 
BRANCH  19  22
ATOM     22  O1  <0> d          -0.447   4.975  -4.261  0.00  0.00    -0.401 OA
ATOM     23  H14 <0> d           0.316   5.272  -4.775  0.00  0.00     0.209 HD
ENDBRANCH  19  22
ENDBRANCH  16  19
ENDBRANCH   4  16
TORSDOF 3
