REMARK  3 active torsions:
REMARK  status: ('A' for Active; 'I' for Inactive)
REMARK    1  A    between atoms: C1_1  and  C2_2 
REMARK    2  A    between atoms: C6_6  and  C8_8 
REMARK    3  A    between atoms: C8_8  and  C9_10 
ROOT
ATOM      1  C2  <0> d           1.432   0.098   3.942  0.00  0.00    -0.061 A 
ATOM      2  C3  <0> d           0.782   0.546   5.081  0.00  0.00    -0.074 A 
ATOM      3  C4  <0> d          -0.354   1.326   4.976  0.00  0.00    -0.044 A 
ATOM      4  C5  <0> d          -0.851   1.666   3.732  0.00  0.00     0.130 A 
ATOM      5  C6  <0> d          -0.198   1.216   2.576  0.00  0.00     0.048 A 
ATOM      6  C7  <0> d           0.948   0.422   2.694  0.00  0.00    -0.061 A 
ATOM      7  F1  <0> d          -1.961   2.429   3.630  0.00  0.00    -0.205 F 
ATOM      8  H4  <0> d           1.165   0.283   6.056  0.00  0.00     0.084 H 
ATOM      9  H5  <0> d          -0.855   1.671   5.869  0.00  0.00     0.088 H 
ATOM     10  H6  <0> d           1.454   0.068   1.808  0.00  0.00     0.085 H 
ENDROOT
BRANCH   5  11
ATOM     11  C8  <0> d          -0.718   1.572   1.248  0.00  0.00     0.158 C 
ATOM     12  O1  <0> d          -1.714   2.256   1.150  0.00  0.00    -0.293 OA
BRANCH  11  13
ATOM     13  C9  <0> d          -0.013   1.086   0.008  0.00  0.00    -0.016 C 
ATOM     14  H7  <0> d           0.001   0.086   0.003  0.00  0.00     0.038 H 
ATOM     15  H8  <0> d           1.010   1.463   0.000  0.00  0.00     0.038 H 
ATOM     16  H9  <0> d          -0.540   1.447  -0.875  0.00  0.00     0.038 H 
ENDBRANCH  11  13
ENDBRANCH   5  11
BRANCH   1  17
ATOM     17  C1  <0> d           2.669  -0.753   4.070  0.00  0.00    -0.051 C 
ATOM     18  H1  <0> d           2.386  -1.805   4.102  0.00  0.00     0.033 H 
ATOM     19  H2  <0> d           3.320  -0.578   3.214  0.00  0.00     0.033 H 
ATOM     20  H3  <0> d           3.197  -0.491   4.987  0.00  0.00     0.033 H 
ENDBRANCH   1  17
TORSDOF 3
