REMARK  1 active torsions:
REMARK  status: ('A' for Active; 'I' for Inactive)
REMARK    1  A    between atoms: C1_1  and  N1_2 
ROOT
ATOM      1  N1  <0> d          -0.041   5.231   0.030  0.00  0.00    -0.318 N 
ATOM      2  C2  <0> d          -0.016   3.853   0.022  0.00  0.00     0.047 A 
ATOM      3  C3  <0> d           1.189   3.158   0.007  0.00  0.00    -0.056 A 
ATOM      4  C4  <0> d           1.184   1.780   0.000  0.00  0.00    -0.081 A 
ATOM      5  C5  <0> d          -0.013   1.076   0.008  0.00  0.00    -0.082 A 
ATOM      6  C6  <0> d          -1.208   1.736   0.017  0.00  0.00    -0.071 A 
ATOM      7  C7  <0> d          -1.227   3.135   0.031  0.00  0.00    -0.009 A 
ATOM      8  C8  <0> d          -2.490   3.875   0.047  0.00  0.00    -0.066 A 
ATOM      9  C9  <0> d          -2.447   5.230   0.053  0.00  0.00    -0.016 A 
ATOM     10  C10 <0> d          -1.206   5.902   0.044  0.00  0.00     0.247 A 
ATOM     11  O1  <0> d          -1.190   7.121   0.051  0.00  0.00    -0.268 OA
ATOM     12  H4  <0> d           2.125   3.697   0.001  0.00  0.00     0.087 H 
ATOM     13  H5  <0> d           2.120   1.242  -0.011  0.00  0.00     0.083 H 
ATOM     14  H6  <0> d           0.002  -0.004   0.002  0.00  0.00     0.083 H 
ATOM     15  H7  <0> d          -2.135   1.181   0.018  0.00  0.00     0.084 H 
ATOM     16  H8  <0> d          -3.436   3.353   0.053  0.00  0.00     0.085 H 
ATOM     17  H9  <0> d          -3.366   5.798   0.065  0.00  0.00     0.092 H 
ENDROOT
BRANCH   1  18
ATOM     18  C1  <0> d           1.221   5.976   0.021  0.00  0.00    -0.011 C 
ATOM     19  H1  <0> d           1.524   6.166  -1.008  0.00  0.00     0.057 H 
ATOM     20  H2  <0> d           1.087   6.924   0.542  0.00  0.00     0.057 H 
ATOM     21  H3  <0> d           1.991   5.391   0.525  0.00  0.00     0.057 H 
ENDBRANCH   1  18
TORSDOF 1
