REMARK  0 active torsions:
REMARK  status: ('A' for Active; 'I' for Inactive)
ROOT
ATOM      1  C1  <0> d           2.160  -1.281  -2.954  0.00  0.00    -0.082 A 
ATOM      2  C2  <0> d           3.009  -0.192  -3.025  0.00  0.00    -0.082 A 
ATOM      3  C3  <0> d           2.879   0.851  -2.129  0.00  0.00    -0.076 A 
ATOM      4  C4  <0> d           1.902   0.822  -1.152  0.00  0.00    -0.040 A 
ATOM      5  C5  <0> d           1.018  -0.267  -1.114  0.00  0.00    -0.051 A 
ATOM      6  C6  <0> d           1.165  -1.312  -1.994  0.00  0.00    -0.076 A 
ATOM      7  C7  <0> d           0.002  -0.004   0.002  0.00  0.00    -0.036 C 
ATOM      8  C8  <0> d          -0.019   1.517   0.010  0.00  0.00    -0.030 C 
ATOM      9  H1  <0> d          -0.530   1.951  -0.849  0.00  0.00     0.042 H 
ATOM     10  C9  <0> d           1.561   1.682  -0.004  0.00  0.00     0.034 C 
ATOM     11  H2  <0> d           2.203   1.510   0.743  0.00  0.00     0.059 H 
ATOM     12  C10 <0> d           1.179   3.083   0.170  0.00  0.00     0.136 C 
ATOM     13  O1  <0> d           1.491   4.172  -0.248  0.00  0.00    -0.297 OA
ATOM     14  C11 <0> d           0.172   2.459   1.162  0.00  0.00    -0.004 C 
ATOM     15  H3  <0> d           2.273  -2.103  -3.644  0.00  0.00     0.083 H 
ATOM     16  H4  <0> d           3.776  -0.157  -3.784  0.00  0.00     0.083 H 
ATOM     17  H5  <0> d           3.547   1.697  -2.193  0.00  0.00     0.084 H 
ATOM     18  H6  <0> d           0.500  -2.161  -1.935  0.00  0.00     0.084 H 
ATOM     19  H7  <0> d           0.353  -0.399   0.956  0.00  0.00     0.040 H 
ATOM     20  H8  <0> d          -0.977  -0.410  -0.253  0.00  0.00     0.040 H 
ATOM     21  H9  <0> d          -0.708   2.867   1.408  0.00  0.00     0.045 H 
ATOM     22  H10 <0> d           0.624   2.009   2.046  0.00  0.00     0.045 H 
ENDROOT
TORSDOF 0
