REMARK  3 active torsions:
REMARK  status: ('A' for Active; 'I' for Inactive)
REMARK    1  A    between atoms: C1_1  and  C2_2 
REMARK    2  A    between atoms: C2_2  and  O1_3 
REMARK    3  A    between atoms: O1_3  and  C3_4 
ROOT
ATOM      1  C2  <0> d          -0.072   1.435   2.406  0.00  0.00     0.025 C 
ATOM      2  H4  <0> d          -0.058   0.346   2.449  0.00  0.00     0.074 H 
ATOM      3  H5  <0> d           0.949   1.814   2.448  0.00  0.00     0.074 H 
ENDROOT
BRANCH   1   4
ATOM      4  C1  <0> d          -0.868   1.984   3.592  0.00  0.00    -0.056 C 
ATOM      5  H1  <0> d          -1.889   1.605   3.550  0.00  0.00     0.030 H 
ATOM      6  H2  <0> d          -0.400   1.663   4.523  0.00  0.00     0.030 H 
ATOM      7  H3  <0> d          -0.882   3.073   3.548  0.00  0.00     0.030 H 
ENDBRANCH   1   4
BRANCH   1   8
ATOM      8  O1  <0> d          -0.686   1.856   1.185  0.00  0.00    -0.298 OA
BRANCH   8   9
ATOM      9  C3  <0> d          -0.017   1.395   0.010  0.00  0.00     0.524 C 
ATOM     10  F1  <0> d           0.002  -0.004   0.002  0.00  0.00    -0.144 F 
ATOM     11  F2  <0> d           1.296   1.879  -0.000  0.00  0.00    -0.144 F 
ATOM     12  F3  <0> d          -0.694   1.858  -1.124  0.00  0.00    -0.144 F 
ENDBRANCH   8   9
ENDBRANCH   1   8
TORSDOF 3
