REMARK  3 active torsions:
REMARK  status: ('A' for Active; 'I' for Inactive)
REMARK    1  A    between atoms: C1_1  and  C2_2 
REMARK    2  A    between atoms: C2_2  and  C3_4 
REMARK    3  A    between atoms: C2_2  and  O2_7 
REMARK       I    between atoms: C3_4  and  N1_6 
ROOT
ATOM      1  C2  <0> d          -0.013   1.086   0.008  0.00  0.00     0.108 C 
ATOM      2  H1  <0> d           0.002  -0.004   0.002  0.00  0.00     0.097 H 
ENDROOT
BRANCH   1   3
ATOM      3  C1  <0> d          -0.729   1.579   1.267  0.00  0.00    -0.044 C 
ATOM      4  H2  <0> d          -0.744   2.669   1.273  0.00  0.00     0.031 H 
ATOM      5  H3  <0> d          -1.751   1.202   1.275  0.00  0.00     0.031 H 
ATOM      6  H4  <0> d          -0.202   1.218   2.150  0.00  0.00     0.031 H 
ENDBRANCH   1   3
BRANCH   1   7
ATOM      7  C3  <0> d           1.401   1.607  -0.003  0.00  0.00     0.243 C 
ATOM      8  O1  <0> d           1.753   2.387  -0.862  0.00  0.00    -0.271 OA
ATOM      9  N1  <0> d           2.274   1.208   0.943  0.00  0.00    -0.368 N 
ATOM     10  H5  <0> d           1.992   0.584   1.631  0.00  0.00     0.159 HD
ATOM     11  H6  <0> d           3.184   1.543   0.936  0.00  0.00     0.159 HD
ENDBRANCH   1   7
BRANCH   1  12
ATOM     12  O2  <0> d          -0.704   1.559  -1.150  0.00  0.00    -0.387 OA
ATOM     13  H7  <0> d          -0.756   2.523  -1.210  0.00  0.00     0.210 HD
ENDBRANCH   1  12
TORSDOF 3
