REMARK  5 active torsions:
REMARK  status: ('A' for Active; 'I' for Inactive)
REMARK    1  A    between atoms: C1_1  and  C2_2 
REMARK    2  A    between atoms: C2_2  and  C3_3 
REMARK    3  A    between atoms: C2_2  and  C4_4 
REMARK    4  A    between atoms: C2_2  and  C5_5 
REMARK    5  A    between atoms: C8_8  and  N1_11 
ROOT
ATOM      1  C5  <0> d           1.171   2.086   0.002  0.00  0.00    -0.051 A 
ATOM      2  C6  <0> d          -0.017   1.377   0.010  0.00  0.00    -0.074 A 
ATOM      3  C7  <0> d           0.002  -0.004   0.002  0.00  0.00    -0.057 A 
ATOM      4  C8  <0> d           1.215  -0.681  -0.013  0.00  0.00     0.025 A 
ATOM      5  C9  <0> d           2.406   0.035  -0.021  0.00  0.00    -0.057 A 
ATOM      6  C10 <0> d           2.380   1.416  -0.013  0.00  0.00    -0.074 A 
ATOM      7  H10 <0> d          -0.960   1.903   0.017  0.00  0.00     0.084 H 
ATOM      8  H11 <0> d          -0.925  -0.557   0.008  0.00  0.00     0.086 H 
ATOM      9  H12 <0> d           3.351  -0.488  -0.032  0.00  0.00     0.086 H 
ATOM     10  H13 <0> d           3.305   1.973  -0.019  0.00  0.00     0.084 H 
ENDROOT
BRANCH   1  11
ATOM     11  C2  <0> d           1.146   3.593   0.010  0.00  0.00    -0.024 C 
BRANCH  11  12
ATOM     12  C1  <0> d           0.428   4.085   1.268  0.00  0.00    -0.066 C 
ATOM     13  H1  <0> d           0.956   3.725   2.152  0.00  0.00     0.028 H 
ATOM     14  H2  <0> d           0.411   5.175   1.274  0.00  0.00     0.028 H 
ATOM     15  H3  <0> d          -0.593   3.705   1.276  0.00  0.00     0.028 H 
ENDBRANCH  11  12
BRANCH  11  16
ATOM     16  C3  <0> d           2.580   4.126  -0.001  0.00  0.00    -0.066 C 
ATOM     17  H4  <0> d           3.091   3.776  -0.897  0.00  0.00     0.028 H 
ATOM     18  H5  <0> d           2.562   5.216   0.005  0.00  0.00     0.028 H 
ATOM     19  H6  <0> d           3.108   3.767   0.882  0.00  0.00     0.028 H 
ENDBRANCH  11  16
BRANCH  11  20
ATOM     20  C4  <0> d           0.405   4.097  -1.230  0.00  0.00    -0.066 C 
ATOM     21  H7  <0> d          -0.617   3.717  -1.222  0.00  0.00     0.028 H 
ATOM     22  H8  <0> d           0.387   5.187  -1.224  0.00  0.00     0.028 H 
ATOM     23  H9  <0> d           0.916   3.747  -2.126  0.00  0.00     0.028 H 
ENDBRANCH  11  20
ENDBRANCH   1  11
BRANCH   4  24
ATOM     24  N1  <0> d           1.238  -2.077  -0.021  0.00  0.00    -0.399 N 
ATOM     25  H14 <0> d           0.406  -2.576  -0.015  0.00  0.00     0.156 HD
ATOM     26  H15 <0> d           2.086  -2.548  -0.031  0.00  0.00     0.156 HD
ENDBRANCH   4  24
TORSDOF 5
