REMARK  6 active torsions:
REMARK  status: ('A' for Active; 'I' for Inactive)
REMARK    1  A    between atoms: C1_1  and  C2_2 
REMARK    2  A    between atoms: C2_2  and  C3_4 
REMARK    3  A    between atoms: C2_2  and  O2_7 
REMARK    4  A    between atoms: C3_4  and  C4_6 
REMARK    5  A    between atoms: O2_7  and  C5_8 
REMARK    6  A    between atoms: C5_8  and  C6_10 
ROOT
ATOM      1  C2  <0> d          -1.056  -2.140   0.001  0.00  0.00     0.101 C 
ATOM      2  H1  <0> d          -0.223  -2.416  -0.480  0.00  0.00     0.095 H 
ENDROOT
BRANCH   1   3
ATOM      3  C1  <0> d          -1.008  -2.656   1.440  0.00  0.00    -0.045 C 
ATOM      4  H2  <0> d          -0.139  -2.238   1.948  0.00  0.00     0.031 H 
ATOM      5  H3  <0> d          -1.915  -2.355   1.964  0.00  0.00     0.031 H 
ATOM      6  H4  <0> d          -0.936  -3.744   1.433  0.00  0.00     0.031 H 
ENDBRANCH   1   3
BRANCH   1   7
ATOM      7  C3  <0> d          -2.257  -2.718  -0.701  0.00  0.00     0.151 C 
ATOM      8  O1  <0> d          -3.226  -2.028  -0.907  0.00  0.00    -0.296 OA
BRANCH   7   9
ATOM      9  C4  <0> d          -2.248  -4.158  -1.147  0.00  0.00    -0.018 C 
ATOM     10  H5  <0> d          -2.608  -4.736  -0.414  0.00  0.00     0.037 H 
ATOM     11  H6  <0> d          -2.872  -4.267  -2.034  0.00  0.00     0.037 H 
ATOM     12  H7  <0> d          -1.228  -4.460  -1.381  0.00  0.00     0.037 H 
ENDBRANCH   7   9
ENDBRANCH   1   7
BRANCH   1  13
ATOM     13  O2  <0> d          -1.151  -0.691   0.009  0.00  0.00    -0.309 OA
BRANCH  13  14
ATOM     14  C5  <0> d           0.002  -0.004   0.002  0.00  0.00     0.255 C 
ATOM     15  O3  <0> d           1.056  -0.594  -0.011  0.00  0.00    -0.266 OA
BRANCH  14  16
ATOM     16  C6  <0> d          -0.018   1.503   0.010  0.00  0.00     0.004 C 
ATOM     17  H8  <0> d           1.004   1.880   0.003  0.00  0.00     0.041 H 
ATOM     18  H9  <0> d          -0.545   1.864  -0.873  0.00  0.00     0.041 H 
ATOM     19  H10 <0> d          -0.529   1.854   0.907  0.00  0.00     0.041 H 
ENDBRANCH  14  16
ENDBRANCH  13  14
ENDBRANCH   1  13
TORSDOF 6
