REMARK  6 active torsions:
REMARK  status: ('A' for Active; 'I' for Inactive)
REMARK    1  A    between atoms: C1_1  and  C2_2 
REMARK    2  A    between atoms: C2_2  and  C3_3 
REMARK    3  A    between atoms: C3_3  and  C4_4 
REMARK    4  A    between atoms: C3_3  and  C6_6 
REMARK    5  A    between atoms: C4_4  and  C5_5 
REMARK    6  A    between atoms: C7_9  and  N3_11 
ROOT
ATOM      1  C3  <0> d           1.543   3.227  -0.194  0.00  0.00     0.011 C 
ATOM      2  H6  <0> d           0.801   4.024  -0.351  0.00  0.00     0.052 H 
ENDROOT
BRANCH   1   3
ATOM      3  C2  <0> d           2.181   3.378   1.189  0.00  0.00    -0.058 C 
ATOM      4  H4  <0> d           2.761   4.312   1.225  0.00  0.00     0.033 H 
ATOM      5  H5  <0> d           2.849   2.524   1.379  0.00  0.00     0.033 H 
BRANCH   3   6
ATOM      6  C1  <0> d           1.085   3.415   2.256  0.00  0.00    -0.076 C 
ATOM      7  H1  <0> d           1.544   3.523   3.249  0.00  0.00     0.027 H 
ATOM      8  H2  <0> d           0.505   2.481   2.219  0.00  0.00     0.027 H 
ATOM      9  H3  <0> d           0.417   4.269   2.065  0.00  0.00     0.027 H 
ENDBRANCH   3   6
ENDBRANCH   1   3
BRANCH   1  10
ATOM     10  C4  <0> d           2.628   3.308  -1.268  0.00  0.00    -0.058 C 
ATOM     11  H7  <0> d           3.411   2.564  -1.055  0.00  0.00     0.033 H 
ATOM     12  H8  <0> d           2.185   3.101  -2.254  0.00  0.00     0.033 H 
BRANCH  10  13
ATOM     13  C5  <0> d           3.243   4.709  -1.269  0.00  0.00    -0.076 C 
ATOM     14  H9  <0> d           4.023   4.767  -2.042  0.00  0.00     0.027 H 
ATOM     15  H10 <0> d           3.686   4.916  -0.284  0.00  0.00     0.027 H 
ATOM     16  H11 <0> d           2.460   5.452  -1.482  0.00  0.00     0.027 H 
ENDBRANCH  10  13
ENDBRANCH   1  10
BRANCH   1  17
ATOM     17  C6  <0> d           0.845   1.894  -0.283  0.00  0.00     0.175 A 
ATOM     18  O1  <0> d          -0.467   1.697  -0.516  0.00  0.00    -0.260 OA
ATOM     19  C7  <0> d          -0.655   0.364  -0.513  0.00  0.00     0.265 A 
ATOM     20  N2  <0> d           0.510  -0.192  -0.286  0.00  0.00    -0.103 NA
ATOM     21  N1  <0> d           1.401   0.726  -0.149  0.00  0.00    -0.125 NA
BRANCH  19  22
ATOM     22  N3  <0> d          -1.853  -0.296  -0.713  0.00  0.00    -0.362 N 
ATOM     23  H12 <0> d          -2.773   0.279  -0.896  0.00  0.00     0.159 HD
ATOM     24  H13 <0> d          -1.887  -1.395  -0.688  0.00  0.00     0.159 HD
ENDBRANCH  19  22
ENDBRANCH   1  17
TORSDOF 6
