REMARK  2 active torsions:
REMARK  status: ('A' for Active; 'I' for Inactive)
REMARK    1  A    between atoms: C1_1  and  N1_2 
REMARK    2  A    between atoms: C5_6  and  N2_9 
ROOT
ATOM      1  N1  <0> d           0.002  -0.004   0.002  0.00  0.00    -0.327 N 
ATOM      2  C2  <0> d           0.006  -0.670  -1.184  0.00  0.00    -0.018 A 
ATOM      3  C3  <0> d           0.024  -2.021  -1.220  0.00  0.00    -0.066 A 
ATOM      4  C4  <0> d           0.040  -2.755  -0.025  0.00  0.00    -0.051 A 
ATOM      5  C5  <0> d           0.037  -2.088   1.169  0.00  0.00     0.094 A 
ATOM      6  C6  <0> d           0.022  -0.676   1.169  0.00  0.00     0.273 A 
ATOM      7  O1  <0> d           0.024  -0.065   2.226  0.00  0.00    -0.266 OA
ATOM      8  H4  <0> d          -0.007  -0.112  -2.109  0.00  0.00     0.111 H 
ATOM      9  H5  <0> d           0.026  -2.536  -2.169  0.00  0.00     0.085 H 
ATOM     10  H6  <0> d           0.054  -3.835  -0.047  0.00  0.00     0.087 H 
ENDROOT
BRANCH   1  11
ATOM     11  C1  <0> d          -0.018   1.461   0.010  0.00  0.00    -0.011 C 
ATOM     12  H1  <0> d           1.005   1.838   0.002  0.00  0.00     0.057 H 
ATOM     13  H2  <0> d          -0.545   1.822  -0.873  0.00  0.00     0.057 H 
ATOM     14  H3  <0> d          -0.528   1.812   0.907  0.00  0.00     0.057 H 
ENDBRANCH   1  11
BRANCH   5  15
ATOM     15  N2  <0> d           0.052  -2.797   2.377  0.00  0.00    -0.395 N 
ATOM     16  H7  <0> d           0.065  -3.767   2.370  0.00  0.00     0.156 HD
ATOM     17  H8  <0> d           0.050  -2.317   3.220  0.00  0.00     0.156 HD
ENDBRANCH   5  15
TORSDOF 2
