REMARK  9 active torsions:
REMARK  status: ('A' for Active; 'I' for Inactive)
REMARK    1  A    between atoms: C1_1  and  C2_2 
REMARK    2  A    between atoms: C2_2  and  C3_3 
REMARK    3  A    between atoms: C2_2  and  C4_4 
REMARK    4  A    between atoms: C4_4  and  C5_5 
REMARK    5  A    between atoms: C5_5  and  O1_6 
REMARK    6  A    between atoms: O1_6  and  C6_7 
REMARK    7  A    between atoms: C6_7  and  C7_9 
REMARK    8  A    between atoms: C7_9  and  C8_10 
REMARK    9  A    between atoms: C7_9  and  C9_11 
ROOT
ATOM      1  C5  <0> d          -0.064   0.971   2.503  0.00  0.00     0.029 C 
ATOM      2  H10 <0> d          -0.126  -0.116   2.452  0.00  0.00     0.075 H 
ATOM      3  H11 <0> d           0.983   1.274   2.539  0.00  0.00     0.075 H 
ENDROOT
BRANCH   1   4
ATOM      4  C4  <0> d          -0.729   1.579   1.267  0.00  0.00    -0.042 C 
ATOM      5  H8  <0> d          -0.666   2.666   1.318  0.00  0.00     0.036 H 
ATOM      6  H9  <0> d          -1.776   1.277   1.232  0.00  0.00     0.036 H 
BRANCH   4   7
ATOM      7  C2  <0> d          -0.013   1.086   0.008  0.00  0.00    -0.059 C 
ATOM      8  H4  <0> d           0.002  -0.004   0.002  0.00  0.00     0.038 H 
BRANCH   7   9
ATOM      9  C1  <0> d           1.423   1.615  -0.003  0.00  0.00    -0.073 C 
ATOM     10  H1  <0> d           1.408   2.705   0.003  0.00  0.00     0.028 H 
ATOM     11  H2  <0> d           1.950   1.254   0.880  0.00  0.00     0.028 H 
ATOM     12  H3  <0> d           1.933   1.264  -0.900  0.00  0.00     0.028 H 
ENDBRANCH   7   9
BRANCH   7  13
ATOM     13  C3  <0> d          -0.753   1.593  -1.232  0.00  0.00    -0.073 C 
ATOM     14  H5  <0> d          -0.242   1.241  -2.128  0.00  0.00     0.028 H 
ATOM     15  H6  <0> d          -1.775   1.215  -1.224  0.00  0.00     0.028 H 
ATOM     16  H7  <0> d          -0.767   2.683  -1.226  0.00  0.00     0.028 H 
ENDBRANCH   7  13
ENDBRANCH   4   7
ENDBRANCH   1   4
BRANCH   1  17
ATOM     17  O1  <0> d          -0.743   1.440   3.698  0.00  0.00    -0.321 OA
BRANCH  17  18
ATOM     18  C6  <0> d          -0.279   0.996   4.877  0.00  0.00     0.262 C 
ATOM     19  O2  <0> d           0.664   0.241   4.909  0.00  0.00    -0.265 OA
BRANCH  18  20
ATOM     20  C7  <0> d          -0.934   1.439   6.160  0.00  0.00     0.023 C 
ATOM     21  H12 <0> d          -0.872   2.524   6.244  0.00  0.00     0.054 H 
BRANCH  20  22
ATOM     22  C8  <0> d          -2.403   1.012   6.156  0.00  0.00    -0.065 C 
ATOM     23  H13 <0> d          -2.466  -0.073   6.072  0.00  0.00     0.028 H 
ATOM     24  H14 <0> d          -2.877   1.332   7.084  0.00  0.00     0.028 H 
ATOM     25  H15 <0> d          -2.914   1.472   5.310  0.00  0.00     0.028 H 
ENDBRANCH  20  22
BRANCH  20  26
ATOM     26  C9  <0> d          -0.218   0.793   7.347  0.00  0.00    -0.065 C 
ATOM     27  H16 <0> d           0.829   1.097   7.350  0.00  0.00     0.028 H 
ATOM     28  H17 <0> d          -0.692   1.114   8.275  0.00  0.00     0.028 H 
ATOM     29  H18 <0> d          -0.281  -0.292   7.263  0.00  0.00     0.028 H 
ENDBRANCH  20  26
ENDBRANCH  18  20
ENDBRANCH  17  18
ENDBRANCH   1  17
TORSDOF 9
