REMARK  2 active torsions:
REMARK  status: ('A' for Active; 'I' for Inactive)
REMARK    1  A    between atoms: C4_5  and  C8_10 
REMARK    2  A    between atoms: C4_5  and  O2_12 
ROOT
ATOM      1  C1  <0> d           3.514   3.456   0.697  0.00  0.00    -0.049 C 
ATOM      2  C2  <0> d           2.598   4.388   1.572  0.00  0.00    -0.034 C 
ATOM      3  H1  <0> d           2.953   4.618   2.577  0.00  0.00     0.046 H 
ATOM      4  C3  <0> d           1.232   3.632   1.459  0.00  0.00    -0.019 C 
ATOM      5  C4  <0> d           1.235   3.094   0.007  0.00  0.00     0.153 C 
ATOM      6  C5  <0> d           2.597   3.594  -0.573  0.00  0.00     0.003 C 
ATOM      7  H2  <0> d           2.944   3.103  -1.482  0.00  0.00     0.051 H 
ATOM      8  C6  <0> d           2.445   5.119  -0.620  0.00  0.00    -0.099 C 
ATOM      9  C7  <0> d           2.445   5.577   0.616  0.00  0.00    -0.102 C 
ATOM     10  H3  <0> d           3.552   2.434   1.075  0.00  0.00     0.035 H 
ATOM     11  H4  <0> d           4.508   3.874   0.542  0.00  0.00     0.035 H 
ATOM     12  H5  <0> d           0.398   4.318   1.612  0.00  0.00     0.039 H 
ATOM     13  H6  <0> d           1.188   2.809   2.172  0.00  0.00     0.039 H 
ATOM     14  H7  <0> d           2.352   5.717  -1.515  0.00  0.00     0.077 H 
ATOM     15  H8  <0> d           2.354   6.613   0.905  0.00  0.00     0.076 H 
ENDROOT
BRANCH   5  16
ATOM     16  C8  <0> d           1.177   1.588  -0.001  0.00  0.00     0.209 C 
ATOM     17  O1  <0> d           2.199   0.944  -0.014  0.00  0.00    -0.646 OA
ATOM     18  O3  <0> d          -0.011   0.963   0.007  0.00  0.00    -0.646 OA
ENDBRANCH   5  16
BRANCH   5  19
ATOM     19  O2  <0> d           0.142   3.642  -0.734  0.00  0.00    -0.378 OA
ATOM     20  H9  <0> d          -0.728   3.389  -0.396  0.00  0.00     0.211 HD
ENDBRANCH   5  19
TORSDOF 2
