REMARK  1 active torsions:
REMARK  status: ('A' for Active; 'I' for Inactive)
REMARK    1  A    between atoms: C6_6  and  O1_7 
ROOT
ATOM      1  C1  <0> d          -0.017   1.383   0.010  0.00  0.00    -0.049 A 
ATOM      2  C2  <0> d           1.171   2.089   0.002  0.00  0.00    -0.059 A 
ATOM      3  C3  <0> d           2.378   1.414  -0.013  0.00  0.00     0.034 A 
ATOM      4  C4  <0> d           2.399   0.030  -0.021  0.00  0.00    -0.059 A 
ATOM      5  C5  <0> d           1.214  -0.679  -0.014  0.00  0.00    -0.049 A 
ATOM      6  C6  <0> d           0.002  -0.004   0.002  0.00  0.00     0.065 A 
ATOM      7 Cl1  <0> d           3.869   2.303  -0.024  0.00  0.00    -0.084 Cl
ATOM      8  H1  <0> d          -0.959   1.911   0.026  0.00  0.00     0.087 H 
ATOM      9  H2  <0> d           1.156   3.169   0.008  0.00  0.00     0.086 H 
ATOM     10  H3  <0> d           3.342  -0.495  -0.033  0.00  0.00     0.086 H 
ATOM     11  H4  <0> d           1.230  -1.759  -0.020  0.00  0.00     0.087 H 
ENDROOT
BRANCH   6  12
ATOM     12  O1  <0> d          -1.165  -0.701   0.010  0.00  0.00    -0.361 OA
ATOM     13  H5  <0> d          -1.512  -0.897  -0.871  0.00  0.00     0.217 HD
ENDBRANCH   6  12
TORSDOF 1
