REMARK  2 active torsions:
REMARK  status: ('A' for Active; 'I' for Inactive)
REMARK    1  A    between atoms: C1_1  and  C2_2 
REMARK    2  A    between atoms: C2_2  and  N1_3 
ROOT
ATOM      1  N1  <0> d          -0.749   3.044   1.275  0.00  0.00    -0.294 N 
ATOM      2  C3  <0> d          -1.783   3.716   0.700  0.00  0.00     0.075 A 
ATOM      3  N2  <0> d          -1.806   5.023   0.705  0.00  0.00    -0.189 NA
ATOM      4  C4  <0> d          -0.810   5.723   1.277  0.00  0.00     0.351 A 
ATOM      5  O1  <0> d          -0.844   6.939   1.275  0.00  0.00    -0.244 OA
ATOM      6  N3  <0> d           0.226   5.080   1.853  0.00  0.00    -0.259 N 
ATOM      7  H1  <0> d           0.945   5.585   2.265  0.00  0.00     0.175 HD
ATOM      8  C5  <0> d           0.255   3.731   1.857  0.00  0.00     0.331 A 
ATOM      9  O2  <0> d           1.181   3.140   2.378  0.00  0.00    -0.246 OA
ATOM     10  H7  <0> d          -2.589   3.166   0.237  0.00  0.00     0.144 H 
ENDROOT
BRANCH   1  11
ATOM     11  C2  <0> d          -0.729   1.579   1.267  0.00  0.00     0.002 C 
ATOM     12  H5  <0> d          -1.751   1.202   1.275  0.00  0.00     0.064 H 
ATOM     13  H6  <0> d          -0.202   1.218   2.150  0.00  0.00     0.064 H 
BRANCH  11  14
ATOM     14  C1  <0> d          -0.013   1.086   0.008  0.00  0.00    -0.060 C 
ATOM     15  H2  <0> d           0.002  -0.004   0.002  0.00  0.00     0.029 H 
ATOM     16  H3  <0> d           1.010   1.463   0.000  0.00  0.00     0.029 H 
ATOM     17  H4  <0> d          -0.540   1.447  -0.875  0.00  0.00     0.029 H 
ENDBRANCH  11  14
ENDBRANCH   1  11
TORSDOF 2
