REMARK  0 active torsions:
REMARK  status: ('A' for Active; 'I' for Inactive)
ROOT
ATOM      1  C1  <0> d           2.077   0.019   1.173  0.00  0.00     0.043 C 
ATOM      2  C2  <0> d           2.086   1.549   1.127  0.00  0.00     0.043 C 
ATOM      3  O1  <0> d           1.327   2.004   0.000  0.00  0.00    -0.354 OA
ATOM      4  C3  <0> d          -0.019   1.529   0.011  0.00  0.00     0.178 C 
ATOM      5  C4  <0> d           0.002  -0.004   0.002  0.00  0.00     0.178 C 
ATOM      6  O2  <0> d           0.726  -0.458   1.145  0.00  0.00    -0.354 OA
ATOM      7  O3  <0> d          -1.343  -0.479   0.012  0.00  0.00    -0.354 OA
ATOM      8  C5  <0> d          -2.102  -0.025  -1.116  0.00  0.00     0.043 C 
ATOM      9  C6  <0> d          -2.092   1.504  -1.163  0.00  0.00     0.043 C 
ATOM     10  O4  <0> d          -0.742   1.982  -1.134  0.00  0.00    -0.354 OA
ATOM     11  H1  <0> d           2.562  -0.319   2.089  0.00  0.00     0.077 H 
ATOM     12  H2  <0> d           2.617  -0.372   0.311  0.00  0.00     0.077 H 
ATOM     13  H3  <0> d           1.646   1.942   2.043  0.00  0.00     0.077 H 
ATOM     14  H4  <0> d           3.113   1.902   1.038  0.00  0.00     0.077 H 
ATOM     15  H5  <0> d          -0.519   1.880   0.913  0.00  0.00     0.136 H 
ATOM     16  H6  <0> d           0.499  -0.354  -0.903  0.00  0.00     0.136 H 
ATOM     17  H7  <0> d          -1.660  -0.418  -2.032  0.00  0.00     0.077 H 
ATOM     18  H8  <0> d          -3.129  -0.378  -1.028  0.00  0.00     0.077 H 
ATOM     19  H9  <0> d          -2.577   1.842  -2.079  0.00  0.00     0.077 H 
ATOM     20  H10 <0> d          -2.633   1.897  -0.301  0.00  0.00     0.077 H 
ENDROOT
TORSDOF 0
