REMARK  6 active torsions:
REMARK  status: ('A' for Active; 'I' for Inactive)
REMARK    1  A    between atoms: C1_1  and  O1_2 
REMARK    2  A    between atoms: O1_2  and  C2_3 
REMARK    3  A    between atoms: C2_3  and  C3_5 
REMARK    4  A    between atoms: C3_5  and  C4_6 
REMARK    5  A    between atoms: C4_6  and  C5_7 
REMARK    6  A    between atoms: C6_8  and  C7_9 
ROOT
ATOM      1  C4  <0> d          -2.372   5.351   0.042  0.00  0.00    -0.042 C 
ATOM      2  H6  <0> d          -2.807   5.703   0.978  0.00  0.00     0.039 H 
ATOM      3  H7  <0> d          -1.354   5.729  -0.050  0.00  0.00     0.039 H 
ENDROOT
BRANCH   1   4
ATOM      4  C3  <0> d          -3.212   5.856  -1.133  0.00  0.00     0.019 C 
ATOM      5  H4  <0> d          -2.777   5.504  -2.068  0.00  0.00     0.048 H 
ATOM      6  H5  <0> d          -4.230   5.478  -1.040  0.00  0.00     0.048 H 
BRANCH   4   7
ATOM      7  C2  <0> d          -3.232   7.363  -1.124  0.00  0.00     0.258 C 
ATOM      8  O2  <0> d          -2.636   7.971  -0.267  0.00  0.00    -0.265 OA
BRANCH   7   9
ATOM      9  O1  <0> d          -3.913   8.030  -2.070  0.00  0.00    -0.326 OA
BRANCH   9  10
ATOM     10  C1  <0> d          -3.889   9.480  -2.000  0.00  0.00     0.013 C 
ATOM     11  H1  <0> d          -2.859   9.831  -2.077  0.00  0.00     0.067 H 
ATOM     12  H2  <0> d          -4.476   9.893  -2.820  0.00  0.00     0.067 H 
ATOM     13  H3  <0> d          -4.312   9.805  -1.050  0.00  0.00     0.067 H 
ENDBRANCH   9  10
ENDBRANCH   7   9
ENDBRANCH   4   7
ENDBRANCH   1   4
BRANCH   1  14
ATOM     14  C5  <0> d          -2.352   3.844   0.034  0.00  0.00    -0.102 C 
ATOM     15  C6  <0> d          -1.192   3.196   0.025  0.00  0.00    -0.087 C 
ATOM     16  H9  <0> d          -0.264   3.748   0.024  0.00  0.00     0.083 H 
ATOM     17  H8  <0> d          -3.280   3.292   0.035  0.00  0.00     0.076 H 
BRANCH  15  18
ATOM     18  C7  <0> d          -1.172   1.724   0.017  0.00  0.00    -0.092 C 
ATOM     19  C8  <0> d          -0.013   1.076   0.008  0.00  0.00    -0.121 C 
ATOM     20  H11 <0> d           0.002  -0.004   0.002  0.00  0.00     0.066 H 
ATOM     21  H12 <0> d           0.915   1.629   0.002  0.00  0.00     0.066 H 
ATOM     22  H10 <0> d          -2.100   1.172   0.018  0.00  0.00     0.082 H 
ENDBRANCH  15  18
ENDBRANCH   1  14
TORSDOF 6
