REMARK  8 active torsions:
REMARK  status: ('A' for Active; 'I' for Inactive)
REMARK    1  A    between atoms: C1_1  and  C2_2 
REMARK    2  A    between atoms: C2_2  and  O1_3 
REMARK    3  A    between atoms: O1_3  and  C3_4 
REMARK    4  A    between atoms: C3_4  and  C4_6 
REMARK    5  A    between atoms: C4_6  and  C5_8 
REMARK    6  A    between atoms: C4_6  and  C6_9 
REMARK    7  A    between atoms: C6_9  and  C7_11 
REMARK    8  A    between atoms: C6_9  and  O3_12 
ROOT
ATOM      1  C4  <0> d           0.002  -0.004   0.002  0.00  0.00     0.051 C 
ATOM      2  H1  <0> d           0.529  -0.365   0.885  0.00  0.00     0.058 H 
ENDROOT
BRANCH   1   3
ATOM      3  C3  <0> d          -1.412  -0.526   0.013  0.00  0.00     0.265 C 
ATOM      4  O2  <0> d          -1.806  -1.221  -0.893  0.00  0.00    -0.265 OA
BRANCH   3   5
ATOM      5  O1  <0> d          -2.233  -0.218   1.029  0.00  0.00    -0.322 OA
BRANCH   5   6
ATOM      6  C2  <0> d          -3.581  -0.755   0.973  0.00  0.00     0.025 C 
ATOM      7  H6  <0> d          -4.079  -0.393   0.074  0.00  0.00     0.074 H 
ATOM      8  H7  <0> d          -3.537  -1.844   0.951  0.00  0.00     0.074 H 
BRANCH   6   9
ATOM      9  C1  <0> d          -4.362  -0.301   2.208  0.00  0.00    -0.056 C 
ATOM     10  H3  <0> d          -4.406   0.788   2.230  0.00  0.00     0.030 H 
ATOM     11  H4  <0> d          -5.374  -0.704   2.166  0.00  0.00     0.030 H 
ATOM     12  H5  <0> d          -3.864  -0.663   3.107  0.00  0.00     0.030 H 
ENDBRANCH   6   9
ENDBRANCH   5   6
ENDBRANCH   3   5
ENDBRANCH   1   3
BRANCH   1  13
ATOM     13  C5  <0> d          -0.019   1.526   0.010  0.00  0.00    -0.062 C 
ATOM     14  H8  <0> d           1.004   1.903   0.003  0.00  0.00     0.028 H 
ATOM     15  H9  <0> d          -0.546   1.887  -0.873  0.00  0.00     0.028 H 
ATOM     16  H10 <0> d          -0.529   1.877   0.907  0.00  0.00     0.028 H 
ENDBRANCH   1  13
BRANCH   1  17
ATOM     17  C6  <0> d           0.718  -0.497  -1.257  0.00  0.00     0.044 C 
ATOM     18  H2  <0> d           0.191  -0.136  -2.140  0.00  0.00     0.083 H 
BRANCH  17  19
ATOM     19  C7  <0> d           2.154   0.032  -1.268  0.00  0.00    -0.052 C 
ATOM     20  H11 <0> d           2.681  -0.329  -0.385  0.00  0.00     0.030 H 
ATOM     21  H12 <0> d           2.664  -0.319  -2.164  0.00  0.00     0.030 H 
ATOM     22  H13 <0> d           2.139   1.122  -1.262  0.00  0.00     0.030 H 
ENDBRANCH  17  19
BRANCH  17  23
ATOM     23  O3  <0> d           0.738  -1.926  -1.265  0.00  0.00    -0.395 OA
ATOM     24  H14 <0> d           1.192  -2.318  -0.506  0.00  0.00     0.210 HD
ENDBRANCH  17  23
ENDBRANCH   1  17
TORSDOF 8
