REMARK  5 active torsions:
REMARK  status: ('A' for Active; 'I' for Inactive)
REMARK    1  A    between atoms: C1_1  and  C2_2 
REMARK    2  A    between atoms: C5_5  and  C8_8 
REMARK    3  A    between atoms: C8_8  and  N1_9 
REMARK    4  A    between atoms: N1_9  and  C9_10 
REMARK    5  A    between atoms: C9_10  and  C10_11 
ROOT
ATOM      1  C10 <0> d           2.915  -6.650  -0.050  0.00  0.00    -0.087 C 
ATOM      2  C11 <0> d           4.036  -6.997  -0.058  0.00  0.00    -0.152 C 
ATOM      3  H13 <0> d           5.039  -7.308  -0.066  0.00  0.00     0.166 H 
ENDROOT
BRANCH   1   4
ATOM      4  C9  <0> d           1.509  -6.215  -0.040  0.00  0.00     0.165 C 
ATOM      5  H11 <0> d           1.015  -6.603   0.851  0.00  0.00     0.099 H 
ATOM      6  H12 <0> d           1.005  -6.593  -0.929  0.00  0.00     0.099 H 
BRANCH   4   7
ATOM      7  N1  <0> d           1.451  -4.747  -0.032  0.00  0.00     0.098 N 
ATOM      8  H10 <0> d           1.958  -4.361  -0.814  0.00  0.00     0.317 HD
BRANCH   7   9
ATOM      9  C8  <0> d           0.059  -4.275  -0.021  0.00  0.00     0.136 C 
ATOM     10  H8  <0> d          -0.445  -4.650   0.869  0.00  0.00     0.086 H 
ATOM     11  H9  <0> d          -0.455  -4.640  -0.911  0.00  0.00     0.086 H 
BRANCH   9  12
ATOM     12  C5  <0> d           0.040  -2.768  -0.013  0.00  0.00    -0.030 A 
ATOM     13  C4  <0> d           0.025  -2.071  -1.206  0.00  0.00    -0.075 A 
ATOM     14  C3  <0> d           0.006  -0.689  -1.199  0.00  0.00    -0.077 A 
ATOM     15  H5  <0> d           0.027  -2.606  -2.145  0.00  0.00     0.084 H 
ATOM     16  C2  <0> d           0.002  -0.004   0.002  0.00  0.00    -0.062 A 
ATOM     17  H4  <0> d          -0.006  -0.144  -2.131  0.00  0.00     0.084 H 
ATOM     18  C7  <0> d           0.023  -0.702   1.195  0.00  0.00    -0.077 A 
ATOM     19  C6  <0> d           0.037  -2.084   1.188  0.00  0.00    -0.075 A 
ATOM     20  H7  <0> d           0.025  -0.167   2.134  0.00  0.00     0.084 H 
ATOM     21  H6  <0> d           0.049  -2.629   2.120  0.00  0.00     0.084 H 
BRANCH  16  22
ATOM     22  C1  <0> d          -0.018   1.503   0.010  0.00  0.00    -0.051 C 
ATOM     23  H1  <0> d           1.004   1.880   0.003  0.00  0.00     0.033 H 
ATOM     24  H2  <0> d          -0.545   1.864  -0.873  0.00  0.00     0.033 H 
ATOM     25  H3  <0> d          -0.529   1.854   0.907  0.00  0.00     0.033 H 
ENDBRANCH  16  22
ENDBRANCH   9  12
ENDBRANCH   7   9
ENDBRANCH   4   7
ENDBRANCH   1   4
TORSDOF 5
