REMARK  2 active torsions:
REMARK  status: ('A' for Active; 'I' for Inactive)
REMARK    1  A    between atoms: C1_1  and  C2_2 
REMARK    2  A    between atoms: C4_4  and  C11_11 
ROOT
ATOM      1  C2  <0> d           0.002  -0.004   0.002  0.00  0.00    -0.061 A 
ATOM      2  C3  <0> d           0.006  -0.688  -1.201  0.00  0.00    -0.071 A 
ATOM      3  C4  <0> d           0.024  -2.067  -1.218  0.00  0.00    -0.051 A 
ATOM      4  C5  <0> d           0.040  -2.779  -0.016  0.00  0.00    -0.024 A 
ATOM      5  C6  <0> d           0.036  -2.077   1.190  0.00  0.00    -0.043 A 
ATOM      6  C7  <0> d           0.023  -0.702   1.198  0.00  0.00    -0.070 A 
ATOM      7  C8  <0> d           0.055  -3.116   2.285  0.00  0.00    -0.025 A 
ATOM      8  C9  <0> d           0.069  -4.449   1.574  0.00  0.00    -0.098 A 
ATOM      9  C10 <0> d           0.060  -4.225   0.272  0.00  0.00    -0.075 A 
ATOM     10  H4  <0> d          -0.006  -0.139  -2.131  0.00  0.00     0.085 H 
ATOM     11  H5  <0> d           0.025  -0.166   2.136  0.00  0.00     0.085 H 
ATOM     12  H6  <0> d           0.951  -3.005   2.896  0.00  0.00     0.046 H 
ATOM     13  H7  <0> d          -0.838  -3.028   2.904  0.00  0.00     0.046 H 
ATOM     14  H8  <0> d           0.084  -5.419   2.049  0.00  0.00     0.077 H 
ATOM     15  H9  <0> d           0.067  -4.998  -0.481  0.00  0.00     0.084 H 
ENDROOT
BRANCH   1  16
ATOM     16  C1  <0> d          -0.018   1.503   0.010  0.00  0.00    -0.051 C 
ATOM     17  H1  <0> d           1.004   1.880   0.003  0.00  0.00     0.033 H 
ATOM     18  H2  <0> d          -0.545   1.864  -0.873  0.00  0.00     0.033 H 
ATOM     19  H3  <0> d          -0.529   1.854   0.907  0.00  0.00     0.033 H 
ENDBRANCH   1  16
BRANCH   3  20
ATOM     20  C11 <0> d           0.028  -2.805  -2.533  0.00  0.00    -0.050 C 
ATOM     21  H10 <0> d           1.056  -2.969  -2.855  0.00  0.00     0.033 H 
ATOM     22  H11 <0> d          -0.472  -3.766  -2.411  0.00  0.00     0.033 H 
ATOM     23  H12 <0> d          -0.498  -2.214  -3.283  0.00  0.00     0.033 H 
ENDBRANCH   3  20
TORSDOF 2
