REMARK  3 active torsions:
REMARK  status: ('A' for Active; 'I' for Inactive)
REMARK    1  A    between atoms: C1_1  and  C2_2 
REMARK    2  A    between atoms: C2_2  and  C3_4 
REMARK    3  A    between atoms: C7_9  and  N2_10 
ROOT
ATOM      1  C3  <0> d           1.031   2.075  -0.008  0.00  0.00     0.038 A 
ATOM      2  C4  <0> d           2.301   1.480  -0.001  0.00  0.00    -0.050 A 
ATOM      3  C5  <0> d           2.397   0.105   0.002  0.00  0.00     0.003 A 
ATOM      4  N1  <0> d           1.317  -0.654  -0.001  0.00  0.00    -0.271 NA
ATOM      5  C6  <0> d           0.103  -0.149  -0.009  0.00  0.00     0.028 A 
ATOM      6  C7  <0> d          -0.095   1.229  -0.012  0.00  0.00     0.057 A 
ATOM      7  H4  <0> d           3.192   2.091   0.003  0.00  0.00     0.087 H 
ATOM      8  H5  <0> d           3.372  -0.359   0.008  0.00  0.00     0.114 H 
ATOM      9  H6  <0> d          -0.750  -0.811  -0.011  0.00  0.00     0.118 H 
ENDROOT
BRANCH   1  10
ATOM     10  C2  <0> d           0.880   3.538  -0.012  0.00  0.00     0.158 C 
ATOM     11  O1  <0> d          -0.223   4.034   0.084  0.00  0.00    -0.293 OA
BRANCH  10  12
ATOM     12  C1  <0> d           2.095   4.421  -0.136  0.00  0.00    -0.017 C 
ATOM     13  H1  <0> d           2.997   3.795  -0.212  0.00  0.00     0.038 H 
ATOM     14  H2  <0> d           2.171   5.067   0.751  0.00  0.00     0.038 H 
ATOM     15  H3  <0> d           2.005   5.045  -1.037  0.00  0.00     0.038 H 
ENDBRANCH  10  12
ENDBRANCH   1  10
BRANCH   6  16
ATOM     16  N2  <0> d          -1.377   1.759  -0.025  0.00  0.00    -0.397 N 
ATOM     17  H7  <0> d          -2.249   1.089  -0.028  0.00  0.00     0.156 HD
ATOM     18  H8  <0> d          -1.521   2.850  -0.032  0.00  0.00     0.156 HD
ENDBRANCH   6  16
TORSDOF 3
