REMARK  3 active torsions:
REMARK  status: ('A' for Active; 'I' for Inactive)
REMARK    1  A    between atoms: C1_1  and  C2_2 
REMARK    2  A    between atoms: C5_5  and  N2_8 
REMARK       I    between atoms: N2_8  and  C7_9 
REMARK    3  A    between atoms: C7_9  and  C8_11 
ROOT
ATOM      1  C2  <0> d           0.002  -0.004   0.007  0.00  0.00    -0.044 A 
ATOM      2  C3  <0> d          -0.017   1.385   0.015  0.00  0.00    -0.072 A 
ATOM      3  C4  <0> d           1.190   2.061   0.005  0.00  0.00    -0.038 A 
ATOM      4  C5  <0> d           2.374   1.332  -0.011  0.00  0.00     0.129 A 
ATOM      5  N1  <0> d           2.350   0.009  -0.018  0.00  0.00    -0.243 NA
ATOM      6  C6  <0> d           1.215  -0.663  -0.009  0.00  0.00     0.010 A 
ATOM      7  H4  <0> d          -0.952   1.924   0.024  0.00  0.00     0.084 H 
ATOM      8  H5  <0> d           1.212   3.141   0.011  0.00  0.00     0.089 H 
ATOM      9  H6  <0> d           1.234  -1.743  -0.015  0.00  0.00     0.115 H 
ENDROOT
BRANCH   4  10
ATOM     10  N2  <0> d           3.597   2.001  -0.021  0.00  0.00    -0.312 N 
ATOM     11  C7  <0> d           4.747   1.304   0.067  0.00  0.00     0.219 C 
ATOM     12  O1  <0> d           4.723   0.091   0.061  0.00  0.00    -0.274 OA
ATOM     13  H7  <0> d           3.620   2.968  -0.090  0.00  0.00     0.170 HD
BRANCH  11  14
ATOM     14  C8  <0> d           6.063   2.030   0.172  0.00  0.00    -0.002 C 
ATOM     15  H8  <0> d           5.886   3.106   0.162  0.00  0.00     0.040 H 
ATOM     16  H9  <0> d           6.558   1.753   1.103  0.00  0.00     0.040 H 
ATOM     17  H10 <0> d           6.697   1.759  -0.672  0.00  0.00     0.040 H 
ENDBRANCH  11  14
ENDBRANCH   4  10
BRANCH   1  18
ATOM     18  C1  <0> d          -1.288  -0.782   0.017  0.00  0.00    -0.050 C 
ATOM     19  H1  <0> d          -1.610  -0.965  -1.008  0.00  0.00     0.033 H 
ATOM     20  H2  <0> d          -1.134  -1.735   0.524  0.00  0.00     0.033 H 
ATOM     21  H3  <0> d          -2.054  -0.211   0.542  0.00  0.00     0.033 H 
ENDBRANCH   1  18
TORSDOF 3
