REMARK  4 active torsions:
REMARK  status: ('A' for Active; 'I' for Inactive)
REMARK    1  A    between atoms: C1_1  and  C2_2 
REMARK    2  A    between atoms: C2_2  and  C3_3 
REMARK    3  A    between atoms: C6_8  and  C7_9 
REMARK    4  A    between atoms: C7_9  and  C8_10 
ROOT
ATOM      1  C3  <0> d           1.069   1.881   0.002  0.00  0.00    -0.035 A 
ATOM      2  C4  <0> d          -0.013   1.076   0.008  0.00  0.00    -0.017 A 
ATOM      3  N1  <0> d          -1.128   1.860   0.017  0.00  0.00    -0.374 N 
ATOM      4  H1  <0> d          -2.044   1.540   0.019  0.00  0.00     0.164 HD
ATOM      5  C5  <0> d          -0.743   3.168   0.025  0.00  0.00    -0.017 A 
ATOM      6  C6  <0> d           0.605   3.211   0.013  0.00  0.00    -0.035 A 
ATOM      7  H7  <0> d           0.002  -0.004   0.002  0.00  0.00     0.112 H 
ATOM      8  H8  <0> d          -1.404   4.022   0.035  0.00  0.00     0.112 H 
ENDROOT
BRANCH   1   9
ATOM      9  C2  <0> d           2.510   1.440  -0.013  0.00  0.00    -0.043 C 
ATOM     10  H5  <0> d           2.580   0.445  -0.453  0.00  0.00     0.039 H 
ATOM     11  H6  <0> d           3.098   2.141  -0.605  0.00  0.00     0.039 H 
BRANCH   9  12
ATOM     12  C1  <0> d           3.048   1.404   1.419  0.00  0.00    -0.073 C 
ATOM     13  H2  <0> d           4.090   1.085   1.407  0.00  0.00     0.028 H 
ATOM     14  H3  <0> d           2.977   2.399   1.858  0.00  0.00     0.028 H 
ATOM     15  H4  <0> d           2.459   0.703   2.010  0.00  0.00     0.028 H 
ENDBRANCH   9  12
ENDBRANCH   1   9
BRANCH   6  16
ATOM     16  C7  <0> d           1.457   4.454   0.011  0.00  0.00    -0.043 C 
ATOM     17  H9  <0> d           0.899   5.278   0.454  0.00  0.00     0.039 H 
ATOM     18  H10 <0> d           2.362   4.274   0.591  0.00  0.00     0.039 H 
BRANCH  16  19
ATOM     19  C8  <0> d           1.836   4.810  -1.428  0.00  0.00    -0.073 C 
ATOM     20  H11 <0> d           2.453   5.709  -1.429  0.00  0.00     0.028 H 
ATOM     21  H12 <0> d           2.395   3.986  -1.871  0.00  0.00     0.028 H 
ATOM     22  H13 <0> d           0.931   4.990  -2.008  0.00  0.00     0.028 H 
ENDBRANCH  16  19
ENDBRANCH   6  16
TORSDOF 4
