REMARK  3 active torsions:
REMARK  status: ('A' for Active; 'I' for Inactive)
REMARK    1  A    between atoms: C1_1  and  C2_2 
REMARK    2  A    between atoms: C2_2  and  O1_3 
REMARK    3  A    between atoms: O1_3  and  C3_4 
ROOT
ATOM      1  C3  <0> d           0.002  -0.004   0.002  0.00  0.00     0.086 A 
ATOM      2  C4  <0> d          -0.017   1.387   0.010  0.00  0.00    -0.046 A 
ATOM      3  C5  <0> d           1.192   2.062   0.002  0.00  0.00    -0.041 A 
ATOM      4  C6  <0> d           2.371   1.337  -0.013  0.00  0.00     0.125 A 
ATOM      5  N1  <0> d           2.353   0.018  -0.020  0.00  0.00    -0.246 NA
ATOM      6  C7  <0> d           1.223  -0.661  -0.013  0.00  0.00     0.036 A 
ATOM      7 Cl1  <0> d           3.892   2.173  -0.023  0.00  0.00    -0.062 Cl
ATOM      8  H6  <0> d          -0.952   1.928   0.017  0.00  0.00     0.087 H 
ATOM      9  H7  <0> d           1.216   3.142   0.007  0.00  0.00     0.088 H 
ATOM     10  H8  <0> d           1.248  -1.741  -0.019  0.00  0.00     0.119 H 
ENDROOT
BRANCH   1  11
ATOM     11  O1  <0> d          -1.160  -0.709   0.009  0.00  0.00    -0.350 OA
BRANCH  11  12
ATOM     12  C2  <0> d          -1.055  -2.134   0.000  0.00  0.00     0.023 C 
ATOM     13  H4  <0> d          -0.502  -2.466   0.892  0.00  0.00     0.074 H 
ATOM     14  H5  <0> d          -0.519  -2.457  -0.904  0.00  0.00     0.074 H 
BRANCH  12  15
ATOM     15  C1  <0> d          -2.455  -2.749   0.010  0.00  0.00    -0.056 C 
ATOM     16  H1  <0> d          -2.374  -3.846   0.003  0.00  0.00     0.030 H 
ATOM     17  H2  <0> d          -3.008  -2.417  -0.882  0.00  0.00     0.030 H 
ATOM     18  H3  <0> d          -2.991  -2.427   0.915  0.00  0.00     0.030 H 
ENDBRANCH  12  15
ENDBRANCH  11  12
ENDBRANCH   1  11
TORSDOF 3
