REMARK  0 active torsions:
REMARK  status: ('A' for Active; 'I' for Inactive)
ROOT
ATOM      1  C1  <0> d           1.195   2.081   0.002  0.00  0.00    -0.066 A 
ATOM      2  C2  <0> d          -0.017   1.388   0.010  0.00  0.00    -0.056 A 
ATOM      3  C3  <0> d           0.002  -0.004   0.002  0.00  0.00     0.112 A 
ATOM      4  C4  <0> d           1.255  -0.672  -0.013  0.00  0.00     0.266 A 
ATOM      5  O1  <0> d           1.298  -1.890  -0.020  0.00  0.00    -0.267 OA
ATOM      6  N1  <0> d           2.395   0.045  -0.021  0.00  0.00    -0.332 N 
ATOM      7  H1  <0> d           3.367  -0.469  -0.033  0.00  0.00     0.168 HD
ATOM      8  C5  <0> d           2.368   1.400  -0.013  0.00  0.00    -0.020 A 
ATOM      9  C6  <0> d          -1.221  -0.749   0.009  0.00  0.00     0.105 C 
ATOM     10  N2  <0> d          -2.191  -1.341   0.015  0.00  0.00    -0.191 NA
ATOM     11  H2  <0> d           1.198   3.161   0.008  0.00  0.00     0.085 H 
ATOM     12  H3  <0> d          -0.955   1.924   0.017  0.00  0.00     0.086 H 
ATOM     13  H4  <0> d           3.299   1.948  -0.019  0.00  0.00     0.111 H 
ENDROOT
TORSDOF 0
