REMARK  2 active torsions:
REMARK  status: ('A' for Active; 'I' for Inactive)
REMARK    1  A    between atoms: C1_1  and  O1_2 
REMARK    2  A    between atoms: O1_2  and  C2_3 
ROOT
ATOM      1  C2  <0> d           1.111   3.180   0.008  0.00  0.00     0.107 A 
ATOM      2  C3  <0> d           1.173   1.790   0.001  0.00  0.00    -0.046 A 
ATOM      3  C4  <0> d          -0.013   1.076   0.008  0.00  0.00    -0.063 A 
ATOM      4  C5  <0> d          -1.219   1.758   0.017  0.00  0.00     0.004 A 
ATOM      5  N1  <0> d          -1.255   3.072   0.029  0.00  0.00    -0.247 NA
ATOM      6  C6  <0> d          -0.144   3.801   0.023  0.00  0.00     0.169 A 
ATOM      7  C7  <0> d          -0.231   5.231   0.031  0.00  0.00     0.122 C 
ATOM      8  N2  <0> d          -0.299   6.364   0.037  0.00  0.00    -0.190 NA
ATOM      9  H4  <0> d           2.125   1.280  -0.011  0.00  0.00     0.087 H 
ATOM     10  H5  <0> d           0.002  -0.004   0.002  0.00  0.00     0.085 H 
ATOM     11  H6  <0> d          -2.145   1.201   0.019  0.00  0.00     0.114 H 
ENDROOT
BRANCH   1  12
ATOM     12  O1  <0> d           2.247   3.922   0.002  0.00  0.00    -0.353 OA
BRANCH  12  13
ATOM     13  C1  <0> d           3.486   3.210  -0.013  0.00  0.00     0.010 C 
ATOM     14  H1  <0> d           3.553   2.579   0.873  0.00  0.00     0.066 H 
ATOM     15  H2  <0> d           3.537   2.588  -0.907  0.00  0.00     0.066 H 
ATOM     16  H3  <0> d           4.313   3.921  -0.017  0.00  0.00     0.066 H 
ENDBRANCH  12  13
ENDBRANCH   1  12
TORSDOF 2
