REMARK  4 active torsions:
REMARK  status: ('A' for Active; 'I' for Inactive)
REMARK    1  A    between atoms: C1_1  and  C2_2 
REMARK    2  A    between atoms: C2_2  and  C3_3 
REMARK    3  A    between atoms: C4_6  and  S1_8 
REMARK    4  A    between atoms: S1_8  and  C5_9 
ROOT
ATOM      1  C3  <0> d          -1.412  -0.526   0.013  0.00  0.00     0.169 A 
ATOM      2  N1  <0> d          -2.141  -0.791  -1.031  0.00  0.00    -0.126 NA
ATOM      3  N2  <0> d          -3.294  -1.218  -0.654  0.00  0.00    -0.115 NA
ATOM      4  C4  <0> d          -3.341  -1.240   0.656  0.00  0.00     0.230 A 
ATOM      5  O1  <0> d          -2.148  -0.807   1.106  0.00  0.00    -0.268 OA
ENDROOT
BRANCH   1   6
ATOM      6  C2  <0> d           0.002  -0.004   0.002  0.00  0.00    -0.005 C 
ATOM      7  H4  <0> d           0.512  -0.356  -0.895  0.00  0.00     0.044 H 
ATOM      8  H5  <0> d           0.529  -0.365   0.885  0.00  0.00     0.044 H 
BRANCH   6   9
ATOM      9  C1  <0> d          -0.019   1.526   0.010  0.00  0.00    -0.069 C 
ATOM     10  H1  <0> d           1.004   1.903   0.003  0.00  0.00     0.028 H 
ATOM     11  H2  <0> d          -0.546   1.887  -0.873  0.00  0.00     0.028 H 
ATOM     12  H3  <0> d          -0.529   1.877   0.907  0.00  0.00     0.028 H 
ENDBRANCH   6   9
ENDBRANCH   1   6
BRANCH   4  13
ATOM     13  S1  <0> d          -4.709  -1.747   1.645  0.00  0.00    -0.087 SA
BRANCH  13  14
ATOM     14  C5  <0> d          -5.977  -2.212   0.434  0.00  0.00    -0.027 C 
ATOM     15  H6  <0> d          -5.601  -3.020  -0.194  0.00  0.00     0.042 H 
ATOM     16  H7  <0> d          -6.874  -2.545   0.956  0.00  0.00     0.042 H 
ATOM     17  H8  <0> d          -6.218  -1.351  -0.189  0.00  0.00     0.042 H 
ENDBRANCH  13  14
ENDBRANCH   4  13
TORSDOF 4
