REMARK  3 active torsions:
REMARK  status: ('A' for Active; 'I' for Inactive)
REMARK    1  A    between atoms: C1_1  and  C2_2 
REMARK    2  A    between atoms: C4_4  and  N2_9 
REMARK    3  A    between atoms: C6_6  and  N1_8 
ROOT
ATOM      1  C2  <0> d           2.384   1.419  -0.013  0.00  0.00    -0.058 A 
ATOM      2  C3  <0> d           1.178   2.093   0.002  0.00  0.00    -0.052 A 
ATOM      3  C4  <0> d          -0.017   1.383   0.010  0.00  0.00     0.028 A 
ATOM      4  C5  <0> d           0.002  -0.004   0.002  0.00  0.00    -0.033 A 
ATOM      5  C6  <0> d           1.215  -0.678  -0.013  0.00  0.00     0.028 A 
ATOM      6  C7  <0> d           2.406   0.037  -0.021  0.00  0.00    -0.052 A 
ATOM      7  H4  <0> d           1.164   3.173   0.008  0.00  0.00     0.087 H 
ATOM      8  H5  <0> d          -0.925  -0.558   0.008  0.00  0.00     0.090 H 
ATOM      9  H6  <0> d           3.350  -0.487  -0.033  0.00  0.00     0.087 H 
ENDROOT
BRANCH   1  10
ATOM     10  C1  <0> d           3.678   2.192  -0.021  0.00  0.00    -0.051 C 
ATOM     11  H1  <0> d           3.980   2.383  -1.051  0.00  0.00     0.033 H 
ATOM     12  H2  <0> d           3.538   3.139   0.499  0.00  0.00     0.033 H 
ATOM     13  H3  <0> d           4.451   1.611   0.482  0.00  0.00     0.033 H 
ENDBRANCH   1  10
BRANCH   5  14
ATOM     14  N1  <0> d           1.238  -2.075  -0.020  0.00  0.00    -0.399 N 
ATOM     15  H7  <0> d           0.406  -2.574  -0.015  0.00  0.00     0.156 HD
ATOM     16  H8  <0> d           2.086  -2.546  -0.031  0.00  0.00     0.156 HD
ENDBRANCH   5  14
BRANCH   3  17
ATOM     17  N2  <0> d          -1.235   2.066   0.019  0.00  0.00    -0.399 N 
ATOM     18  H9  <0> d          -2.069   1.570   0.020  0.00  0.00     0.156 HD
ATOM     19  H10 <0> d          -1.248   3.036   0.025  0.00  0.00     0.156 HD
ENDBRANCH   3  17
TORSDOF 3
