REMARK  8 active torsions:
REMARK  status: ('A' for Active; 'I' for Inactive)
REMARK    1  A    between atoms: C1_1  and  C2_2 
REMARK    2  A    between atoms: C2_2  and  C3_3 
REMARK    3  A    between atoms: C3_3  and  C4_4 
REMARK    4  A    between atoms: C4_4  and  C5_5 
REMARK    5  A    between atoms: C5_5  and  C6_6 
REMARK    6  A    between atoms: C5_5  and  O1_8 
REMARK    7  A    between atoms: C6_6  and  C7_7 
REMARK    8  A    between atoms: O1_8  and  C8_9 
ROOT
ATOM      1  C4  <0> d           0.763  -2.041   1.233  0.00  0.00    -0.022 C 
ATOM      2  H8  <0> d          -0.260  -2.418   1.241  0.00  0.00     0.039 H 
ATOM      3  H9  <0> d           1.273  -2.392   0.336  0.00  0.00     0.039 H 
ENDROOT
BRANCH   1   4
ATOM      4  C3  <0> d           0.742  -0.511   1.242  0.00  0.00    -0.062 C 
ATOM      5  H6  <0> d           1.765  -0.134   1.234  0.00  0.00     0.033 H 
ATOM      6  H7  <0> d           0.232  -0.159   2.138  0.00  0.00     0.033 H 
BRANCH   4   7
ATOM      7  C2  <0> d           0.002  -0.004   0.002  0.00  0.00    -0.068 C 
ATOM      8  H4  <0> d          -1.020  -0.381   0.010  0.00  0.00     0.032 H 
ATOM      9  H5  <0> d           0.512  -0.356  -0.895  0.00  0.00     0.032 H 
BRANCH   7  10
ATOM     10  C1  <0> d          -0.019   1.526   0.010  0.00  0.00    -0.077 C 
ATOM     11  H1  <0> d           1.004   1.903   0.003  0.00  0.00     0.027 H 
ATOM     12  H2  <0> d          -0.546   1.887  -0.873  0.00  0.00     0.027 H 
ATOM     13  H3  <0> d          -0.529   1.877   0.907  0.00  0.00     0.027 H 
ENDBRANCH   7  10
ENDBRANCH   4   7
ENDBRANCH   1   4
BRANCH   1  14
ATOM     14  C5  <0> d           1.492  -2.540   2.454  0.00  0.00     0.153 C 
BRANCH  14  15
ATOM     15  C6  <0> d           0.821  -2.866   3.528  0.00  0.00    -0.141 C 
BRANCH  15  16
ATOM     16  C7  <0> d           0.151  -3.192   4.601  0.00  0.00    -0.009 C 
ATOM     17  H10 <0> d          -0.050  -2.449   5.359  0.00  0.00     0.051 H 
ATOM     18  H11 <0> d          -0.202  -4.204   4.731  0.00  0.00     0.051 H 
ENDBRANCH  15  16
ENDBRANCH  14  15
BRANCH  14  19
ATOM     19  O1  <0> d           2.840  -2.651   2.439  0.00  0.00    -0.369 OA
BRANCH  19  20
ATOM     20  C8  <0> d           3.465  -3.131   3.631  0.00  0.00     0.006 C 
ATOM     21  H12 <0> d           4.544  -3.171   3.484  0.00  0.00     0.066 H 
ATOM     22  H13 <0> d           3.236  -2.458   4.457  0.00  0.00     0.066 H 
ATOM     23  H14 <0> d           3.092  -4.129   3.860  0.00  0.00     0.066 H 
ENDBRANCH  19  20
ENDBRANCH  14  19
ENDBRANCH   1  14
TORSDOF 8
