REMARK  1 active torsions:
REMARK  status: ('A' for Active; 'I' for Inactive)
REMARK    1  A    between atoms: C7_8  and  O1_12 
ROOT
ATOM      1  C1  <0> d           3.906   2.801  -2.974  0.00  0.00    -0.043 A 
ATOM      2  C2  <0> d           4.151   2.902  -1.633  0.00  0.00    -0.052 A 
ATOM      3  C3  <0> d           3.202   2.454  -0.718  0.00  0.00     0.065 A 
ATOM      4  C4  <0> d           1.995   1.901  -1.188  0.00  0.00     0.049 A 
ATOM      5  C5  <0> d           1.765   1.808  -2.564  0.00  0.00    -0.029 A 
ATOM      6  C6  <0> d           2.714   2.255  -3.440  0.00  0.00     0.117 A 
ATOM      7  F1  <0> d           2.493   2.167  -4.770  0.00  0.00    -0.206 F 
ATOM      8  C7  <0> d           1.223   1.533  -0.001  0.00  0.00     0.194 A 
ATOM      9  N1  <0> d           1.930   1.855   1.048  0.00  0.00    -0.148 NA
ATOM     10  N2  <0> d           3.148   2.416   0.651  0.00  0.00    -0.275 N 
ATOM     11  H1  <0> d           3.866   2.739   1.269  0.00  0.00     0.189 HD
ATOM     12  H2  <0> d           4.645   3.150  -3.679  0.00  0.00     0.088 H 
ATOM     13  H3  <0> d           5.080   3.328  -1.284  0.00  0.00     0.087 H 
ATOM     14  H4  <0> d           0.842   1.384  -2.933  0.00  0.00     0.089 H 
ENDROOT
BRANCH   8  15
ATOM     15  O1  <0> d          -0.011   0.963   0.007  0.00  0.00    -0.343 OA
ATOM     16  H5  <0> d          -0.305   0.818   0.952  0.00  0.00     0.219 HD
ENDBRANCH   8  15
TORSDOF 1
