REMARK  7 active torsions:
REMARK  status: ('A' for Active; 'I' for Inactive)
REMARK    1  A    between atoms: C1_1  and  C2_2 
REMARK    2  A    between atoms: C2_2  and  O1_3 
REMARK    3  A    between atoms: O1_3  and  C3_4 
REMARK    4  A    between atoms: C3_4  and  C4_5 
REMARK    5  A    between atoms: C3_4  and  O2_8 
REMARK    6  A    between atoms: O2_8  and  C6_9 
REMARK    7  A    between atoms: C6_9  and  C7_10 
ROOT
ATOM      1  C4  <0> d          -0.141   2.023  -0.383  0.00  0.00     0.060 C 
ATOM      2  C5  <0> d          -0.517   0.610  -0.214  0.00  0.00     0.064 C 
ATOM      3  N1  <0> d          -0.807  -0.480  -0.084  0.00  0.00    -0.197 NA
ATOM      4  H7  <0> d          -0.428   2.359  -1.379  0.00  0.00     0.062 H 
ATOM      5  H8  <0> d          -0.652   2.627   0.366  0.00  0.00     0.062 H 
ENDROOT
BRANCH   1   6
ATOM      6  C3  <0> d           1.373   2.172  -0.212  0.00  0.00     0.142 C 
ATOM      7  H6  <0> d           1.651   3.218  -0.336  0.00  0.00     0.130 H 
BRANCH   6   8
ATOM      8  O1  <0> d           1.750   1.731   1.094  0.00  0.00    -0.361 OA
BRANCH   8   9
ATOM      9  C2  <0> d           2.898   2.397   1.624  0.00  0.00     0.019 C 
ATOM     10  H4  <0> d           3.724   2.312   0.918  0.00  0.00     0.073 H 
ATOM     11  H5  <0> d           2.665   3.449   1.786  0.00  0.00     0.073 H 
BRANCH   9  12
ATOM     12  C1  <0> d           3.294   1.751   2.953  0.00  0.00    -0.056 C 
ATOM     13  H1  <0> d           3.527   0.699   2.791  0.00  0.00     0.030 H 
ATOM     14  H2  <0> d           4.170   2.259   3.357  0.00  0.00     0.030 H 
ATOM     15  H3  <0> d           2.468   1.836   3.659  0.00  0.00     0.030 H 
ENDBRANCH   9  12
ENDBRANCH   8   9
ENDBRANCH   6   8
BRANCH   6  16
ATOM     16  O2  <0> d           2.043   1.380  -1.194  0.00  0.00    -0.361 OA
BRANCH  16  17
ATOM     17  C6  <0> d           3.434   1.678  -1.330  0.00  0.00     0.019 C 
ATOM     18  H9  <0> d           3.561   2.746  -1.504  0.00  0.00     0.073 H 
ATOM     19  H10 <0> d           3.958   1.393  -0.418  0.00  0.00     0.073 H 
BRANCH  17  20
ATOM     20  C7  <0> d           4.010   0.896  -2.513  0.00  0.00    -0.056 C 
ATOM     21  H11 <0> d           3.882  -0.172  -2.339  0.00  0.00     0.030 H 
ATOM     22  H12 <0> d           3.486   1.181  -3.426  0.00  0.00     0.030 H 
ATOM     23  H13 <0> d           5.071   1.124  -2.617  0.00  0.00     0.030 H 
ENDBRANCH  17  20
ENDBRANCH  16  17
ENDBRANCH   6  16
ENDBRANCH   1   6
TORSDOF 7
