REMARK  2 active torsions:
REMARK  status: ('A' for Active; 'I' for Inactive)
REMARK    1  A    between atoms: C2_2  and  C3_3 
REMARK    2  A    between atoms: C6_6  and  C9_9 
ROOT
ATOM      1  C1  <0> d           0.018  -1.178  -0.004  0.00  0.00    -0.149 C 
ATOM      2  C2  <0> d           0.002  -0.004   0.002  0.00  0.00    -0.078 C 
ATOM      3  H1  <0> d           0.032  -2.228  -0.010  0.00  0.00     0.166 H 
ENDROOT
BRANCH   2   4
ATOM      4  C3  <0> d          -0.017   1.428   0.010  0.00  0.00     0.017 A 
ATOM      5  C8  <0> d           1.183   2.143   0.002  0.00  0.00    -0.064 A 
ATOM      6  C7  <0> d           1.164   3.519   0.005  0.00  0.00    -0.064 A 
ATOM      7  H5  <0> d           2.125   1.615  -0.009  0.00  0.00     0.085 H 
ATOM      8  C6  <0> d          -0.055   4.201   0.026  0.00  0.00     0.017 A 
ATOM      9  H4  <0> d           2.092   4.072  -0.005  0.00  0.00     0.085 H 
ATOM     10  C5  <0> d          -1.255   3.486   0.039  0.00  0.00    -0.064 A 
ATOM     11  C4  <0> d          -1.236   2.110   0.031  0.00  0.00    -0.064 A 
ATOM     12  H3  <0> d          -2.197   4.013   0.054  0.00  0.00     0.085 H 
ATOM     13  H2  <0> d          -2.164   1.557   0.041  0.00  0.00     0.085 H 
BRANCH   8  14
ATOM     14  C9  <0> d          -0.074   5.633   0.033  0.00  0.00    -0.078 C 
ATOM     15  C10 <0> d          -0.090   6.806   0.038  0.00  0.00    -0.149 C 
ATOM     16  H6  <0> d          -0.105   7.856   0.043  0.00  0.00     0.166 H 
ENDBRANCH   8  14
ENDBRANCH   2   4
TORSDOF 2
