REMARK  7 active torsions:
REMARK  status: ('A' for Active; 'I' for Inactive)
REMARK    1  A    between atoms: C1_1  and  C2_2 
REMARK    2  A    between atoms: C2_2  and  O1_3 
REMARK    3  A    between atoms: O1_3  and  C3_4 
REMARK    4  A    between atoms: C3_4  and  C4_6 
REMARK    5  A    between atoms: C4_6  and  C5_7 
REMARK    6  A    between atoms: C4_6  and  C6_8 
REMARK    7  A    between atoms: C4_6  and  N1_9 
ROOT
ATOM      1  C4  <0> d           1.468  -2.353  -2.550  0.00  0.00     0.234 C 
ENDROOT
BRANCH   1   2
ATOM      2  C3  <0> d           0.775  -1.794  -1.334  0.00  0.00     0.297 C 
ATOM      3  O2  <0> d           0.314  -2.540  -0.504  0.00  0.00    -0.262 OA
BRANCH   2   4
ATOM      4  O1  <0> d           0.671  -0.465  -1.174  0.00  0.00    -0.320 OA
BRANCH   4   5
ATOM      5  C2  <0> d           0.002  -0.004   0.002  0.00  0.00     0.026 C 
ATOM      6  H4  <0> d           0.529  -0.365   0.885  0.00  0.00     0.074 H 
ATOM      7  H5  <0> d          -1.020  -0.381   0.010  0.00  0.00     0.074 H 
BRANCH   5   8
ATOM      8  C1  <0> d          -0.019   1.526   0.010  0.00  0.00    -0.056 C 
ATOM      9  H1  <0> d           1.004   1.903   0.003  0.00  0.00     0.030 H 
ATOM     10  H2  <0> d          -0.546   1.887  -0.873  0.00  0.00     0.030 H 
ATOM     11  H3  <0> d          -0.529   1.877   0.907  0.00  0.00     0.030 H 
ENDBRANCH   5   8
ENDBRANCH   4   5
ENDBRANCH   2   4
ENDBRANCH   1   2
BRANCH   1  12
ATOM     12  C5  <0> d           2.975  -2.413  -2.296  0.00  0.00    -0.034 C 
ATOM     13  H6  <0> d           3.174  -3.054  -1.437  0.00  0.00     0.031 H 
ATOM     14  H7  <0> d           3.476  -2.818  -3.175  0.00  0.00     0.031 H 
ATOM     15  H8  <0> d           3.350  -1.410  -2.094  0.00  0.00     0.031 H 
ENDBRANCH   1  12
BRANCH   1  16
ATOM     16  C6  <0> d           0.942  -3.762  -2.833  0.00  0.00    -0.034 C 
ATOM     17  H9  <0> d          -0.132  -3.720  -3.014  0.00  0.00     0.031 H 
ATOM     18  H10 <0> d           1.443  -4.167  -3.712  0.00  0.00     0.031 H 
ATOM     19  H11 <0> d           1.141  -4.403  -1.974  0.00  0.00     0.031 H 
ENDBRANCH   1  16
BRANCH   1  20
ATOM     20  N1  <0> d           1.200  -1.489  -3.707  0.00  0.00     0.097 N 
ATOM     21  H12 <0> d           1.480  -0.538  -3.521  0.00  0.00     0.314 HD
ATOM     22  H13 <0> d           1.654  -1.844  -4.536  0.00  0.00     0.314 HD
ENDBRANCH   1  20
TORSDOF 7
