REMARK  6 active torsions:
REMARK  status: ('A' for Active; 'I' for Inactive)
REMARK    1  A    between atoms: C1_1  and  C2_2 
REMARK    2  A    between atoms: C4_4  and  C9_11 
REMARK    3  A    between atoms: N1_5  and  C5_7 
REMARK    4  A    between atoms: C5_7  and  C6_8 
REMARK    5  A    between atoms: C5_7  and  C7_9 
REMARK    6  A    between atoms: C5_7  and  C8_10 
ROOT
ATOM      1  C2  <0> d          -1.626   1.972   3.223  0.00  0.00     0.053 A 
ATOM      2  C3  <0> d          -1.537   3.296   2.780  0.00  0.00    -0.035 A 
ATOM      3  C4  <0> d          -0.941   3.290   1.565  0.00  0.00     0.029 A 
ATOM      4  N1  <0> d          -0.672   2.006   1.246  0.00  0.00    -0.265 N 
ATOM      5  N2  <0> d          -1.108   1.198   2.304  0.00  0.00    -0.177 NA
ATOM      6  H4  <0> d          -1.879   4.170   3.316  0.00  0.00     0.089 H 
ENDROOT
BRANCH   4   7
ATOM      7  C5  <0> d          -0.031   1.541   0.013  0.00  0.00     0.045 C 
BRANCH   7   8
ATOM      8  C6  <0> d          -0.047   0.012  -0.024  0.00  0.00    -0.052 C 
ATOM      9  H5  <0> d           0.495  -0.378   0.838  0.00  0.00     0.030 H 
ATOM     10  H6  <0> d          -1.078  -0.342   0.006  0.00  0.00     0.030 H 
ATOM     11  H7  <0> d           0.430  -0.335  -0.941  0.00  0.00     0.030 H 
ENDBRANCH   7   8
BRANCH   7  12
ATOM     12  C7  <0> d           1.416   2.037  -0.028  0.00  0.00    -0.052 C 
ATOM     13  H8  <0> d           1.924   1.603  -0.888  0.00  0.00     0.030 H 
ATOM     14  H9  <0> d           1.425   3.124  -0.110  0.00  0.00     0.030 H 
ATOM     15  H10 <0> d           1.929   1.738   0.886  0.00  0.00     0.030 H 
ENDBRANCH   7  12
BRANCH   7  16
ATOM     16  C8  <0> d          -0.792   2.088  -1.195  0.00  0.00    -0.052 C 
ATOM     17  H11 <0> d          -1.823   1.735  -1.166  0.00  0.00     0.030 H 
ATOM     18  H12 <0> d          -0.781   3.178  -1.169  0.00  0.00     0.030 H 
ATOM     19  H13 <0> d          -0.316   1.742  -2.112  0.00  0.00     0.030 H 
ENDBRANCH   7  16
ENDBRANCH   4   7
BRANCH   3  20
ATOM     20  C9  <0> d          -0.636   4.498   0.719  0.00  0.00    -0.036 C 
ATOM     21  H14 <0> d          -1.515   4.760   0.128  0.00  0.00     0.035 H 
ATOM     22  H15 <0> d          -0.370   5.336   1.363  0.00  0.00     0.035 H 
ATOM     23  H16 <0> d           0.196   4.274   0.051  0.00  0.00     0.035 H 
ENDBRANCH   3  20
BRANCH   1  24
ATOM     24  C1  <0> d          -2.218   1.516   4.532  0.00  0.00    -0.034 C 
ATOM     25  H1  <0> d          -1.439   1.493   5.294  0.00  0.00     0.035 H 
ATOM     26  H2  <0> d          -3.004   2.208   4.836  0.00  0.00     0.035 H 
ATOM     27  H3  <0> d          -2.639   0.518   4.412  0.00  0.00     0.035 H 
ENDBRANCH   1  24
TORSDOF 6
