REMARK  5 active torsions:
REMARK  status: ('A' for Active; 'I' for Inactive)
REMARK    1  A    between atoms: C1_1  and  C2_2 
REMARK    2  A    between atoms: C2_2  and  C3_3 
REMARK    3  A    between atoms: C2_2  and  C4_4 
REMARK    4  A    between atoms: C2_2  and  N1_6 
REMARK    5  A    between atoms: C4_4  and  O1_5 
ROOT
ATOM      1  C2  <0> d          -0.729   1.579   1.267  0.00  0.00     0.050 C 
ENDROOT
BRANCH   1   2
ATOM      2  C1  <0> d          -0.750   3.109   1.275  0.00  0.00    -0.051 C 
ATOM      3  H1  <0> d          -1.277   3.470   0.392  0.00  0.00     0.030 H 
ATOM      4  H2  <0> d          -1.260   3.461   2.172  0.00  0.00     0.030 H 
ATOM      5  H3  <0> d           0.273   3.486   1.268  0.00  0.00     0.030 H 
ENDBRANCH   1   2
BRANCH   1   6
ATOM      6  C3  <0> d          -2.164   1.050   1.278  0.00  0.00    -0.051 C 
ATOM      7  H4  <0> d          -2.149  -0.040   1.272  0.00  0.00     0.030 H 
ATOM      8  H5  <0> d          -2.674   1.401   2.175  0.00  0.00     0.030 H 
ATOM      9  H6  <0> d          -2.691   1.411   0.395  0.00  0.00     0.030 H 
ENDBRANCH   1   6
BRANCH   1  10
ATOM     10  C4  <0> d          -0.013   1.086   0.008  0.00  0.00     0.040 C 
ATOM     11  H7  <0> d           0.002  -0.004   0.002  0.00  0.00     0.077 H 
ATOM     12  H8  <0> d           1.010   1.463   0.000  0.00  0.00     0.077 H 
BRANCH  10  13
ATOM     13  O1  <0> d          -0.704   1.559  -1.150  0.00  0.00    -0.398 OA
ATOM     14  H9  <0> d          -0.304   1.284  -1.986  0.00  0.00     0.209 HD
ENDBRANCH  10  13
ENDBRANCH   1  10
BRANCH   1  15
ATOM     15  N1  <0> d          -0.020   1.094   2.454  0.00  0.00    -0.355 N 
ATOM     16  C8  <0> d          -0.376   1.340   3.747  0.00  0.00    -0.020 A 
ATOM     17  C7  <0> d           0.516   0.728   4.553  0.00  0.00    -0.067 A 
ATOM     18  H13 <0> d          -1.225   1.924   4.070  0.00  0.00     0.111 H 
ATOM     19  C6  <0> d           1.456   0.081   3.727  0.00  0.00    -0.067 A 
ATOM     20  H12 <0> d           0.510   0.733   5.633  0.00  0.00     0.085 H 
ATOM     21  C5  <0> d           1.100   0.317   2.448  0.00  0.00    -0.020 A 
ATOM     22  H11 <0> d           2.304  -0.501   4.057  0.00  0.00     0.085 H 
ATOM     23  H10 <0> d           1.615  -0.045   1.570  0.00  0.00     0.111 H 
ENDBRANCH   1  15
TORSDOF 5
