REMARK  2 active torsions:
REMARK  status: ('A' for Active; 'I' for Inactive)
REMARK    1  A    between atoms: C2_2  and  O2_9 
REMARK    2  A    between atoms: C4_5  and  N3_7 
ROOT
ATOM      1  C1  <0> d          -0.016   1.329   0.009  0.00  0.00     0.058 A 
ATOM      2  C2  <0> d           1.157   2.029   0.002  0.00  0.00     0.153 A 
ATOM      3  C3  <0> d           2.374   1.317  -0.014  0.00  0.00     0.294 A 
ATOM      4  N1  <0> d           2.335  -0.033  -0.021  0.00  0.00    -0.152 N 
ATOM      5  C4  <0> d           1.135  -0.675  -0.012  0.00  0.00     0.700 A 
ATOM      6  N2  <0> d           0.002  -0.004   0.002  0.00  0.00    -0.074 NA
ATOM      7  O1  <0> d           3.441   1.909  -0.021  0.00  0.00    -0.265 OA
ATOM      8  H1  <0> d          -0.959   1.855   0.026  0.00  0.00     0.120 H 
ATOM      9  H5  <0> d           3.160  -0.543  -0.031  0.00  0.00     0.187 HD
ENDROOT
BRANCH   5  10
ATOM     10  N3  <0> d           1.105  -2.046  -0.019  0.00  0.00    -0.233 N 
ATOM     11  H2  <0> d           1.935  -2.549  -0.030  0.00  0.00     0.174 HD
ATOM     12  H3  <0> d           0.255  -2.513  -0.014  0.00  0.00     0.174 HD
ENDBRANCH   5  10
BRANCH   2  13
ATOM     13  O2  <0> d           1.151   3.391   0.009  0.00  0.00    -0.355 OA
ATOM     14  H4  <0> d           0.266   3.780   0.019  0.00  0.00     0.218 HD
ENDBRANCH   2  13
TORSDOF 2
