REMARK  4 active torsions:
REMARK  status: ('A' for Active; 'I' for Inactive)
REMARK    1  A    between atoms: C1_1  and  C2_2 
REMARK    2  A    between atoms: C2_2  and  C3_3 
REMARK    3  A    between atoms: C5_5  and  C7_10 
REMARK    4  A    between atoms: C6_7  and  N3_9 
ROOT
ATOM      1  C3  <0> d           0.707  -0.490  -1.238  0.00  0.00     0.055 A 
ATOM      2  C4  <0> d           1.788  -1.352  -1.138  0.00  0.00    -0.035 A 
ATOM      3  C5  <0> d           2.405  -1.780  -2.303  0.00  0.00     0.051 A 
ATOM      4  N1  <0> d           1.953  -1.347  -3.468  0.00  0.00    -0.068 NA
ATOM      5  C6  <0> d           0.921  -0.518  -3.529  0.00  0.00     0.720 A 
ATOM      6  N2  <0> d           0.306  -0.095  -2.435  0.00  0.00    -0.068 NA
ATOM      7  H6  <0> d           2.140  -1.686  -0.173  0.00  0.00     0.089 H 
ENDROOT
BRANCH   1   8
ATOM      8  C2  <0> d           0.002  -0.004   0.002  0.00  0.00    -0.027 C 
ATOM      9  H4  <0> d           0.529  -0.365   0.885  0.00  0.00     0.041 H 
ATOM     10  H5  <0> d          -1.020  -0.381   0.010  0.00  0.00     0.041 H 
BRANCH   8  11
ATOM     11  C1  <0> d          -0.019   1.526   0.010  0.00  0.00    -0.071 C 
ATOM     12  H1  <0> d           1.004   1.903   0.003  0.00  0.00     0.028 H 
ATOM     13  H2  <0> d          -0.546   1.887  -0.873  0.00  0.00     0.028 H 
ATOM     14  H3  <0> d          -0.529   1.877   0.907  0.00  0.00     0.028 H 
ENDBRANCH   8  11
ENDBRANCH   1   8
BRANCH   5  15
ATOM     15  N3  <0> d           0.475  -0.085  -4.766  0.00  0.00    -0.231 N 
ATOM     16  H7  <0> d          -0.280   0.521  -4.823  0.00  0.00     0.174 HD
ATOM     17  H8  <0> d           0.917  -0.388  -5.574  0.00  0.00     0.174 HD
ENDBRANCH   5  15
BRANCH   3  18
ATOM     18  C7  <0> d           3.580  -2.722  -2.242  0.00  0.00    -0.035 C 
ATOM     19  H9  <0> d           4.503  -2.147  -2.178  0.00  0.00     0.035 H 
ATOM     20  H10 <0> d           3.488  -3.361  -1.365  0.00  0.00     0.035 H 
ATOM     21  H11 <0> d           3.597  -3.339  -3.141  0.00  0.00     0.035 H 
ENDBRANCH   3  18
TORSDOF 4
