REMARK  1 active torsions:
REMARK  status: ('A' for Active; 'I' for Inactive)
REMARK    1  A    between atoms: C2_2  and  C3_3 
ROOT
ATOM      1  C3  <0> d           1.158   1.791   0.001  0.00  0.00     0.004 A 
ATOM      2  C4  <0> d          -0.013   1.076   0.008  0.00  0.00    -0.066 A 
ATOM      3  C5  <0> d          -1.206   1.762   0.017  0.00  0.00    -0.075 A 
ATOM      4  C6  <0> d          -1.190   3.120   0.030  0.00  0.00    -0.044 A 
ATOM      5  S1  <0> d           0.560   3.474   0.015  0.00  0.00    -0.102 SA
ATOM      6  H4  <0> d           0.002  -0.004   0.002  0.00  0.00     0.085 H 
ATOM      7  H5  <0> d          -2.144   1.226   0.018  0.00  0.00     0.084 H 
ATOM      8  H6  <0> d          -2.021   3.809   0.042  0.00  0.00     0.095 H 
ENDROOT
BRANCH   1   9
ATOM      9  C2  <0> d           2.545   1.300  -0.015  0.00  0.00    -0.075 C 
ATOM     10  C1  <0> d           3.556   2.164  -0.020  0.00  0.00    -0.120 C 
ATOM     11  H1  <0> d           4.592   1.797  -0.032  0.00  0.00     0.066 H 
ATOM     12  H2  <0> d           3.355   3.245  -0.013  0.00  0.00     0.066 H 
ATOM     13  H3  <0> d           2.745   0.219  -0.023  0.00  0.00     0.084 H 
ENDBRANCH   1   9
TORSDOF 1
