REMARK  0 active torsions:
REMARK  status: ('A' for Active; 'I' for Inactive)
ROOT
ATOM      1  C1  <0> d          -0.017   1.398   0.010  0.00  0.00    -0.069 A 
ATOM      2  C2  <0> d           1.159   2.085   0.002  0.00  0.00    -0.045 A 
ATOM      3  C3  <0> d           2.383   1.415  -0.013  0.00  0.00     0.117 A 
ATOM      4  C4  <0> d           2.438   0.051  -0.021  0.00  0.00    -0.034 A 
ATOM      5  C5  <0> d           1.246  -0.688  -0.013  0.00  0.00    -0.005 A 
ATOM      6  C6  <0> d           0.002  -0.004   0.002  0.00  0.00    -0.023 A 
ATOM      7  C7  <0> d          -1.178  -0.770   0.009  0.00  0.00    -0.055 A 
ATOM      8  C8  <0> d          -1.076  -2.128   0.000  0.00  0.00     0.003 A 
ATOM      9  N1  <0> d           0.099  -2.742  -0.015  0.00  0.00    -0.272 NA
ATOM     10  C9  <0> d           1.240  -2.093  -0.022  0.00  0.00     0.013 A 
ATOM     11  F1  <0> d           3.531   2.127  -0.022  0.00  0.00    -0.206 F 
ATOM     12  H1  <0> d          -0.957   1.929   0.026  0.00  0.00     0.085 H 
ATOM     13  H2  <0> d           1.144   3.165   0.008  0.00  0.00     0.088 H 
ATOM     14  H3  <0> d           3.392  -0.454  -0.034  0.00  0.00     0.089 H 
ATOM     15  H4  <0> d          -2.146  -0.290   0.021  0.00  0.00     0.087 H 
ATOM     16  H5  <0> d          -1.978  -2.722   0.005  0.00  0.00     0.114 H 
ATOM     17  H6  <0> d           2.172  -2.638  -0.034  0.00  0.00     0.116 H 
ENDROOT
TORSDOF 0
