REMARK  6 active torsions:
REMARK  status: ('A' for Active; 'I' for Inactive)
REMARK    1  A    between atoms: C1_1  and  C2_2 
REMARK    2  A    between atoms: C2_2  and  N1_3 
REMARK       I    between atoms: N1_3  and  C3_4 
REMARK    3  A    between atoms: C3_4  and  C4_6 
REMARK    4  A    between atoms: C4_6  and  C5_7 
REMARK    5  A    between atoms: C4_6  and  C6_8 
REMARK    6  A    between atoms: C4_6  and  C7_9 
ROOT
ATOM      1  C4  <0> d          -1.331   2.079   0.020  0.00  0.00     0.030 C 
ENDROOT
BRANCH   1   2
ATOM      2  C3  <0> d          -0.016   1.344   0.009  0.00  0.00     0.225 C 
ATOM      3  N1  <0> d           0.002  -0.004   0.002  0.00  0.00    -0.361 N 
ATOM      4  H6  <0> d          -0.831  -0.500   0.007  0.00  0.00     0.162 HD
ATOM      5  O1  <0> d           1.026   1.964   0.003  0.00  0.00    -0.273 OA
BRANCH   3   6
ATOM      6  C2  <0> d           1.281  -0.719  -0.014  0.00  0.00    -0.008 C 
ATOM      7  H4  <0> d           1.840  -0.443  -0.908  0.00  0.00     0.063 H 
ATOM      8  H5  <0> d           1.857  -0.453   0.872  0.00  0.00     0.063 H 
BRANCH   6   9
ATOM      9  C1  <0> d           1.021  -2.227  -0.020  0.00  0.00    -0.061 C 
ATOM     10  H1  <0> d           1.973  -2.759  -0.032  0.00  0.00     0.029 H 
ATOM     11  H2  <0> d           0.462  -2.503   0.874  0.00  0.00     0.029 H 
ATOM     12  H3  <0> d           0.445  -2.493  -0.906  0.00  0.00     0.029 H 
ENDBRANCH   6   9
ENDBRANCH   3   6
ENDBRANCH   1   2
BRANCH   1  13
ATOM     13  C5  <0> d          -1.072   3.587   0.027  0.00  0.00    -0.061 C 
ATOM     14  H7  <0> d          -0.508   3.863  -0.865  0.00  0.00     0.029 H 
ATOM     15  H8  <0> d          -2.023   4.119   0.034  0.00  0.00     0.029 H 
ATOM     16  H9  <0> d          -0.500   3.853   0.915  0.00  0.00     0.029 H 
ENDBRANCH   1  13
BRANCH   1  17
ATOM     17  C6  <0> d          -2.135   1.706  -1.228  0.00  0.00    -0.061 C 
ATOM     18  H10 <0> d          -2.319   0.631  -1.233  0.00  0.00     0.029 H 
ATOM     19  H11 <0> d          -3.086   2.238  -1.220  0.00  0.00     0.029 H 
ATOM     20  H12 <0> d          -1.571   1.981  -2.119  0.00  0.00     0.029 H 
ENDBRANCH   1  17
BRANCH   1  21
ATOM     21  C7  <0> d          -2.123   1.692   1.271  0.00  0.00    -0.061 C 
ATOM     22  H13 <0> d          -1.550   1.958   2.159  0.00  0.00     0.029 H 
ATOM     23  H14 <0> d          -3.074   2.224   1.278  0.00  0.00     0.029 H 
ATOM     24  H15 <0> d          -2.307   0.618   1.266  0.00  0.00     0.029 H 
ENDBRANCH   1  21
TORSDOF 6
