REMARK  1 active torsions:
REMARK  status: ('A' for Active; 'I' for Inactive)
REMARK    1  A    between atoms: C2_2  and  C3_3 
ROOT
ATOM      1  C3  <0> d           1.185   1.795   0.000  0.00  0.00    -0.028 A 
ATOM      2  C4  <0> d          -0.013   1.076   0.008  0.00  0.00    -0.072 A 
ATOM      3  C5  <0> d          -1.214   1.754   0.017  0.00  0.00    -0.080 A 
ATOM      4  C6  <0> d          -1.241   3.134   0.034  0.00  0.00    -0.050 A 
ATOM      5  C7  <0> d          -0.054   3.865   0.030  0.00  0.00     0.075 A 
ATOM      6  C8  <0> d           1.154   3.184   0.008  0.00  0.00    -0.013 A 
ATOM      7  C9  <0> d           2.253   4.228  -0.015  0.00  0.00    -0.017 C 
ATOM      8  C10 <0> d           1.473   5.506  -0.402  0.00  0.00     0.030 C 
ATOM      9  O1  <0> d           0.140   5.213   0.050  0.00  0.00    -0.350 OA
ATOM     10  H4  <0> d           0.002  -0.004   0.002  0.00  0.00     0.084 H 
ATOM     11  H5  <0> d          -2.142   1.200   0.016  0.00  0.00     0.083 H 
ATOM     12  H6  <0> d          -2.188   3.651   0.046  0.00  0.00     0.087 H 
ATOM     13  H7  <0> d           2.720   4.291   0.980  0.00  0.00     0.043 H 
ATOM     14  H8  <0> d           3.013   3.944  -0.758  0.00  0.00     0.043 H 
ATOM     15  H9  <0> d           1.913   6.374   0.111  0.00  0.00     0.075 H 
ATOM     16  H10 <0> d           1.529   5.655  -1.490  0.00  0.00     0.075 H 
ENDROOT
BRANCH   1  17
ATOM     17  C2  <0> d           2.479   1.081  -0.015  0.00  0.00    -0.081 C 
ATOM     18  C1  <0> d           2.506  -0.244  -0.022  0.00  0.00    -0.120 C 
ATOM     19  H1  <0> d           3.469  -0.775  -0.034  0.00  0.00     0.066 H 
ATOM     20  H2  <0> d           1.564  -0.813  -0.016  0.00  0.00     0.066 H 
ATOM     21  H3  <0> d           3.421   1.650  -0.021  0.00  0.00     0.083 H 
ENDBRANCH   1  17
TORSDOF 1
