REMARK  1 active torsions:
REMARK  status: ('A' for Active; 'I' for Inactive)
REMARK    1  A    between atoms: C1_1  and  C2_2 
ROOT
ATOM      1  C2  <0> d          -0.019   3.797   0.022  0.00  0.00    -0.004 A 
ATOM      2  C3  <0> d          -1.232   3.129   0.030  0.00  0.00    -0.071 A 
ATOM      3  C4  <0> d          -1.223   1.742   0.017  0.00  0.00    -0.065 A 
ATOM      4  C5  <0> d          -0.013   1.076   0.008  0.00  0.00     0.005 A 
ATOM      5  N1  <0> d           1.125   1.743   0.001  0.00  0.00    -0.233 NA
ATOM      6  C6  <0> d           1.155   3.063   0.007  0.00  0.00     0.215 A 
ATOM      7  F1  <0> d           2.345   3.704  -0.000  0.00  0.00    -0.184 F 
ATOM      8  H4  <0> d          -2.164   3.675   0.041  0.00  0.00     0.084 H 
ATOM      9  H5  <0> d          -2.151   1.189   0.019  0.00  0.00     0.085 H 
ATOM     10  H6  <0> d           0.002  -0.004   0.002  0.00  0.00     0.114 H 
ENDROOT
BRANCH   1  11
ATOM     11  C1  <0> d           0.023   5.304   0.029  0.00  0.00    -0.047 C 
ATOM     12  H1  <0> d           0.023   5.673  -0.996  0.00  0.00     0.033 H 
ATOM     13  H2  <0> d          -0.852   5.689   0.553  0.00  0.00     0.033 H 
ATOM     14  H3  <0> d           0.927   5.640   0.537  0.00  0.00     0.033 H 
ENDBRANCH   1  11
TORSDOF 1
