REMARK  4 active torsions:
REMARK  status: ('A' for Active; 'I' for Inactive)
REMARK    1  A    between atoms: C1_1  and  C2_2 
REMARK    2  A    between atoms: C2_2  and  C3_3 
REMARK    3  A    between atoms: C5_5  and  N4_10 
REMARK    4  A    between atoms: C6_7  and  N3_9 
ROOT
ATOM      1  C3  <0> d           0.707  -0.490  -1.238  0.00  0.00     0.057 A 
ATOM      2  C4  <0> d           1.784  -1.349  -1.137  0.00  0.00    -0.014 A 
ATOM      3  C5  <0> d           2.406  -1.779  -2.311  0.00  0.00     0.142 A 
ATOM      4  N1  <0> d           1.949  -1.342  -3.480  0.00  0.00    -0.046 NA
ATOM      5  C6  <0> d           0.916  -0.514  -3.534  0.00  0.00     0.722 A 
ATOM      6  N2  <0> d           0.304  -0.094  -2.436  0.00  0.00    -0.068 NA
ATOM      7  H6  <0> d           2.136  -1.683  -0.172  0.00  0.00     0.092 H 
ENDROOT
BRANCH   1   8
ATOM      8  C2  <0> d           0.002  -0.004   0.002  0.00  0.00    -0.027 C 
ATOM      9  H4  <0> d           0.529  -0.365   0.885  0.00  0.00     0.041 H 
ATOM     10  H5  <0> d          -1.020  -0.381   0.010  0.00  0.00     0.041 H 
BRANCH   8  11
ATOM     11  C1  <0> d          -0.019   1.526   0.010  0.00  0.00    -0.071 C 
ATOM     12  H1  <0> d           1.004   1.903   0.003  0.00  0.00     0.028 H 
ATOM     13  H2  <0> d          -0.546   1.887  -0.873  0.00  0.00     0.028 H 
ATOM     14  H3  <0> d          -0.529   1.877   0.907  0.00  0.00     0.028 H 
ENDBRANCH   8  11
ENDBRANCH   1   8
BRANCH   5  15
ATOM     15  N3  <0> d           0.465  -0.077  -4.767  0.00  0.00    -0.231 N 
ATOM     16  H7  <0> d          -0.291   0.529  -4.820  0.00  0.00     0.174 HD
ATOM     17  H8  <0> d           0.904  -0.378  -5.578  0.00  0.00     0.174 HD
ENDBRANCH   5  15
BRANCH   3  18
ATOM     18  N4  <0> d           3.486  -2.645  -2.258  0.00  0.00    -0.383 N 
ATOM     19  H9  <0> d           3.914  -2.937  -3.078  0.00  0.00     0.157 HD
ATOM     20  H10 <0> d           3.813  -2.960  -1.401  0.00  0.00     0.157 HD
ENDBRANCH   3  18
TORSDOF 4
