REMARK  2 active torsions:
REMARK  status: ('A' for Active; 'I' for Inactive)
REMARK    1  A    between atoms: C1_1  and  C2_2 
REMARK    2  A    between atoms: C4_4  and  C8_9 
REMARK       I    between atoms: C8_9  and  N1_11 
ROOT
ATOM      1  C2  <0> d          -3.705   1.899   0.030  0.00  0.00    -0.022 A 
ATOM      2  C3  <0> d          -2.505   1.221   0.021  0.00  0.00    -0.059 A 
ATOM      3  C4  <0> d          -1.304   1.933   0.019  0.00  0.00     0.032 A 
ATOM      4  C5  <0> d          -1.325   3.329   0.032  0.00  0.00    -0.065 A 
ATOM      5  C6  <0> d          -2.531   3.997   0.036  0.00  0.00    -0.044 A 
ATOM      6  C7  <0> d          -3.721   3.285   0.037  0.00  0.00     0.122 A 
ATOM      7  F1  <0> d          -4.900   3.944   0.046  0.00  0.00    -0.206 F 
ATOM      8  H4  <0> d          -2.493   0.141   0.015  0.00  0.00     0.086 H 
ATOM      9  H5  <0> d          -0.399   3.885   0.035  0.00  0.00     0.085 H 
ATOM     10  H6  <0> d          -2.549   5.077   0.042  0.00  0.00     0.088 H 
ENDROOT
BRANCH   3  11
ATOM     11  C8  <0> d          -0.014   1.212   0.009  0.00  0.00     0.249 C 
ATOM     12  O1  <0> d           0.002  -0.004   0.002  0.00  0.00    -0.268 OA
ATOM     13  N1  <0> d           1.143   1.901   0.001  0.00  0.00    -0.366 N 
ATOM     14  H7  <0> d           1.990   1.428  -0.009  0.00  0.00     0.159 HD
ATOM     15  H8  <0> d           1.130   2.871   0.007  0.00  0.00     0.159 HD
ENDBRANCH   3  11
BRANCH   1  16
ATOM     16  C1  <0> d          -5.002   1.131   0.031  0.00  0.00    -0.048 C 
ATOM     17  H1  <0> d          -5.310   0.941   1.059  0.00  0.00     0.033 H 
ATOM     18  H2  <0> d          -5.770   1.716  -0.476  0.00  0.00     0.033 H 
ATOM     19  H3  <0> d          -4.864   0.183  -0.488  0.00  0.00     0.033 H 
ENDBRANCH   1  16
TORSDOF 2
