REMARK  2 active torsions:
REMARK  status: ('A' for Active; 'I' for Inactive)
REMARK    1  A    between atoms: C1_1  and  C2_2 
REMARK    2  A    between atoms: C7_10  and  O2_11 
ROOT
ATOM      1  C2  <0> d          -1.018   4.642   0.037  0.00  0.00     0.003 A 
ATOM      2  C3  <0> d          -0.658   3.225   0.026  0.00  0.00     0.027 A 
ATOM      3  C4  <0> d          -1.119   1.835   0.017  0.00  0.00    -0.047 A 
ATOM      4  C5  <0> d          -0.013   1.076   0.008  0.00  0.00     0.022 A 
ATOM      5  O1  <0> d           1.075   1.866   0.002  0.00  0.00    -0.305 OA
ATOM      6  C6  <0> d           0.724   3.167   0.012  0.00  0.00     0.160 A 
ATOM      7  N1  <0> d           1.190   4.458   0.015  0.00  0.00    -0.316 N 
ATOM      8  H1  <0> d           2.127   4.712   0.008  0.00  0.00     0.170 HD
ATOM      9  C7  <0> d           0.140   5.336   0.030  0.00  0.00     0.148 A 
ATOM     10  H5  <0> d          -2.143   1.490   0.019  0.00  0.00     0.087 H 
ATOM     11  H6  <0> d           0.002  -0.004   0.002  0.00  0.00     0.123 H 
ENDROOT
BRANCH   1  12
ATOM     12  C1  <0> d          -2.411   5.217   0.054  0.00  0.00    -0.046 C 
ATOM     13  H2  <0> d          -2.756   5.361  -0.970  0.00  0.00     0.033 H 
ATOM     14  H3  <0> d          -3.081   4.529   0.570  0.00  0.00     0.033 H 
ATOM     15  H4  <0> d          -2.403   6.175   0.573  0.00  0.00     0.033 H 
ENDBRANCH   1  12
BRANCH   9  16
ATOM     16  O2  <0> d           0.246   6.691   0.037  0.00  0.00    -0.346 OA
ATOM     17  H7  <0> d           0.268   7.088  -0.845  0.00  0.00     0.219 HD
ENDBRANCH   9  16
TORSDOF 2
