REMARK  2 active torsions:
REMARK  status: ('A' for Active; 'I' for Inactive)
REMARK    1  A    between atoms: C1_1  and  C2_2 
REMARK    2  A    between atoms: C2_2  and  C3_3 
REMARK       I    between atoms: N1_9  and  C8_10 
REMARK       I    between atoms: C8_10  and  N2_12 
ROOT
ATOM      1  C3  <0> d           0.735  -0.597  -1.205  0.00  0.00     0.016 C 
ATOM      2  H1  <0> d           0.349  -0.172  -2.132  0.00  0.00     0.072 H 
ATOM      3  C4  <0> d           0.528  -2.114  -1.211  0.00  0.00    -0.046 C 
ATOM      4  C5  <0> d           1.379  -2.737  -2.320  0.00  0.00    -0.062 C 
ATOM      5  C6  <0> d           2.859  -2.452  -2.051  0.00  0.00    -0.050 C 
ATOM      6  C7  <0> d           3.092  -0.938  -2.055  0.00  0.00    -0.000 C 
ATOM      7  N1  <0> d           2.172  -0.312  -1.094  0.00  0.00    -0.330 N 
ATOM      8  C8  <0> d           2.638   0.503  -0.128  0.00  0.00     0.316 C 
ATOM      9  O1  <0> d           1.883   0.930   0.724  0.00  0.00    -0.247 OA
ATOM     10  N2  <0> d           3.942   0.845  -0.106  0.00  0.00    -0.352 N 
ATOM     11  H7  <0> d           0.829  -2.526  -0.247  0.00  0.00     0.036 H 
ATOM     12  H8  <0> d          -0.523  -2.338  -1.391  0.00  0.00     0.036 H 
ATOM     13  H9  <0> d           1.215  -3.814  -2.342  0.00  0.00     0.033 H 
ATOM     14  H10 <0> d           1.095  -2.307  -3.281  0.00  0.00     0.033 H 
ATOM     15  H11 <0> d           3.137  -2.860  -1.080  0.00  0.00     0.035 H 
ATOM     16  H12 <0> d           3.466  -2.916  -2.829  0.00  0.00     0.035 H 
ATOM     17  H13 <0> d           4.121  -0.726  -1.767  0.00  0.00     0.064 H 
ATOM     18  H14 <0> d           2.901  -0.541  -3.052  0.00  0.00     0.064 H 
ATOM     19  H15 <0> d           4.558   0.449  -0.741  0.00  0.00     0.160 HD
ATOM     20  H16 <0> d           4.263   1.488   0.546  0.00  0.00     0.160 HD
ENDROOT
BRANCH   1  21
ATOM     21  C2  <0> d          -0.003   0.017  -0.014  0.00  0.00    -0.049 C 
ATOM     22  H5  <0> d           0.154   1.096  -0.005  0.00  0.00     0.035 H 
ATOM     23  H6  <0> d           0.381  -0.413   0.912  0.00  0.00     0.035 H 
BRANCH  21  24
ATOM     24  C1  <0> d          -1.499  -0.280  -0.132  0.00  0.00    -0.075 C 
ATOM     25  H2  <0> d          -1.901   0.224  -1.012  0.00  0.00     0.027 H 
ATOM     26  H3  <0> d          -1.649  -1.355  -0.228  0.00  0.00     0.027 H 
ATOM     27  H4  <0> d          -2.013   0.081   0.759  0.00  0.00     0.027 H 
ENDBRANCH  21  24
ENDBRANCH   1  21
TORSDOF 2
