REMARK  2 active torsions:
REMARK  status: ('A' for Active; 'I' for Inactive)
REMARK    1  A    between atoms: C1_1  and  C2_2 
REMARK    2  A    between atoms: C4_4  and  O1_9 
ROOT
ATOM      1  C2  <0> d           3.096   2.409  -1.214  0.00  0.00    -0.021 A 
ATOM      2  C3  <0> d           1.842   1.830  -1.206  0.00  0.00    -0.042 A 
ATOM      3  C4  <0> d           1.223   1.533  -0.001  0.00  0.00     0.066 A 
ATOM      4  C5  <0> d           1.863   1.822   1.195  0.00  0.00    -0.048 A 
ATOM      5  C6  <0> d           3.119   2.396   1.185  0.00  0.00    -0.043 A 
ATOM      6  C7  <0> d           3.736   2.692  -0.019  0.00  0.00     0.122 A 
ATOM      7  F1  <0> d           4.963   3.257  -0.028  0.00  0.00    -0.206 F 
ATOM      8  H4  <0> d           1.343   1.609  -2.139  0.00  0.00     0.088 H 
ATOM      9  H5  <0> d           1.380   1.596   2.134  0.00  0.00     0.087 H 
ATOM     10  H6  <0> d           3.619   2.617   2.116  0.00  0.00     0.088 H 
ENDROOT
BRANCH   1  11
ATOM     11  C1  <0> d           3.769   2.732  -2.523  0.00  0.00    -0.048 C 
ATOM     12  H1  <0> d           3.501   3.743  -2.830  0.00  0.00     0.033 H 
ATOM     13  H2  <0> d           4.850   2.664  -2.403  0.00  0.00     0.033 H 
ATOM     14  H3  <0> d           3.443   2.023  -3.284  0.00  0.00     0.033 H 
ENDBRANCH   1  11
BRANCH   3  15
ATOM     15  O1  <0> d          -0.011   0.963   0.007  0.00  0.00    -0.361 OA
ATOM     16  H7  <0> d           0.002  -0.004   0.002  0.00  0.00     0.217 HD
ENDBRANCH   3  15
TORSDOF 2
