REMARK  2 active torsions:
REMARK  status: ('A' for Active; 'I' for Inactive)
REMARK    1  A    between atoms: C1_1  and  C2_2 
REMARK    2  A    between atoms: C7_7  and  N2_12 
ROOT
ATOM      1  C2  <0> d           0.002  -0.004   0.002  0.00  0.00    -0.060 A 
ATOM      2  C3  <0> d           0.005  -0.683  -1.215  0.00  0.00    -0.076 A 
ATOM      3  C4  <0> d           0.023  -2.043  -1.256  0.00  0.00    -0.070 A 
ATOM      4  C5  <0> d           0.039  -2.774  -0.056  0.00  0.00    -0.005 A 
ATOM      5  C6  <0> d           0.058  -4.180  -0.057  0.00  0.00    -0.044 A 
ATOM      6  C7  <0> d           0.073  -4.830   1.162  0.00  0.00     0.044 A 
ATOM      7  C8  <0> d           0.069  -4.082   2.346  0.00  0.00     0.028 A 
ATOM      8  N1  <0> d           0.051  -2.772   2.330  0.00  0.00    -0.258 NA
ATOM      9  C9  <0> d           0.036  -2.086   1.183  0.00  0.00     0.067 A 
ATOM     10  C10 <0> d           0.022  -0.680   1.183  0.00  0.00    -0.049 A 
ATOM     11  H4  <0> d          -0.006  -0.122  -2.138  0.00  0.00     0.084 H 
ATOM     12  H5  <0> d           0.025  -2.558  -2.205  0.00  0.00     0.084 H 
ATOM     13  H6  <0> d           0.061  -4.736  -0.983  0.00  0.00     0.088 H 
ATOM     14  H7  <0> d           0.081  -4.597   3.295  0.00  0.00     0.118 H 
ATOM     15  H8  <0> d           0.024  -0.138   2.117  0.00  0.00     0.087 H 
ENDROOT
BRANCH   1  16
ATOM     16  C1  <0> d          -0.018   1.503   0.010  0.00  0.00    -0.051 C 
ATOM     17  H1  <0> d           1.004   1.880   0.003  0.00  0.00     0.033 H 
ATOM     18  H2  <0> d          -0.545   1.864  -0.873  0.00  0.00     0.033 H 
ATOM     19  H3  <0> d          -0.529   1.854   0.907  0.00  0.00     0.033 H 
ENDBRANCH   1  16
BRANCH   6  20
ATOM     20  N2  <0> d           0.092  -6.226   1.214  0.00  0.00    -0.398 N 
ATOM     21  H9  <0> d           0.095  -6.742   0.393  0.00  0.00     0.156 HD
ATOM     22  H10 <0> d           0.103  -6.679   2.072  0.00  0.00     0.156 HD
ENDBRANCH   6  20
TORSDOF 2
