REMARK  1 active torsions:
REMARK  status: ('A' for Active; 'I' for Inactive)
REMARK    1  A    between atoms: C4_6  and  N4_9 
ROOT
ATOM      1  C1  <0> d          -0.013   1.086   0.008  0.00  0.00     0.027 C 
ATOM      2  C2  <0> d          -0.711   1.572   1.300  0.00  0.00    -0.000 C 
ATOM      3  S1  <0> d          -2.417   1.786   0.647  0.00  0.00    -0.088 SA
ATOM      4  C3  <0> d          -2.007   1.945  -1.078  0.00  0.00     0.205 A 
ATOM      5  N1  <0> d          -0.699   1.560  -1.200  0.00  0.00    -0.155 N 
ATOM      6  C4  <0> d          -0.374   1.734  -2.534  0.00  0.00     0.720 A 
ATOM      7  N2  <0> d          -1.430   2.165  -3.171  0.00  0.00     0.044 NA
ATOM      8  N3  <0> d          -2.471   2.295  -2.243  0.00  0.00    -0.107 NA
ATOM      9  H1  <0> d           0.002  -0.004   0.002  0.00  0.00     0.067 H 
ATOM     10  H2  <0> d           1.013   1.454   0.000  0.00  0.00     0.067 H 
ATOM     11  H3  <0> d          -0.677   0.814   2.082  0.00  0.00     0.052 H 
ATOM     12  H4  <0> d          -0.296   2.518   1.647  0.00  0.00     0.052 H 
ENDROOT
BRANCH   6  13
ATOM     13  N4  <0> d           0.869   1.490  -3.103  0.00  0.00    -0.231 N 
ATOM     14  H5  <0> d           1.600   1.169  -2.552  0.00  0.00     0.174 HD
ATOM     15  H6  <0> d           1.007   1.640  -4.051  0.00  0.00     0.174 HD
ENDBRANCH   6  13
TORSDOF 1
