REMARK  0 active torsions:
REMARK  status: ('A' for Active; 'I' for Inactive)
ROOT
ATOM      1  C1  <0> d          -1.198   3.806   0.034  0.00  0.00    -0.043 A 
ATOM      2  C2  <0> d           0.024   4.452   0.026  0.00  0.00     0.004 A 
ATOM      3  N1  <0> d           1.150   3.767   0.012  0.00  0.00    -0.271 NA
ATOM      4  C3  <0> d           1.161   2.448   0.004  0.00  0.00     0.024 A 
ATOM      5  C4  <0> d          -0.021   1.732   0.012  0.00  0.00     0.073 A 
ATOM      6  C5  <0> d          -1.229   2.419   0.021  0.00  0.00     0.058 A 
ATOM      7 Cl1  <0> d          -2.739   1.564   0.023  0.00  0.00    -0.082 Cl
ATOM      8 Cl2  <0> d           0.002  -0.004   0.002  0.00  0.00    -0.081 Cl
ATOM      9  H1  <0> d          -2.116   4.374   0.045  0.00  0.00     0.088 H 
ATOM     10  H2  <0> d           0.056   5.532   0.032  0.00  0.00     0.114 H 
ATOM     11  H3  <0> d           2.104   1.922  -0.008  0.00  0.00     0.117 H 
ENDROOT
TORSDOF 0
