REMARK  4 active torsions:
REMARK  status: ('A' for Active; 'I' for Inactive)
REMARK    1  A    between atoms: C1_1  and  C2_2 
REMARK    2  A    between atoms: C2_2  and  C3_3 
REMARK    3  A    between atoms: C3_3  and  C4_4 
REMARK    4  A    between atoms: C4_4  and  O1_9 
ROOT
ATOM      1  C4  <0> d          -0.019   1.526   0.010  0.00  0.00     0.058 C 
ATOM      2  C5  <0> d          -0.769   2.037   1.258  0.00  0.00    -0.036 C 
ATOM      3  C6  <0> d          -1.537   3.285   0.753  0.00  0.00    -0.062 C 
ATOM      4  C7  <0> d          -1.984   2.860  -0.668  0.00  0.00    -0.062 C 
ATOM      5  C8  <0> d          -0.790   2.049  -1.214  0.00  0.00    -0.036 C 
ATOM      6  H8  <0> d          -1.466   1.282   1.620  0.00  0.00     0.037 H 
ATOM      7  H9  <0> d          -0.063   2.314   2.041  0.00  0.00     0.037 H 
ATOM      8  H10 <0> d          -0.877   4.152   0.708  0.00  0.00     0.033 H 
ATOM      9  H11 <0> d          -2.401   3.492   1.384  0.00  0.00     0.033 H 
ATOM     10  H12 <0> d          -2.164   3.738  -1.289  0.00  0.00     0.033 H 
ATOM     11  H13 <0> d          -2.877   2.238  -0.617  0.00  0.00     0.033 H 
ATOM     12  H14 <0> d          -0.146   2.691  -1.815  0.00  0.00     0.037 H 
ATOM     13  H15 <0> d          -1.150   1.213  -1.813  0.00  0.00     0.037 H 
ENDROOT
BRANCH   1  14
ATOM     14  C3  <0> d           0.002  -0.004   0.002  0.00  0.00    -0.037 C 
ATOM     15  H6  <0> d          -1.018  -0.381  -0.067  0.00  0.00     0.037 H 
ATOM     16  H7  <0> d           0.578  -0.355  -0.854  0.00  0.00     0.037 H 
BRANCH  14  17
ATOM     17  C2  <0> d           0.647  -0.512   1.293  0.00  0.00    -0.066 C 
ATOM     18  H4  <0> d           1.667  -0.136   1.362  0.00  0.00     0.032 H 
ATOM     19  H5  <0> d           0.071  -0.162   2.149  0.00  0.00     0.032 H 
BRANCH  17  20
ATOM     20  C1  <0> d           0.668  -2.042   1.285  0.00  0.00    -0.076 C 
ATOM     21  H1  <0> d           1.244  -2.393   0.428  0.00  0.00     0.027 H 
ATOM     22  H2  <0> d           1.127  -2.405   2.204  0.00  0.00     0.027 H 
ATOM     23  H3  <0> d          -0.353  -2.419   1.215  0.00  0.00     0.027 H 
ENDBRANCH  17  20
ENDBRANCH  14  17
ENDBRANCH   1  14
BRANCH   1  24
ATOM     24  O1  <0> d           1.317   2.033   0.000  0.00  0.00    -0.390 OA
ATOM     25  H16 <0> d           1.852   1.747   0.753  0.00  0.00     0.210 HD
ENDBRANCH   1  24
TORSDOF 4
