REMARK  3 active torsions:
REMARK  status: ('A' for Active; 'I' for Inactive)
REMARK    1  A    between atoms: C1_1  and  S1_2 
REMARK    2  A    between atoms: S1_2  and  C2_3 
REMARK    3  A    between atoms: C3_4  and  N2_9 
ROOT
ATOM      1  C2  <0> d          -1.702  -0.454   0.016  0.00  0.00     0.118 A 
ATOM      2  C3  <0> d          -2.063  -1.804   0.012  0.00  0.00     0.061 A 
ATOM      3  C4  <0> d          -3.409  -2.140   0.023  0.00  0.00    -0.053 A 
ATOM      4  C5  <0> d          -4.347  -1.115   0.038  0.00  0.00    -0.064 A 
ATOM      5  C6  <0> d          -3.917   0.196   0.041  0.00  0.00     0.004 A 
ATOM      6  N1  <0> d          -2.629   0.489   0.035  0.00  0.00    -0.252 NA
ATOM      7  H4  <0> d          -3.721  -3.174   0.021  0.00  0.00     0.087 H 
ATOM      8  H5  <0> d          -5.403  -1.342   0.047  0.00  0.00     0.085 H 
ATOM      9  H6  <0> d          -4.644   0.994   0.052  0.00  0.00     0.114 H 
ENDROOT
BRANCH   1  10
ATOM     10  S1  <0> d           0.002  -0.004   0.002  0.00  0.00    -0.113 SA
BRANCH  10  11
ATOM     11  C1  <0> d          -0.022   1.810   0.012  0.00  0.00    -0.029 C 
ATOM     12  H1  <0> d           1.010   2.190   0.004  0.00  0.00     0.042 H 
ATOM     13  H2  <0> d          -0.537   2.164   0.917  0.00  0.00     0.042 H 
ATOM     14  H3  <0> d          -0.555   2.174  -0.879  0.00  0.00     0.042 H 
ENDBRANCH  10  11
ENDBRANCH   1  10
BRANCH   2  15
ATOM     15  N2  <0> d          -1.081  -2.802  -0.003  0.00  0.00    -0.397 N 
ATOM     16  H7  <0> d          -1.375  -3.862  -0.006  0.00  0.00     0.156 HD
ATOM     17  H8  <0> d          -0.017  -2.527  -0.012  0.00  0.00     0.156 HD
ENDBRANCH   2  15
TORSDOF 3
