REMARK  0 active torsions:
REMARK  status: ('A' for Active; 'I' for Inactive)
ROOT
ATOM      1  C1  <0> d           0.002  -0.004   0.002  0.00  0.00    -0.043 A 
ATOM      2  C2  <0> d          -0.017   1.389   0.010  0.00  0.00     0.049 A 
ATOM      3  C3  <0> d           1.185   2.102   0.002  0.00  0.00    -0.026 A 
ATOM      4  C4  <0> d           2.392   1.427  -0.014  0.00  0.00     0.119 A 
ATOM      5  C5  <0> d           2.417   0.044  -0.021  0.00  0.00    -0.026 A 
ATOM      6  C6  <0> d           1.221  -0.679  -0.013  0.00  0.00     0.049 A 
ATOM      7  C7  <0> d           1.249  -2.111  -0.022  0.00  0.00     0.099 C 
ATOM      8  N1  <0> d           1.270  -3.247  -0.028  0.00  0.00    -0.191 NA
ATOM      9  F1  <0> d           3.551   2.121  -0.021  0.00  0.00    -0.206 F 
ATOM     10  C8  <0> d          -1.266   2.090   0.019  0.00  0.00     0.099 C 
ATOM     11  N2  <0> d          -2.257   2.646   0.027  0.00  0.00    -0.191 NA
ATOM     12  H1  <0> d          -0.924  -0.559   0.008  0.00  0.00     0.088 H 
ATOM     13  H2  <0> d           1.172   3.182   0.008  0.00  0.00     0.090 H 
ATOM     14  H3  <0> d           3.362  -0.478  -0.033  0.00  0.00     0.090 H 
ENDROOT
TORSDOF 0
