REMARK  1 active torsions:
REMARK  status: ('A' for Active; 'I' for Inactive)
REMARK    1  A    between atoms: C1_1  and  C2_2 
ROOT
ATOM      1  C2  <0> d          -1.222   1.749   0.017  0.00  0.00    -0.020 A 
ATOM      2  C3  <0> d          -0.013   1.076   0.008  0.00  0.00    -0.073 A 
ATOM      3  C4  <0> d           1.173   1.779   0.000  0.00  0.00    -0.059 A 
ATOM      4  C5  <0> d           1.155   3.176   0.008  0.00  0.00     0.086 A 
ATOM      5  C6  <0> d          -0.068   3.852   0.023  0.00  0.00     0.176 A 
ATOM      6  C7  <0> d          -1.252   3.133   0.031  0.00  0.00     0.162 A 
ATOM      7  F1  <0> d          -2.436   3.782   0.046  0.00  0.00    -0.202 F 
ATOM      8  F2  <0> d          -0.096   5.203   0.031  0.00  0.00    -0.201 F 
ATOM      9  C8  <0> d           2.384   3.911   0.001  0.00  0.00     0.102 C 
ATOM     10  N1  <0> d           3.359   4.495  -0.005  0.00  0.00    -0.191 NA
ATOM     11  H4  <0> d           0.002  -0.004   0.002  0.00  0.00     0.084 H 
ATOM     12  H5  <0> d           2.115   1.250  -0.012  0.00  0.00     0.086 H 
ENDROOT
BRANCH   1  13
ATOM     13  C1  <0> d          -2.513   0.972   0.019  0.00  0.00    -0.048 C 
ATOM     14  H1  <0> d          -2.819   0.778   1.047  0.00  0.00     0.033 H 
ATOM     15  H2  <0> d          -3.286   1.549  -0.488  0.00  0.00     0.033 H 
ATOM     16  H3  <0> d          -2.368   0.025  -0.500  0.00  0.00     0.033 H 
ENDBRANCH   1  13
TORSDOF 1
