REMARK  3 active torsions:
REMARK  status: ('A' for Active; 'I' for Inactive)
REMARK    1  A    between atoms: C3_3  and  O1_9 
REMARK    2  A    between atoms: C4_4  and  N2_8 
REMARK    3  A    between atoms: C6_6  and  N1_7 
ROOT
ATOM      1  C1  <0> d          -1.251   3.037   0.030  0.00  0.00    -0.055 A 
ATOM      2  C2  <0> d          -2.457   3.714   0.035  0.00  0.00    -0.047 A 
ATOM      3  C3  <0> d          -3.648   3.010   0.037  0.00  0.00     0.091 A 
ATOM      4  C4  <0> d          -3.634   1.617   0.029  0.00  0.00     0.061 A 
ATOM      5  C5  <0> d          -2.425   0.938   0.019  0.00  0.00    -0.030 A 
ATOM      6  C6  <0> d          -1.232   1.649   0.017  0.00  0.00     0.028 A 
ATOM      7  H1  <0> d          -0.322   3.589   0.033  0.00  0.00     0.087 H 
ATOM      8  H2  <0> d          -2.468   4.794   0.041  0.00  0.00     0.087 H 
ATOM      9  H3  <0> d          -2.411  -0.142   0.013  0.00  0.00     0.090 H 
ENDROOT
BRANCH   4  10
ATOM     10  N2  <0> d          -4.838   0.904   0.030  0.00  0.00    -0.397 N 
ATOM     11  H6  <0> d          -4.827  -0.066   0.024  0.00  0.00     0.156 HD
ATOM     12  H7  <0> d          -5.683   1.379   0.037  0.00  0.00     0.156 HD
ENDBRANCH   4  10
BRANCH   3  13
ATOM     13  O1  <0> d          -4.834   3.679   0.046  0.00  0.00    -0.358 OA
ATOM     14  H8  <0> d          -5.173   3.867   0.932  0.00  0.00     0.217 HD
ENDBRANCH   3  13
BRANCH   6  15
ATOM     15  N1  <0> d          -0.011   0.966   0.007  0.00  0.00    -0.399 N 
ATOM     16  H4  <0> d           0.002  -0.004   0.002  0.00  0.00     0.156 HD
ATOM     17  H5  <0> d           0.822   1.462   0.002  0.00  0.00     0.156 HD
ENDBRANCH   6  15
TORSDOF 3
