REMARK  3 active torsions:
REMARK  status: ('A' for Active; 'I' for Inactive)
REMARK    1  A    between atoms: C4_4  and  O2_12 
REMARK    2  A    between atoms: C5_6  and  C7_9 
REMARK    3  A    between atoms: C7_9  and  C8_10 
ROOT
ATOM      1  C1  <0> d           0.018  -4.163   1.287  0.00  0.00    -0.065 C 
ATOM      2  C2  <0> d          -1.293  -4.945   1.169  0.00  0.00    -0.063 C 
ATOM      3  C3  <0> d          -2.003  -4.557  -0.129  0.00  0.00    -0.041 C 
ATOM      4  C4  <0> d          -2.303  -3.057  -0.118  0.00  0.00     0.039 C 
ATOM      5  H1  <0> d          -2.944  -2.821   0.731  0.00  0.00     0.083 H 
ATOM      6  C5  <0> d          -0.993  -2.276  -0.001  0.00  0.00    -0.020 C 
ATOM      7  H2  <0> d          -0.351  -2.512  -0.850  0.00  0.00     0.044 H 
ATOM      8  C6  <0> d          -0.282  -2.663   1.298  0.00  0.00    -0.059 C 
ATOM      9  H3  <0> d           0.659  -4.399   0.438  0.00  0.00     0.033 H 
ATOM     10  H4  <0> d           0.523  -4.439   2.212  0.00  0.00     0.033 H 
ATOM     11  H5  <0> d          -1.079  -6.013   1.162  0.00  0.00     0.033 H 
ATOM     12  H6  <0> d          -1.934  -4.708   2.019  0.00  0.00     0.033 H 
ATOM     13  H7  <0> d          -1.362  -4.793  -0.978  0.00  0.00     0.036 H 
ATOM     14  H8  <0> d          -2.937  -5.114  -0.213  0.00  0.00     0.036 H 
ATOM     15  H9  <0> d           0.651  -2.107   1.381  0.00  0.00     0.033 H 
ATOM     16  H10 <0> d          -0.924  -2.427   2.147  0.00  0.00     0.033 H 
ENDROOT
BRANCH   6  17
ATOM     17  C7  <0> d          -1.293  -0.775   0.010  0.00  0.00     0.021 C 
ATOM     18  H11 <0> d          -1.859  -0.524   0.907  0.00  0.00     0.049 H 
ATOM     19  H12 <0> d          -1.876  -0.515  -0.873  0.00  0.00     0.049 H 
BRANCH  17  20
ATOM     20  C8  <0> d           0.002  -0.004   0.002  0.00  0.00     0.172 C 
ATOM     21  O1  <0> d           1.056  -0.594  -0.011  0.00  0.00    -0.648 OA
ATOM     22  O3  <0> d          -0.016   1.338   0.009  0.00  0.00    -0.648 OA
ENDBRANCH  17  20
ENDBRANCH   6  17
BRANCH   4  23
ATOM     23  O2  <0> d          -2.966  -2.695  -1.331  0.00  0.00    -0.395 OA
ATOM     24  H13 <0> d          -3.806  -3.153  -1.472  0.00  0.00     0.210 HD
ENDBRANCH   4  23
TORSDOF 3
