REMARK  2 active torsions:
REMARK  status: ('A' for Active; 'I' for Inactive)
REMARK    1  A    between atoms: C1_1  and  C2_2 
REMARK    2  A    between atoms: C3_3  and  C6_7 
ROOT
ATOM      1  C2  <0> d           2.357   3.845   0.000  0.00  0.00     0.065 A 
ATOM      2  C3  <0> d           1.238   3.062   0.007  0.00  0.00     0.071 A 
ATOM      3  C4  <0> d           0.102   3.996   0.016  0.00  0.00    -0.043 A 
ATOM      4  C5  <0> d           0.637   5.226   0.023  0.00  0.00     0.020 A 
ATOM      5  O1  <0> d           1.975   5.125   0.010  0.00  0.00    -0.326 OA
ATOM      6  H4  <0> d          -0.948   3.743   0.019  0.00  0.00     0.088 H 
ATOM      7  H5  <0> d           0.079   6.151   0.033  0.00  0.00     0.123 H 
ENDROOT
BRANCH   1   8
ATOM      8  C1  <0> d           3.780   3.349  -0.016  0.00  0.00    -0.030 C 
ATOM      9  H1  <0> d           4.113   3.235  -1.048  0.00  0.00     0.036 H 
ATOM     10  H2  <0> d           4.421   4.067   0.496  0.00  0.00     0.036 H 
ATOM     11  H3  <0> d           3.835   2.386   0.492  0.00  0.00     0.036 H 
ENDBRANCH   1   8
BRANCH   2  12
ATOM     12  C6  <0> d           1.181   1.591  -0.001  0.00  0.00     0.211 C 
ATOM     13  O2  <0> d           2.209   0.943  -0.014  0.00  0.00    -0.644 OA
ATOM     14  O3  <0> d          -0.011   0.963   0.007  0.00  0.00    -0.644 OA
ENDBRANCH   2  12
TORSDOF 2
