REMARK  2 active torsions:
REMARK  status: ('A' for Active; 'I' for Inactive)
REMARK    1  A    between atoms: C1_1  and  C2_2 
REMARK    2  A    between atoms: C2_2  and  C3_3 
ROOT
ATOM      1  C3  <0> d          -0.054   4.106   0.024  0.00  0.00     0.125 A 
ATOM      2  N1  <0> d           1.109   3.484   0.010  0.00  0.00    -0.244 NA
ATOM      3  C4  <0> d           1.173   2.164   0.003  0.00  0.00     0.026 A 
ATOM      4  C5  <0> d          -0.017   1.428   0.010  0.00  0.00     0.079 A 
ATOM      5  C6  <0> d          -1.228   2.131   0.019  0.00  0.00     0.026 A 
ATOM      6  N2  <0> d          -1.199   3.452   0.031  0.00  0.00    -0.244 NA
ATOM      7  C7  <0> d           0.002  -0.004   0.002  0.00  0.00     0.102 C 
ATOM      8  N3  <0> d           0.018  -1.140  -0.004  0.00  0.00    -0.191 NA
ATOM      9  H6  <0> d           2.129   1.661  -0.009  0.00  0.00     0.117 H 
ATOM     10  H7  <0> d          -2.170   1.603   0.021  0.00  0.00     0.117 H 
ENDROOT
BRANCH   1  11
ATOM     11  C2  <0> d          -0.074   5.613   0.032  0.00  0.00    -0.011 C 
ATOM     12  H4  <0> d          -0.964   5.962   0.556  0.00  0.00     0.044 H 
ATOM     13  H5  <0> d           0.816   5.986   0.540  0.00  0.00     0.044 H 
BRANCH  11  14
ATOM     14  C1  <0> d          -0.094   6.131  -1.408  0.00  0.00    -0.070 C 
ATOM     15  H1  <0> d           0.796   5.782  -1.931  0.00  0.00     0.028 H 
ATOM     16  H2  <0> d          -0.984   5.758  -1.915  0.00  0.00     0.028 H 
ATOM     17  H3  <0> d          -0.109   7.221  -1.402  0.00  0.00     0.028 H 
ENDBRANCH  11  14
ENDBRANCH   1  11
TORSDOF 2
