REMARK  7 active torsions:
REMARK  status: ('A' for Active; 'I' for Inactive)
REMARK    1  A    between atoms: C1_1  and  C2_2 
REMARK    2  A    between atoms: C2_2  and  O1_3 
REMARK    3  A    between atoms: O1_3  and  C3_4 
REMARK    4  A    between atoms: C3_4  and  C4_6 
REMARK    5  A    between atoms: C4_6  and  C5_7 
REMARK    6  A    between atoms: C5_7  and  C6_8 
REMARK    7  A    between atoms: C7_9  and  C8_10 
ROOT
ATOM      1  C8  <0> d           2.379   1.057  -0.015  0.00  0.00    -0.090 C 
ATOM      2  C9  <0> d           3.403   0.484  -0.028  0.00  0.00    -0.150 C 
ATOM      3  H12 <0> d           4.319  -0.029  -0.039  0.00  0.00     0.166 H 
ENDROOT
BRANCH   1   4
ATOM      4  C7  <0> d           1.129   1.756   0.001  0.00  0.00    -0.037 C 
ATOM      5  C6  <0> d          -0.013   1.076   0.008  0.00  0.00    -0.095 C 
ATOM      6  H10 <0> d           0.002  -0.004   0.002  0.00  0.00     0.077 H 
ATOM      7  H11 <0> d           1.114   2.836   0.007  0.00  0.00     0.097 H 
BRANCH   5   8
ATOM      8  C5  <0> d          -1.328   1.812   0.018  0.00  0.00    -0.041 C 
ATOM      9  H8  <0> d          -1.853   1.605   0.951  0.00  0.00     0.039 H 
ATOM     10  H9  <0> d          -1.145   2.883  -0.066  0.00  0.00     0.039 H 
BRANCH   8  11
ATOM     11  C4  <0> d          -2.182   1.345  -1.162  0.00  0.00     0.019 C 
ATOM     12  H6  <0> d          -1.658   1.552  -2.095  0.00  0.00     0.048 H 
ATOM     13  H7  <0> d          -2.365   0.274  -1.077  0.00  0.00     0.048 H 
BRANCH  11  14
ATOM     14  C3  <0> d          -3.498   2.080  -1.152  0.00  0.00     0.259 C 
ATOM     15  O2  <0> d          -3.728   2.894  -0.289  0.00  0.00    -0.265 OA
BRANCH  14  16
ATOM     16  O1  <0> d          -4.413   1.831  -2.101  0.00  0.00    -0.322 OA
BRANCH  16  17
ATOM     17  C2  <0> d          -5.657   2.577  -2.029  0.00  0.00     0.025 C 
ATOM     18  H4  <0> d          -6.153   2.366  -1.081  0.00  0.00     0.074 H 
ATOM     19  H5  <0> d          -5.446   3.644  -2.099  0.00  0.00     0.074 H 
BRANCH  17  20
ATOM     20  C1  <0> d          -6.569   2.161  -3.185  0.00  0.00    -0.056 C 
ATOM     21  H1  <0> d          -7.503   2.721  -3.131  0.00  0.00     0.030 H 
ATOM     22  H2  <0> d          -6.073   2.372  -4.133  0.00  0.00     0.030 H 
ATOM     23  H3  <0> d          -6.780   1.094  -3.115  0.00  0.00     0.030 H 
ENDBRANCH  17  20
ENDBRANCH  16  17
ENDBRANCH  14  16
ENDBRANCH  11  14
ENDBRANCH   8  11
ENDBRANCH   5   8
ENDBRANCH   1   4
TORSDOF 7
