REMARK  7 active torsions:
REMARK  status: ('A' for Active; 'I' for Inactive)
REMARK    1  A    between atoms: C1_1  and  C2_2 
REMARK    2  A    between atoms: C2_2  and  C3_3 
REMARK    3  A    between atoms: C2_2  and  C4_4 
REMARK    4  A    between atoms: C4_4  and  O2_6 
REMARK    5  A    between atoms: O2_6  and  C5_7 
REMARK    6  A    between atoms: C5_7  and  C6_8 
REMARK    7  A    between atoms: C5_7  and  C7_9 
ROOT
ATOM      1  C4  <0> d           0.002  -0.004   0.002  0.00  0.00     0.262 C 
ATOM      2  O1  <0> d          -0.504  -0.620   0.910  0.00  0.00    -0.265 OA
ENDROOT
BRANCH   1   3
ATOM      3  C2  <0> d          -0.018   1.503   0.010  0.00  0.00     0.023 C 
ATOM      4  H4  <0> d           1.004   1.880   0.003  0.00  0.00     0.054 H 
BRANCH   3   5
ATOM      5  C1  <0> d          -0.758   2.010  -1.229  0.00  0.00    -0.065 C 
ATOM      6  H1  <0> d          -1.781   1.632  -1.222  0.00  0.00     0.028 H 
ATOM      7  H2  <0> d          -0.773   3.099  -1.223  0.00  0.00     0.028 H 
ATOM      8  H3  <0> d          -0.248   1.658  -2.126  0.00  0.00     0.028 H 
ENDBRANCH   3   5
BRANCH   3   9
ATOM      9  C3  <0> d          -0.735   1.996   1.269  0.00  0.00    -0.065 C 
ATOM     10  H5  <0> d          -0.207   1.635   2.152  0.00  0.00     0.028 H 
ATOM     11  H6  <0> d          -0.749   3.086   1.275  0.00  0.00     0.028 H 
ATOM     12  H7  <0> d          -1.757   1.619   1.277  0.00  0.00     0.028 H 
ENDBRANCH   3   9
ENDBRANCH   1   3
BRANCH   1  13
ATOM     13  O2  <0> d           0.583  -0.662  -1.014  0.00  0.00    -0.317 OA
BRANCH  13  14
ATOM     14  C5  <0> d           0.565  -2.112  -0.956  0.00  0.00     0.041 C 
ATOM     15  H8  <0> d           0.570  -2.434   0.086  0.00  0.00     0.083 H 
BRANCH  14  16
ATOM     16  C6  <0> d          -0.697  -2.635  -1.645  0.00  0.00    -0.052 C 
ATOM     17  H9  <0> d          -1.578  -2.240  -1.138  0.00  0.00     0.030 H 
ATOM     18  H10 <0> d          -0.703  -2.313  -2.686  0.00  0.00     0.030 H 
ATOM     19  H11 <0> d          -0.710  -3.724  -1.601  0.00  0.00     0.030 H 
ENDBRANCH  14  16
BRANCH  14  20
ATOM     20  C7  <0> d           1.801  -2.667  -1.667  0.00  0.00    -0.052 C 
ATOM     21  H12 <0> d           2.700  -2.294  -1.176  0.00  0.00     0.030 H 
ATOM     22  H13 <0> d           1.788  -3.756  -1.623  0.00  0.00     0.030 H 
ATOM     23  H14 <0> d           1.796  -2.345  -2.708  0.00  0.00     0.030 H 
ENDBRANCH  14  20
ENDBRANCH  13  14
ENDBRANCH   1  13
TORSDOF 7
