REMARK  5 active torsions:
REMARK  status: ('A' for Active; 'I' for Inactive)
REMARK    1  A    between atoms: C1_1  and  C2_2 
REMARK    2  A    between atoms: C2_2  and  N1_3 
REMARK    3  A    between atoms: N1_3  and  C3_4 
REMARK    4  A    between atoms: N1_3  and  C5_6 
REMARK    5  A    between atoms: C3_4  and  C4_5 
ROOT
ATOM      1  N1  <0> d          -0.017   1.392   0.010  0.00  0.00    -0.214 N 
ENDROOT
BRANCH   1   2
ATOM      2  C2  <0> d           1.242   2.142   0.002  0.00  0.00     0.008 C 
ATOM      3  H5  <0> d           2.021   1.555   0.510  0.00  0.00     0.064 H 
ATOM      4  H6  <0> d           1.102   3.098   0.527  0.00  0.00     0.064 H 
BRANCH   2   5
ATOM      5  C1  <0> d           1.666   2.410  -1.444  0.00  0.00    -0.060 C 
ATOM      6  H2  <0> d           2.611   2.973  -1.450  0.00  0.00     0.029 H 
ATOM      7  H3  <0> d           0.886   2.997  -1.951  0.00  0.00     0.029 H 
ATOM      8  H4  <0> d           1.806   1.454  -1.968  0.00  0.00     0.029 H 
ENDBRANCH   2   5
ENDBRANCH   1   2
BRANCH   1   9
ATOM      9  C3  <0> d          -1.295   2.107   0.020  0.00  0.00     0.008 C 
ATOM     10  H7  <0> d          -1.179   3.073  -0.494  0.00  0.00     0.064 H 
ATOM     11  H8  <0> d          -2.056   1.505  -0.499  0.00  0.00     0.064 H 
BRANCH   9  12
ATOM     12  C4  <0> d          -1.734   2.348   1.466  0.00  0.00    -0.060 C 
ATOM     13  H9  <0> d          -2.694   2.885   1.473  0.00  0.00     0.029 H 
ATOM     14  H10 <0> d          -0.973   2.950   1.984  0.00  0.00     0.029 H 
ATOM     15  H11 <0> d          -1.850   1.383   1.979  0.00  0.00     0.029 H 
ENDBRANCH   9  12
ENDBRANCH   1   9
BRANCH   1  16
ATOM     16  C5  <0> d           0.002  -0.004   0.002  0.00  0.00     0.739 A 
ATOM     17  N2  <0> d          -1.049  -0.797   0.013  0.00  0.00    -0.086 N 
ATOM     18  H1  <0> d          -2.062  -0.368   0.026  0.00  0.00     0.209 HD
ATOM     19  N3  <0> d          -0.543  -2.108   0.005  0.00  0.00    -0.033 NA
ATOM     20  N4  <0> d           0.743  -2.017  -0.016  0.00  0.00    -0.008 NA
ATOM     21  N5  <0> d           1.088  -0.778  -0.018  0.00  0.00     0.065 NA
ENDBRANCH   1  16
TORSDOF 5
