REMARK  1 active torsions:
REMARK  status: ('A' for Active; 'I' for Inactive)
REMARK    1  A    between atoms: C1_1  and  C2_2 
ROOT
ATOM      1  C2  <0> d           1.092   2.030   0.003  0.00  0.00     0.031 A 
ATOM      2  C3  <0> d           2.330   1.419  -0.013  0.00  0.00    -0.040 A 
ATOM      3  C4  <0> d           2.397   0.021  -0.021  0.00  0.00     0.048 A 
ATOM      4  C5  <0> d           1.196  -0.697  -0.013  0.00  0.00    -0.046 A 
ATOM      5  C6  <0> d           0.002  -0.004   0.002  0.00  0.00     0.004 A 
ATOM      6  N1  <0> d          -0.016   1.315   0.009  0.00  0.00    -0.266 NA
ATOM      7  C7  <0> d           3.659  -0.655  -0.037  0.00  0.00     0.099 C 
ATOM      8  N2  <0> d           4.660  -1.192  -0.050  0.00  0.00    -0.191 NA
ATOM      9  H4  <0> d           3.233   2.011  -0.018  0.00  0.00     0.088 H 
ATOM     10  H5  <0> d           1.203  -1.777  -0.019  0.00  0.00     0.088 H 
ATOM     11  H6  <0> d          -0.930  -0.549   0.008  0.00  0.00     0.114 H 
ENDROOT
BRANCH   1  12
ATOM     12  C1  <0> d           1.005   3.534   0.011  0.00  0.00    -0.035 C 
ATOM     13  H1  <0> d           0.994   3.891   1.041  0.00  0.00     0.035 H 
ATOM     14  H2  <0> d           1.868   3.951  -0.508  0.00  0.00     0.035 H 
ATOM     15  H3  <0> d           0.091   3.848  -0.492  0.00  0.00     0.035 H 
ENDBRANCH   1  12
TORSDOF 1
