REMARK  2 active torsions:
REMARK  status: ('A' for Active; 'I' for Inactive)
REMARK    1  A    between atoms: C1_1  and  S1_2 
REMARK    2  A    between atoms: S1_2  and  C2_3 
ROOT
ATOM      1  C2  <0> d          -1.225   1.755   0.017  0.00  0.00     0.001 A 
ATOM      2  C3  <0> d          -0.013   1.076   0.008  0.00  0.00    -0.067 A 
ATOM      3  C4  <0> d           1.173   1.783   0.000  0.00  0.00    -0.080 A 
ATOM      4  C5  <0> d           1.156   3.166   0.007  0.00  0.00    -0.062 A 
ATOM      5  C6  <0> d          -0.049   3.846   0.022  0.00  0.00     0.035 A 
ATOM      6  C7  <0> d          -1.240   3.144   0.030  0.00  0.00    -0.046 A 
ATOM      7 Cl1  <0> d          -0.066   5.582   0.031  0.00  0.00    -0.084 Cl
ATOM      8  H4  <0> d           0.002  -0.004   0.002  0.00  0.00     0.085 H 
ATOM      9  H5  <0> d           2.116   1.255  -0.011  0.00  0.00     0.083 H 
ATOM     10  H6  <0> d           2.085   3.716   0.001  0.00  0.00     0.086 H 
ATOM     11  H7  <0> d          -2.180   3.675   0.042  0.00  0.00     0.088 H 
ENDROOT
BRANCH   1  12
ATOM     12  S1  <0> d          -2.741   0.856   0.020  0.00  0.00    -0.134 SA
BRANCH  12  13
ATOM     13  C1  <0> d          -4.016   2.146   0.033  0.00  0.00    -0.030 C 
ATOM     14  H1  <0> d          -5.002   1.682   0.036  0.00  0.00     0.042 H 
ATOM     15  H2  <0> d          -3.902   2.761   0.926  0.00  0.00     0.042 H 
ATOM     16  H3  <0> d          -3.911   2.770  -0.854  0.00  0.00     0.042 H 
ENDBRANCH  12  13
ENDBRANCH   1  12
TORSDOF 2
