REMARK  1 active torsions:
REMARK  status: ('A' for Active; 'I' for Inactive)
REMARK    1  A    between atoms: C4_4  and  C6_6 
ROOT
ATOM      1  C6  <0> d           3.692   0.815   0.127  0.00  0.00     0.018 C 
ATOM      2  C7  <0> d           4.404   1.909   0.806  0.00  0.00     0.059 C 
ATOM      3  N1  <0> d           4.953   2.754   1.331  0.00  0.00    -0.197 NA
ATOM      4  H10 <0> d           4.165  -0.135   0.374  0.00  0.00     0.055 H 
ATOM      5  H11 <0> d           3.731   0.970  -0.952  0.00  0.00     0.055 H 
ENDROOT
BRANCH   1   6
ATOM      6  C4  <0> d           2.232   0.792   0.586  0.00  0.00    -0.043 C 
ATOM      7  C3  <0> d           1.486  -0.425  -0.014  0.00  0.00    -0.061 C 
ATOM      8  C2  <0> d           0.002  -0.004   0.002  0.00  0.00    -0.065 C 
ATOM      9  H5  <0> d           1.639  -1.309   0.604  0.00  0.00     0.033 H 
ATOM     10  H6  <0> d           1.818  -0.612  -1.036  0.00  0.00     0.033 H 
ATOM     11  C1  <0> d          -0.019   1.534   0.011  0.00  0.00    -0.065 C 
ATOM     12  H3  <0> d          -0.485  -0.389   0.898  0.00  0.00     0.033 H 
ATOM     13  H4  <0> d          -0.502  -0.379  -0.888  0.00  0.00     0.033 H 
ATOM     14  C5  <0> d           1.453   1.995  -0.001  0.00  0.00    -0.061 C 
ATOM     15  H1  <0> d          -0.533   1.906  -0.876  0.00  0.00     0.033 H 
ATOM     16  H2  <0> d          -0.516   1.896   0.910  0.00  0.00     0.033 H 
ATOM     17  H8  <0> d           1.781   2.201  -1.020  0.00  0.00     0.033 H 
ATOM     18  H9  <0> d           1.582   2.877   0.627  0.00  0.00     0.033 H 
ATOM     19  H7  <0> d           2.169   0.786   1.675  0.00  0.00     0.041 H 
ENDBRANCH   1   6
TORSDOF 1
