REMARK  5 active torsions:
REMARK  status: ('A' for Active; 'I' for Inactive)
REMARK    1  A    between atoms: C1_1  and  C2_2 
REMARK    2  A    between atoms: C2_2  and  C3_3 
REMARK    3  A    between atoms: C3_3  and  C4_4 
REMARK    4  A    between atoms: C3_3  and  C6_6 
REMARK    5  A    between atoms: C4_4  and  C5_5 
ROOT
ATOM      1  C3  <0> d          -2.530   3.893   0.046  0.00  0.00    -0.029 C 
ATOM      2  H6  <0> d          -2.322   4.963   0.049  0.00  0.00     0.047 H 
ENDROOT
BRANCH   1   3
ATOM      3  C2  <0> d          -3.346   3.536  -1.198  0.00  0.00    -0.061 C 
ATOM      4  H4  <0> d          -2.747   3.716  -2.090  0.00  0.00     0.033 H 
ATOM      5  H5  <0> d          -3.630   2.484  -1.157  0.00  0.00     0.033 H 
BRANCH   3   6
ATOM      6  C1  <0> d          -4.607   4.402  -1.247  0.00  0.00    -0.076 C 
ATOM      7  H1  <0> d          -4.323   5.454  -1.288  0.00  0.00     0.027 H 
ATOM      8  H2  <0> d          -5.188   4.148  -2.132  0.00  0.00     0.027 H 
ATOM      9  H3  <0> d          -5.206   4.222  -0.354  0.00  0.00     0.027 H 
ENDBRANCH   3   6
ENDBRANCH   1   3
BRANCH   1  10
ATOM     10  C4  <0> d          -3.324   3.524   1.301  0.00  0.00    -0.061 C 
ATOM     11  H7  <0> d          -4.300   4.008   1.268  0.00  0.00     0.033 H 
ATOM     12  H8  <0> d          -3.455   2.443   1.343  0.00  0.00     0.033 H 
BRANCH  10  13
ATOM     13  C5  <0> d          -2.563   3.994   2.542  0.00  0.00    -0.076 C 
ATOM     14  H9  <0> d          -1.586   3.510   2.574  0.00  0.00     0.027 H 
ATOM     15  H10 <0> d          -2.431   5.075   2.500  0.00  0.00     0.027 H 
ATOM     16  H11 <0> d          -3.128   3.731   3.436  0.00  0.00     0.027 H 
ENDBRANCH  10  13
ENDBRANCH   1  10
BRANCH   1  17
ATOM     17  C6  <0> d          -1.231   3.129   0.030  0.00  0.00    -0.051 A 
ATOM     18  C10 <0> d          -0.015   3.796   0.022  0.00  0.00    -0.060 A 
ATOM     19  C9  <0> d           1.155   3.061   0.007  0.00  0.00     0.002 A 
ATOM     20  H15 <0> d           0.016   4.875   0.027  0.00  0.00     0.086 H 
ATOM     21  N1  <0> d           1.125   1.743   0.001  0.00  0.00    -0.273 NA
ATOM     22  H14 <0> d           2.107   3.573   0.001  0.00  0.00     0.114 H 
ATOM     23  C8  <0> d          -0.013   1.076   0.008  0.00  0.00     0.002 A 
ATOM     24  C7  <0> d          -1.223   1.742   0.017  0.00  0.00    -0.060 A 
ATOM     25  H13 <0> d           0.002  -0.004   0.002  0.00  0.00     0.114 H 
ATOM     26  H12 <0> d          -2.151   1.190   0.018  0.00  0.00     0.086 H 
ENDBRANCH   1  17
TORSDOF 5
