REMARK  0 active torsions:
REMARK  status: ('A' for Active; 'I' for Inactive)
ROOT
ATOM      1  C1  <0> d          -0.013   1.076   0.008  0.00  0.00    -0.061 A 
ATOM      2  C2  <0> d          -1.212   1.773   0.017  0.00  0.00    -0.042 A 
ATOM      3  C3  <0> d          -1.156   3.170   0.030  0.00  0.00     0.158 A 
ATOM      4  N1  <0> d           0.024   3.780   0.022  0.00  0.00    -0.140 NA
ATOM      5  N2  <0> d           1.128   3.126   0.008  0.00  0.00    -0.162 NA
ATOM      6  C4  <0> d           1.166   1.805   0.001  0.00  0.00     0.024 A 
ATOM      7  C5  <0> d          -2.364   3.939   0.045  0.00  0.00     0.121 C 
ATOM      8  N3  <0> d          -3.322   4.550   0.058  0.00  0.00    -0.190 NA
ATOM      9  H1  <0> d           0.002  -0.004   0.002  0.00  0.00     0.085 H 
ATOM     10  H2  <0> d          -2.159   1.254   0.018  0.00  0.00     0.088 H 
ATOM     11  H3  <0> d           2.117   1.293  -0.011  0.00  0.00     0.117 H 
ENDROOT
TORSDOF 0
