REMARK  0 active torsions:
REMARK  status: ('A' for Active; 'I' for Inactive)
ROOT
ATOM      1  C1  <0> d           1.950   0.839  -3.652  0.00  0.00    -0.059 A 
ATOM      2  C2  <0> d           1.206   0.937  -4.812  0.00  0.00     0.002 A 
ATOM      3  N1  <0> d          -0.085   1.202  -4.762  0.00  0.00    -0.272 NA
ATOM      4  C3  <0> d          -0.712   1.383  -3.617  0.00  0.00     0.010 A 
ATOM      5  C4  <0> d          -0.030   1.303  -2.414  0.00  0.00    -0.006 A 
ATOM      6  C5  <0> d           1.322   1.024  -2.429  0.00  0.00    -0.046 A 
ATOM      7  C6  <0> d           2.125   0.915  -1.161  0.00  0.00    -0.016 C 
ATOM      8  C7  <0> d           1.355   1.551  -0.003  0.00  0.00     0.115 C 
ATOM      9  N2  <0> d          -0.012   1.005   0.008  0.00  0.00     0.087 N 
ATOM     10  C8  <0> d          -0.779   1.526  -1.129  0.00  0.00     0.137 C 
ATOM     11  H1  <0> d           3.007   0.622  -3.697  0.00  0.00     0.086 H 
ATOM     12  H2  <0> d           1.686   0.796  -5.770  0.00  0.00     0.114 H 
ATOM     13  H3  <0> d          -1.770   1.598  -3.617  0.00  0.00     0.115 H 
ATOM     14  H4  <0> d           2.312  -0.145  -0.935  0.00  0.00     0.042 H 
ATOM     15  H5  <0> d           3.085   1.437  -1.289  0.00  0.00     0.042 H 
ATOM     16  H6  <0> d           1.859   1.315   0.946  0.00  0.00     0.080 H 
ATOM     17  H7  <0> d           1.321   2.642  -0.139  0.00  0.00     0.080 H 
ATOM     18  H8  <0> d           0.031  -0.092  -0.062  0.00  0.00     0.316 HD
ATOM     19  H9  <0> d          -0.946   2.604  -0.984  0.00  0.00     0.087 H 
ATOM     20  H10 <0> d          -1.748   1.008  -1.174  0.00  0.00     0.087 H 
ENDROOT
TORSDOF 0
