REMARK  0 active torsions:
REMARK  status: ('A' for Active; 'I' for Inactive)
ROOT
ATOM      1  C1  <0> d           3.083   4.096  -0.005  0.00  0.00    -0.082 A 
ATOM      2  C2  <0> d           3.477   2.769  -0.015  0.00  0.00    -0.082 A 
ATOM      3  C3  <0> d           2.532   1.767  -0.012  0.00  0.00    -0.069 A 
ATOM      4  C4  <0> d           1.166   2.089   0.002  0.00  0.00     0.017 A 
ATOM      5  C5  <0> d           0.779   3.429   0.013  0.00  0.00    -0.043 A 
ATOM      6  C6  <0> d           1.740   4.423   0.010  0.00  0.00    -0.076 A 
ATOM      7  C7  <0> d          -0.727   3.522   0.028  0.00  0.00    -0.018 A 
ATOM      8  C8  <0> d          -1.248   2.078   0.019  0.00  0.00     0.096 A 
ATOM      9  H1  <0> d          -1.917   1.858  -0.826  0.00  0.00     0.075 H 
ATOM     10  C9  <0> d          -0.014   1.208   0.009  0.00  0.00     0.177 A 
ATOM     11  O1  <0> d           0.002  -0.004   0.002  0.00  0.00    -0.291 OA
ATOM     12  C10 <0> d          -2.045   1.818   1.229  0.00  0.00     0.072 C 
ATOM     13  N1  <0> d          -2.660   1.618   2.162  0.00  0.00    -0.196 NA
ATOM     14  H2  <0> d           3.828   4.878  -0.007  0.00  0.00     0.083 H 
ATOM     15  H3  <0> d           4.527   2.518  -0.026  0.00  0.00     0.083 H 
ATOM     16  H4  <0> d           2.842   0.733  -0.021  0.00  0.00     0.085 H 
ATOM     17  H5  <0> d           1.440   5.460   0.018  0.00  0.00     0.084 H 
ATOM     18  H6  <0> d          -1.053   4.053   0.934  0.00  0.00     0.042 H 
ATOM     19  H7  <0> d          -1.070   4.071  -0.862  0.00  0.00     0.042 H 
ENDROOT
TORSDOF 0
