REMARK  0 active torsions:
REMARK  status: ('A' for Active; 'I' for Inactive)
ROOT
ATOM      1  C1  <0> d          -4.825   3.942  -1.034  0.00  0.00    -0.065 C 
ATOM      2  C2  <0> d          -3.420   4.434  -0.683  0.00  0.00    -0.064 C 
ATOM      3  C3  <0> d          -2.849   3.580   0.450  0.00  0.00    -0.053 C 
ATOM      4  C4  <0> d          -2.779   2.118   0.001  0.00  0.00    -0.007 C 
ATOM      5  C5  <0> d          -4.186   1.627  -0.348  0.00  0.00    -0.053 C 
ATOM      6  C6  <0> d          -4.757   2.481  -1.481  0.00  0.00    -0.064 C 
ATOM      7  C7  <0> d          -2.216   1.266   1.144  0.00  0.00    -0.052 C 
ATOM      8  C8  <0> d          -0.719   1.574   1.274  0.00  0.00    -0.047 C 
ATOM      9  C9  <0> d          -0.013   1.086   0.008  0.00  0.00     0.014 C 
ATOM     10  N1  <0> d          -0.708   1.564  -1.180  0.00  0.00    -0.305 NA
ATOM     11  C10 <0> d          -1.890   2.002  -1.204  0.00  0.00    -0.015 C 
ATOM     12  H1  <0> d          -5.236   4.556  -1.849  0.00  0.00     0.033 H 
ATOM     13  H2  <0> d          -5.474   4.025  -0.150  0.00  0.00     0.033 H 
ATOM     14  H3  <0> d          -2.771   4.351  -1.568  0.00  0.00     0.033 H 
ATOM     15  H4  <0> d          -3.468   5.485  -0.362  0.00  0.00     0.033 H 
ATOM     16  H5  <0> d          -1.839   3.934   0.703  0.00  0.00     0.034 H 
ATOM     17  H6  <0> d          -3.498   3.661   1.334  0.00  0.00     0.034 H 
ATOM     18  H7  <0> d          -4.138   0.576  -0.669  0.00  0.00     0.034 H 
ATOM     19  H8  <0> d          -4.833   1.710   0.537  0.00  0.00     0.034 H 
ATOM     20  H9  <0> d          -5.768   2.127  -1.733  0.00  0.00     0.033 H 
ATOM     21  H10 <0> d          -4.109   2.397  -2.366  0.00  0.00     0.033 H 
ATOM     22  H11 <0> d          -2.737   1.518   2.080  0.00  0.00     0.034 H 
ATOM     23  H12 <0> d          -2.365   0.201   0.916  0.00  0.00     0.034 H 
ATOM     24  H13 <0> d          -0.576   2.659   1.390  0.00  0.00     0.035 H 
ATOM     25  H14 <0> d          -0.313   1.055   2.155  0.00  0.00     0.035 H 
ATOM     26  H15 <0> d           1.020   1.465  -0.005  0.00  0.00     0.067 H 
ATOM     27  H16 <0> d           0.000  -0.014  -0.004  0.00  0.00     0.067 H 
ATOM     28  H17 <0> d          -2.335   2.332  -2.154  0.00  0.00     0.108 H 
ENDROOT
TORSDOF 0
